@<TRIPOS>MOLECULE
*****
 54 58 0 0 0
SMALL
GASTEIGER

@<TRIPOS>ATOM
      1 C           6.0084    3.5883    1.2312 C.3     1  UNL1        0.0302
      2 N           5.5005    2.2394    1.0317 N.ar    1  UNL1       -0.2739
      3 C           4.3148    1.8514    0.5230 C.ar    1  UNL1        0.0329
      4 C           4.2831    0.4783    0.5306 C.ar    1  UNL1        0.0196
      5 C           3.1879   -0.3681    0.0682 C.ar    1  UNL1       -0.0149
      6 C           2.9238   -1.6008    0.6312 C.ar    1  UNL1       -0.0534
      7 C           1.8886   -2.3942    0.1903 C.ar    1  UNL1       -0.0533
      8 C           1.0389   -2.0016   -0.8562 C.ar    1  UNL1       -0.0146
      9 C          -0.0224   -2.8929   -1.3109 C.ar    1  UNL1        0.0227
     10 C           0.3216   -4.1676   -1.8124 C.ar    1  UNL1        0.0371
     11 N          -0.6048   -5.0182   -2.2557 N.ar    1  UNL1       -0.2611
     12 C          -1.9023   -4.6757   -2.2342 C.ar    1  UNL1        0.0477
     13 C          -2.2669   -3.4386   -1.7501 C.ar    1  UNL1        0.0806
     14 CL         -3.9373   -2.9884   -1.7172 Cl      1  UNL1       -0.0800
     15 C          -1.3291   -2.5083   -1.2720 C.ar    1  UNL1        0.0590
     16 N          -1.7560   -1.2689   -0.7746 N.pl3   1  UNL1       -0.3282
     17 C          -2.0539   -1.1205    0.6677 C.3     1  UNL1        0.0132
     18 C          -1.8895    0.3329    1.0006 C.3     1  UNL1       -0.0232
     19 C          -2.9131    1.2002    0.3339 C.3     1  UNL1        0.0512
     20 C          -4.1290    1.3023    1.2214 C.3     1  UNL1       -0.0233
     21 C          -4.4903    2.7578    1.3122 C.3     1  UNL1        0.0126
     22 N          -3.2163    3.4078    1.0764 N.am    1  UNL1       -0.3148
     23 C          -2.4751    2.6032    0.1831 C.2     1  UNL1        0.2194
     24 O          -1.5909    3.0497   -0.6002 O.2     1  UNL1       -0.2752
     25 C          -3.2717    0.5718   -1.0153 C.3     1  UNL1       -0.0232
     26 C          -1.9868   -0.0558   -1.5267 C.3     1  UNL1        0.0132
     27 C           1.3163   -0.7755   -1.4037 C.ar    1  UNL1       -0.0533
     28 C           2.3577    0.0268   -0.9623 C.ar    1  UNL1       -0.0534
     29 C           5.4888    0.0773    1.0602 C.ar    1  UNL1        0.0571
     30 N           6.2158    1.1679    1.3589 N.ar    1  UNL1       -0.1793
     31 H           6.6409    3.6454    2.1348 H       1  UNL1        0.0473
     32 H           5.1468    4.2681    1.2791 H       1  UNL1        0.0473
     33 H           6.6657    3.8859    0.3778 H       1  UNL1        0.0473
     34 H           3.5575    2.5535    0.1832 H       1  UNL1        0.0832
     35 H           3.5703   -1.9155    1.4380 H       1  UNL1        0.0624
     36 H           1.6660   -3.3635    0.6192 H       1  UNL1        0.0624
     37 H           1.3788   -4.4123   -1.8157 H       1  UNL1        0.0836
     38 H          -2.6240   -5.3920   -2.6023 H       1  UNL1        0.0845
     39 H          -1.3178   -1.7234    1.2016 H       1  UNL1        0.0464
     40 H          -3.0873   -1.4542    0.8477 H       1  UNL1        0.0464
     41 H          -0.8670    0.6707    0.7802 H       1  UNL1        0.0290
     42 H          -2.0377    0.4483    2.1044 H       1  UNL1        0.0290
     43 H          -3.9117    0.9228    2.2398 H       1  UNL1        0.0290
     44 H          -4.9996    0.7487    0.8022 H       1  UNL1        0.0290
     45 H          -5.1878    3.0735    0.4922 H       1  UNL1        0.0462
     46 H          -4.9306    3.0295    2.2992 H       1  UNL1        0.0462
     47 H          -2.9356    4.3160    1.5133 H       1  UNL1        0.1487
     48 H          -4.0590   -0.1575   -0.8130 H       1  UNL1        0.0290
     49 H          -3.6417    1.3787   -1.6720 H       1  UNL1        0.0290
     50 H          -1.9803   -0.1968   -2.6064 H       1  UNL1        0.0464
     51 H          -1.1590    0.6580   -1.2359 H       1  UNL1        0.0464
     52 H           0.7286   -0.4142   -2.2123 H       1  UNL1        0.0624
     53 H           2.5558    0.9992   -1.4160 H       1  UNL1        0.0624
     54 H           5.8182   -0.9487    1.2192 H       1  UNL1        0.0854
@<TRIPOS>BOND
     1     1     2    1
     2     2     3   ar
     3     3     4   ar
     4     4     5    1
     5     5     6   ar
     6     6     7   ar
     7     7     8   ar
     8     8     9    1
     9     9    10   ar
    10    10    11   ar
    11    11    12   ar
    12    12    13   ar
    13    13    14    1
    14    13    15   ar
    15    15    16    1
    16    16    17    1
    17    17    18    1
    18    18    19    1
    19    19    20    1
    20    20    21    1
    21    21    22    1
    22    22    23   am
    23    23    24    2
    24    19    25    1
    25    25    26    1
    26     8    27   ar
    27    27    28   ar
    28     4    29   ar
    29    29    30   ar
    30    30     2   ar
    31    28     5   ar
    32    15     9   ar
    33    26    16    1
    34    23    19    1
    35     1    31    1
    36     1    32    1
    37     1    33    1
    38     3    34    1
    39     6    35    1
    40     7    36    1
    41    10    37    1
    42    12    38    1
    43    17    39    1
    44    17    40    1
    45    18    41    1
    46    18    42    1
    47    20    43    1
    48    20    44    1
    49    21    45    1
    50    21    46    1
    51    22    47    1
    52    25    48    1
    53    25    49    1
    54    26    50    1
    55    26    51    1
    56    27    52    1
    57    28    53    1
    58    29    54    1
