
     RDKit          3D

 54 58  0  0  0  0  0  0  0  0999 V2000
    6.0084    3.5883    1.2312 C   0  0  0  0  0  0  0  0  0  0  0  0
    5.5005    2.2394    1.0317 N   0  0  0  0  0  0  0  0  0  0  0  0
    4.3148    1.8514    0.5230 C   0  0  0  0  0  0  0  0  0  0  0  0
    4.2831    0.4783    0.5306 C   0  0  0  0  0  0  0  0  0  0  0  0
    3.1879   -0.3681    0.0682 C   0  0  0  0  0  0  0  0  0  0  0  0
    2.9238   -1.6008    0.6312 C   0  0  0  0  0  0  0  0  0  0  0  0
    1.8886   -2.3942    0.1903 C   0  0  0  0  0  0  0  0  0  0  0  0
    1.0389   -2.0016   -0.8562 C   0  0  0  0  0  0  0  0  0  0  0  0
   -0.0224   -2.8929   -1.3109 C   0  0  0  0  0  0  0  0  0  0  0  0
    0.3216   -4.1676   -1.8124 C   0  0  0  0  0  0  0  0  0  0  0  0
   -0.6048   -5.0182   -2.2557 N   0  0  0  0  0  0  0  0  0  0  0  0
   -1.9023   -4.6757   -2.2342 C   0  0  0  0  0  0  0  0  0  0  0  0
   -2.2669   -3.4386   -1.7501 C   0  0  0  0  0  0  0  0  0  0  0  0
   -3.9373   -2.9884   -1.7172 Cl  0  0  0  0  0  0  0  0  0  0  0  0
   -1.3291   -2.5083   -1.2720 C   0  0  0  0  0  0  0  0  0  0  0  0
   -1.7560   -1.2689   -0.7746 N   0  0  0  0  0  0  0  0  0  0  0  0
   -2.0539   -1.1205    0.6677 C   0  0  0  0  0  0  0  0  0  0  0  0
   -1.8895    0.3329    1.0006 C   0  0  0  0  0  0  0  0  0  0  0  0
   -2.9131    1.2002    0.3339 C   0  0  0  0  0  0  0  0  0  0  0  0
   -4.1290    1.3023    1.2214 C   0  0  0  0  0  0  0  0  0  0  0  0
   -4.4903    2.7578    1.3122 C   0  0  0  0  0  0  0  0  0  0  0  0
   -3.2163    3.4078    1.0764 N   0  0  0  0  0  0  0  0  0  0  0  0
   -2.4751    2.6032    0.1831 C   0  0  0  0  0  0  0  0  0  0  0  0
   -1.5909    3.0497   -0.6002 O   0  0  0  0  0  0  0  0  0  0  0  0
   -3.2717    0.5718   -1.0153 C   0  0  0  0  0  0  0  0  0  0  0  0
   -1.9868   -0.0558   -1.5267 C   0  0  0  0  0  0  0  0  0  0  0  0
    1.3163   -0.7755   -1.4037 C   0  0  0  0  0  0  0  0  0  0  0  0
    2.3577    0.0268   -0.9623 C   0  0  0  0  0  0  0  0  0  0  0  0
    5.4888    0.0773    1.0602 C   0  0  0  0  0  0  0  0  0  0  0  0
    6.2158    1.1679    1.3589 N   0  0  0  0  0  0  0  0  0  0  0  0
    6.6409    3.6454    2.1348 H   0  0  0  0  0  0  0  0  0  0  0  0
    5.1468    4.2681    1.2791 H   0  0  0  0  0  0  0  0  0  0  0  0
    6.6657    3.8859    0.3778 H   0  0  0  0  0  0  0  0  0  0  0  0
    3.5575    2.5535    0.1832 H   0  0  0  0  0  0  0  0  0  0  0  0
    3.5703   -1.9155    1.4380 H   0  0  0  0  0  0  0  0  0  0  0  0
    1.6660   -3.3635    0.6192 H   0  0  0  0  0  0  0  0  0  0  0  0
    1.3788   -4.4123   -1.8157 H   0  0  0  0  0  0  0  0  0  0  0  0
   -2.6240   -5.3920   -2.6023 H   0  0  0  0  0  0  0  0  0  0  0  0
   -1.3178   -1.7234    1.2016 H   0  0  0  0  0  0  0  0  0  0  0  0
   -3.0873   -1.4542    0.8477 H   0  0  0  0  0  0  0  0  0  0  0  0
   -0.8670    0.6707    0.7802 H   0  0  0  0  0  0  0  0  0  0  0  0
   -2.0377    0.4483    2.1044 H   0  0  0  0  0  0  0  0  0  0  0  0
   -3.9117    0.9228    2.2398 H   0  0  0  0  0  0  0  0  0  0  0  0
   -4.9996    0.7487    0.8022 H   0  0  0  0  0  0  0  0  0  0  0  0
   -5.1878    3.0735    0.4922 H   0  0  0  0  0  0  0  0  0  0  0  0
   -4.9306    3.0295    2.2992 H   0  0  0  0  0  0  0  0  0  0  0  0
   -2.9356    4.3160    1.5133 H   0  0  0  0  0  0  0  0  0  0  0  0
   -4.0590   -0.1575   -0.8130 H   0  0  0  0  0  0  0  0  0  0  0  0
   -3.6417    1.3787   -1.6720 H   0  0  0  0  0  0  0  0  0  0  0  0
   -1.9803   -0.1968   -2.6064 H   0  0  0  0  0  0  0  0  0  0  0  0
   -1.1590    0.6580   -1.2359 H   0  0  0  0  0  0  0  0  0  0  0  0
    0.7286   -0.4142   -2.2123 H   0  0  0  0  0  0  0  0  0  0  0  0
    2.5558    0.9992   -1.4160 H   0  0  0  0  0  0  0  0  0  0  0  0
    5.8182   -0.9487    1.2192 H   0  0  0  0  0  0  0  0  0  0  0  0
  1  2  1  0
  2  3  1  0
  3  4  2  0
  4  5  1  0
  5  6  2  0
  6  7  1  0
  7  8  2  0
  8  9  1  0
  9 10  2  0
 10 11  1  0
 11 12  2  0
 12 13  1  0
 13 14  1  0
 13 15  2  0
 15 16  1  0
 16 17  1  0
 17 18  1  0
 18 19  1  0
 19 20  1  0
 20 21  1  0
 21 22  1  0
 22 23  1  0
 23 24  2  0
 19 25  1  0
 25 26  1  0
  8 27  1  0
 27 28  2  0
  4 29  1  0
 29 30  2  0
 30  2  1  0
 28  5  1  0
 15  9  1  0
 26 16  1  0
 23 19  1  0
  1 31  1  0
  1 32  1  0
  1 33  1  0
  3 34  1  0
  6 35  1  0
  7 36  1  0
 10 37  1  0
 12 38  1  0
 17 39  1  0
 17 40  1  0
 18 41  1  0
 18 42  1  0
 20 43  1  0
 20 44  1  0
 21 45  1  0
 21 46  1  0
 22 47  1  0
 25 48  1  0
 25 49  1  0
 26 50  1  0
 26 51  1  0
 27 52  1  0
 28 53  1  0
 29 54  1  0
M  END
$$$$
