@<TRIPOS>MOLECULE
*****
 61 63 0 0 0
SMALL
GASTEIGER

@<TRIPOS>ATOM
      1 C           1.3275    1.1581   -3.9009 C.1     0  UNK0       -0.1176
      2 C           1.9428    0.4497   -2.9720 C.1     0  UNK0       -0.0865
      3 C           2.5872   -0.2819   -1.9736 C.3     0  UNK0        0.0739
      4 N           1.8303   -0.5571   -0.7865 N.pl3   0  UNK0       -0.3145
      5 C           2.4519   -1.5431    0.1205 C.3     0  UNK0        0.0382
      6 C           3.8249   -1.0203    0.4192 C.ar    0  UNK0       -0.0293
      7 C           3.9730    0.0173    1.2782 C.ar    0  UNK0       -0.0550
      8 C           5.2477    0.5180    1.5569 C.ar    0  UNK0       -0.0351
      9 C           6.3297   -0.0665    0.9375 C.ar    0  UNK0        0.0797
     10 N           7.5586    0.3881    1.1787 N.ar    0  UNK0       -0.2160
     11 C           8.6817   -0.1549    0.5835 C.ar    0  UNK0        0.1935
     12 N           9.9876    0.2948    0.8493 N.pl3   0  UNK0       -0.3289
     13 N           8.4759   -1.1836   -0.2622 N.ar    0  UNK0       -0.2948
     14 C           7.2867   -1.7118   -0.5674 C.ar    0  UNK0        0.2604
     15 O           7.1159   -2.6542   -1.3380 O.2     0  UNK0       -0.2671
     16 C           6.1900   -1.1176    0.0628 C.ar    0  UNK0        0.0651
     17 C           4.9278   -1.5825   -0.1845 C.ar    0  UNK0       -0.0427
     18 C           0.6390    0.0880   -0.3962 C.ar    0  UNK0        0.0310
     19 C           0.1879    1.2856   -0.9075 C.ar    0  UNK0       -0.0399
     20 C          -1.0789    1.7375   -0.6351 C.ar    0  UNK0       -0.0476
     21 C          -1.9471    1.0389    0.1548 C.ar    0  UNK0        0.0397
     22 C          -3.3436    1.5358    0.2861 C.2     0  UNK0        0.2450
     23 O          -3.6561    2.6363    0.7174 O.2     0  UNK0       -0.2702
     24 N          -4.3641    0.6190   -0.1403 N.am    1  GLU1       -0.2983
     25 CA         -5.7906    0.9835   -0.1463 C.3     1  GLU1        0.1209
     26 CB         -6.3379    0.6887    1.2195 C.3     1  GLU1       -0.0140
     27 CG         -7.7999    1.0002    1.3683 C.3     1  GLU1        0.0470
     28 CD         -8.6669    0.0990    0.5814 C.2     1  GLU1        0.3048
     29 OE1        -9.7470    0.2952    0.1039 O.2     1  GLU1       -0.2510
     30 OE2        -8.0515   -1.1995    0.4001 O.3     1  GLU1       -0.4806
     31 C          -6.3871    0.2432   -1.2469 C.2     1  GLU1        0.3253
     32 O          -7.4255    0.5954   -1.8585 O.2     1  GLU1       -0.2489
     33 OXT        -5.7315   -0.9559   -1.6312 O.3     1  GLU1       -0.4793
     34 C          -1.5508   -0.1512    0.7043 C.ar    0  UNK0       -0.0366
     35 C          -2.4646   -0.9146    1.5923 C.3     0  UNK0       -0.0389
     36 C          -0.2675   -0.6131    0.4232 C.ar    0  UNK0       -0.0370
     37 H           0.8480    1.7303   -4.6536 H       0  UNK0        0.1228
     38 H           3.1017   -1.2138   -2.3692 H       0  UNK0        0.0600
     39 H           3.5051    0.3651   -1.6165 H       0  UNK0        0.0600
     40 H           1.9468   -1.7203    1.0345 H       0  UNK0        0.0513
     41 H           2.5921   -2.4769   -0.4501 H       0  UNK0        0.0513
     42 H           3.1242    0.4917    1.7698 H       0  UNK0        0.0621
     43 H           5.3963    1.3449    2.2211 H       0  UNK0        0.0639
     44 H          10.7746    0.0572    0.2235 H       0  UNK0        0.1451
     45 H          10.1346    0.8539    1.7102 H       0  UNK0        0.1451
     46 H           9.3046   -1.6078   -0.7534 H       0  UNK0        0.1716
     47 H           4.7730   -2.4248   -0.8914 H       0  UNK0        0.0629
     48 H           0.8398    1.9141   -1.4540 H       0  UNK0        0.0636
     49 H          -1.4444    2.6994   -1.0372 H       0  UNK0        0.0626
     50 H          -4.0760   -0.3339   -0.4444 H       1  GLU1        0.1498
     51 HA         -5.8823    2.1191   -0.2399 H       1  GLU1        0.0614
     52 HB1        -6.2539   -0.4257    1.4229 H       1  GLU1        0.0294
     53 HB2        -5.7495    1.2435    1.9754 H       1  GLU1        0.0294
     54 HG1        -8.0001    2.0674    1.0121 H       1  GLU1        0.0378
     55 HG2        -8.0705    0.8737    2.4299 H       1  GLU1        0.0378
     56 HE2        -8.7135   -1.9723    0.5573 H       1  GLU1        0.2951
     57 HXT        -6.1919   -1.5342   -2.3594 H       1  GLU1        0.2951
     58 H          -3.2644   -0.2746    2.0437 H       0  UNK0        0.0278
     59 H          -1.8051   -1.3901    2.3712 H       0  UNK0        0.0278
     60 H          -2.9003   -1.7581    1.0348 H       0  UNK0        0.0278
     61 H           0.0556   -1.5363    0.8717 H       0  UNK0        0.0639
@<TRIPOS>BOND
     1     1     2    3
     2     2     3    1
     3     3     4    1
     4     4     5    1
     5     5     6    1
     6     6     7   ar
     7     7     8   ar
     8     8     9   ar
     9     9    10   ar
    10    10    11   ar
    11    11    12    1
    12    11    13   ar
    13    13    14   ar
    14    14    15    2
    15    14    16   ar
    16    16    17   ar
    17     4    18    1
    18    18    19   ar
    19    19    20   ar
    20    20    21   ar
    21    21    22    1
    22    22    23    2
    23    22    24   am
    24    24    25    1
    25    25    26    1
    26    26    27    1
    27    27    28    1
    28    28    29    2
    29    28    30    1
    30    25    31    1
    31    31    32    2
    32    31    33    1
    33    21    34   ar
    34    34    35    1
    35    34    36   ar
    36    17     6   ar
    37    36    18   ar
    38    16     9   ar
    39     1    37    1
    40     3    38    1
    41     3    39    1
    42     5    40    1
    43     5    41    1
    44     7    42    1
    45     8    43    1
    46    12    44    1
    47    12    45    1
    48    13    46    1
    49    17    47    1
    50    19    48    1
    51    20    49    1
    52    24    50    1
    53    25    51    1
    54    26    52    1
    55    26    53    1
    56    27    54    1
    57    27    55    1
    58    30    56    1
    59    33    57    1
    60    35    58    1
    61    35    59    1
    62    35    60    1
    63    36    61    1
