@<TRIPOS>MOLECULE
*****
 49 53 0 0 0
SMALL
GASTEIGER

@<TRIPOS>ATOM
      1 C          -2.4505   -1.7377   -1.9825 C.3     1  UNL1       -0.0377
      2 C          -2.3198   -2.2136   -0.5954 C.ar    1  UNL1       -0.0265
      3 C          -2.8136   -3.4559   -0.2249 C.ar    1  UNL1       -0.0569
      4 C          -2.6792   -3.8692    1.0852 C.ar    1  UNL1       -0.0614
      5 C          -2.0706   -3.0894    2.0390 C.ar    1  UNL1       -0.0598
      6 C          -1.5918   -1.8638    1.6399 C.ar    1  UNL1       -0.0374
      7 C          -1.7002   -1.4029    0.3431 C.ar    1  UNL1        0.0541
      8 N          -1.2147   -0.1380   -0.0840 N.ar    1  UNL1       -0.2627
      9 C          -0.0483   -0.0279   -0.7313 C.ar    1  UNL1        0.1374
     10 C           0.8180   -1.1919   -1.0286 C.3     1  UNL1        0.0845
     11 N           1.8783   -1.3276   -0.0541 N.ar    1  UNL1       -0.3075
     12 C           1.9590   -1.9978    1.0805 C.ar    1  UNL1        0.0987
     13 N           3.1598   -1.8415    1.6709 N.ar    1  UNL1       -0.2306
     14 C           3.8866   -1.0358    0.8842 C.ar    1  UNL1        0.1472
     15 C           5.1666   -0.5288    0.9658 C.ar    1  UNL1        0.1472
     16 N           6.0055   -0.8455    2.0636 N.pl3   1  UNL1       -0.3413
     17 N           5.5916    0.2706   -0.0224 N.ar    1  UNL1       -0.2188
     18 C           4.8318    0.5979   -1.0818 C.ar    1  UNL1        0.1205
     19 N           3.5896    0.0915   -1.1378 N.ar    1  UNL1       -0.2160
     20 C           3.0934   -0.7159   -0.1866 C.ar    1  UNL1        0.1657
     21 N           0.4246    1.1726   -1.1533 N.ar    1  UNL1       -0.2313
     22 C          -0.2609    2.3054   -0.9380 C.ar    1  UNL1        0.0785
     23 C           0.2293    3.5293   -1.3726 C.ar    1  UNL1       -0.0355
     24 C          -0.5127    4.6590   -1.1261 C.ar    1  UNL1       -0.0595
     25 C          -1.7033    4.5628   -0.4673 C.ar    1  UNL1       -0.0580
     26 C          -2.1899    3.3421   -0.0351 C.ar    1  UNL1       -0.0361
     27 C          -3.4910    3.2453    0.6838 C.3     1  UNL1       -0.0389
     28 C          -1.4756    2.2037   -0.2654 C.ar    1  UNL1        0.0681
     29 C          -1.9548    0.9857    0.1623 C.ar    1  UNL1        0.2666
     30 O          -3.0464    0.8584    0.7718 O.2     1  UNL1       -0.2666
     31 H          -3.5284   -1.5296   -2.2355 H       1  UNL1        0.0278
     32 H          -2.1591   -2.5626   -2.6937 H       1  UNL1        0.0278
     33 H          -1.8053   -0.8879   -2.2235 H       1  UNL1        0.0278
     34 H          -3.2857   -4.0496   -0.9860 H       1  UNL1        0.0621
     35 H          -3.0696   -4.8320    1.3418 H       1  UNL1        0.0618
     36 H          -2.0025   -3.4788    3.0412 H       1  UNL1        0.0618
     37 H          -1.1055   -1.2147    2.3531 H       1  UNL1        0.0638
     38 H           0.2558   -2.1350   -1.0643 H       1  UNL1        0.0573
     39 H           1.2988   -1.0932   -2.0443 H       1  UNL1        0.0573
     40 H           1.1752   -2.6029    1.4981 H       1  UNL1        0.1029
     41 H           6.8788   -0.3072    2.2469 H       1  UNL1        0.1438
     42 H           5.7617   -1.6281    2.7112 H       1  UNL1        0.1438
     43 H           5.2341    1.2426   -1.8371 H       1  UNL1        0.1048
     44 H           1.1771    3.5436   -1.8884 H       1  UNL1        0.0639
     45 H          -0.1171    5.6184   -1.4729 H       1  UNL1        0.0618
     46 H          -2.2860    5.4567   -0.2746 H       1  UNL1        0.0620
     47 H          -4.2614    2.6979    0.1427 H       1  UNL1        0.0278
     48 H          -3.3864    2.9112    1.7375 H       1  UNL1        0.0278
     49 H          -3.8854    4.3102    0.7449 H       1  UNL1        0.0278
@<TRIPOS>BOND
     1     1     2    1
     2     2     3   ar
     3     3     4   ar
     4     4     5   ar
     5     5     6   ar
     6     6     7   ar
     7     7     8    1
     8     8     9   ar
     9     9    10    1
    10    10    11    1
    11    11    12   ar
    12    12    13   ar
    13    13    14   ar
    14    14    15   ar
    15    15    16    1
    16    15    17   ar
    17    17    18   ar
    18    18    19   ar
    19    19    20   ar
    20     9    21   ar
    21    21    22   ar
    22    22    23   ar
    23    23    24   ar
    24    24    25   ar
    25    25    26   ar
    26    26    27    1
    27    26    28   ar
    28    28    29   ar
    29    29    30    2
    30     7     2   ar
    31    29     8   ar
    32    20    11   ar
    33    28    22   ar
    34    20    14   ar
    35     1    31    1
    36     1    32    1
    37     1    33    1
    38     3    34    1
    39     4    35    1
    40     5    36    1
    41     6    37    1
    42    10    38    1
    43    10    39    1
    44    12    40    1
    45    16    41    1
    46    16    42    1
    47    18    43    1
    48    23    44    1
    49    24    45    1
    50    25    46    1
    51    27    47    1
    52    27    48    1
    53    27    49    1
