
     RDKit          3D

 49 53  0  0  0  0  0  0  0  0999 V2000
   -2.4505   -1.7377   -1.9825 C   0  0  0  0  0  0  0  0  0  0  0  0
   -2.3198   -2.2136   -0.5954 C   0  0  0  0  0  0  0  0  0  0  0  0
   -2.8136   -3.4559   -0.2249 C   0  0  0  0  0  0  0  0  0  0  0  0
   -2.6792   -3.8692    1.0852 C   0  0  0  0  0  0  0  0  0  0  0  0
   -2.0706   -3.0894    2.0390 C   0  0  0  0  0  0  0  0  0  0  0  0
   -1.5918   -1.8638    1.6399 C   0  0  0  0  0  0  0  0  0  0  0  0
   -1.7002   -1.4029    0.3431 C   0  0  0  0  0  0  0  0  0  0  0  0
   -1.2147   -0.1380   -0.0840 N   0  0  0  0  0  0  0  0  0  0  0  0
   -0.0483   -0.0279   -0.7313 C   0  0  0  0  0  0  0  0  0  0  0  0
    0.8180   -1.1919   -1.0286 C   0  0  0  0  0  0  0  0  0  0  0  0
    1.8783   -1.3276   -0.0541 N   0  0  0  0  0  0  0  0  0  0  0  0
    1.9590   -1.9978    1.0805 C   0  0  0  0  0  0  0  0  0  0  0  0
    3.1598   -1.8415    1.6709 N   0  0  0  0  0  0  0  0  0  0  0  0
    3.8866   -1.0358    0.8842 C   0  0  0  0  0  0  0  0  0  0  0  0
    5.1666   -0.5288    0.9658 C   0  0  0  0  0  0  0  0  0  0  0  0
    6.0055   -0.8455    2.0636 N   0  0  0  0  0  0  0  0  0  0  0  0
    5.5916    0.2706   -0.0224 N   0  0  0  0  0  0  0  0  0  0  0  0
    4.8318    0.5979   -1.0818 C   0  0  0  0  0  0  0  0  0  0  0  0
    3.5896    0.0915   -1.1378 N   0  0  0  0  0  0  0  0  0  0  0  0
    3.0934   -0.7159   -0.1866 C   0  0  0  0  0  0  0  0  0  0  0  0
    0.4246    1.1726   -1.1533 N   0  0  0  0  0  0  0  0  0  0  0  0
   -0.2609    2.3054   -0.9380 C   0  0  0  0  0  0  0  0  0  0  0  0
    0.2293    3.5293   -1.3726 C   0  0  0  0  0  0  0  0  0  0  0  0
   -0.5127    4.6590   -1.1261 C   0  0  0  0  0  0  0  0  0  0  0  0
   -1.7033    4.5628   -0.4673 C   0  0  0  0  0  0  0  0  0  0  0  0
   -2.1899    3.3421   -0.0351 C   0  0  0  0  0  0  0  0  0  0  0  0
   -3.4910    3.2453    0.6838 C   0  0  0  0  0  0  0  0  0  0  0  0
   -1.4756    2.2037   -0.2654 C   0  0  0  0  0  0  0  0  0  0  0  0
   -1.9548    0.9857    0.1623 C   0  0  0  0  0  0  0  0  0  0  0  0
   -3.0464    0.8584    0.7718 O   0  0  0  0  0  0  0  0  0  0  0  0
   -3.5284   -1.5296   -2.2355 H   0  0  0  0  0  0  0  0  0  0  0  0
   -2.1591   -2.5626   -2.6937 H   0  0  0  0  0  0  0  0  0  0  0  0
   -1.8053   -0.8879   -2.2235 H   0  0  0  0  0  0  0  0  0  0  0  0
   -3.2857   -4.0496   -0.9860 H   0  0  0  0  0  0  0  0  0  0  0  0
   -3.0696   -4.8320    1.3418 H   0  0  0  0  0  0  0  0  0  0  0  0
   -2.0025   -3.4788    3.0412 H   0  0  0  0  0  0  0  0  0  0  0  0
   -1.1055   -1.2147    2.3531 H   0  0  0  0  0  0  0  0  0  0  0  0
    0.2558   -2.1350   -1.0643 H   0  0  0  0  0  0  0  0  0  0  0  0
    1.2988   -1.0932   -2.0443 H   0  0  0  0  0  0  0  0  0  0  0  0
    1.1752   -2.6029    1.4981 H   0  0  0  0  0  0  0  0  0  0  0  0
    6.8788   -0.3072    2.2469 H   0  0  0  0  0  0  0  0  0  0  0  0
    5.7617   -1.6281    2.7112 H   0  0  0  0  0  0  0  0  0  0  0  0
    5.2341    1.2426   -1.8371 H   0  0  0  0  0  0  0  0  0  0  0  0
    1.1771    3.5436   -1.8884 H   0  0  0  0  0  0  0  0  0  0  0  0
   -0.1171    5.6184   -1.4729 H   0  0  0  0  0  0  0  0  0  0  0  0
   -2.2860    5.4567   -0.2746 H   0  0  0  0  0  0  0  0  0  0  0  0
   -4.2614    2.6979    0.1427 H   0  0  0  0  0  0  0  0  0  0  0  0
   -3.3864    2.9112    1.7375 H   0  0  0  0  0  0  0  0  0  0  0  0
   -3.8854    4.3102    0.7449 H   0  0  0  0  0  0  0  0  0  0  0  0
  1  2  1  0
  2  3  2  0
  3  4  1  0
  4  5  2  0
  5  6  1  0
  6  7  2  0
  7  8  1  0
  8  9  1  0
  9 10  1  0
 10 11  1  0
 11 12  1  0
 12 13  2  0
 13 14  1  0
 14 15  2  0
 15 16  1  0
 15 17  1  0
 17 18  2  0
 18 19  1  0
 19 20  2  0
  9 21  2  0
 21 22  1  0
 22 23  2  0
 23 24  1  0
 24 25  2  0
 25 26  1  0
 26 27  1  0
 26 28  2  0
 28 29  1  0
 29 30  2  0
  7  2  1  0
 29  8  1  0
 20 11  1  0
 28 22  1  0
 20 14  1  0
  1 31  1  0
  1 32  1  0
  1 33  1  0
  3 34  1  0
  4 35  1  0
  5 36  1  0
  6 37  1  0
 10 38  1  0
 10 39  1  0
 12 40  1  0
 16 41  1  0
 16 42  1  0
 18 43  1  0
 23 44  1  0
 24 45  1  0
 25 46  1  0
 27 47  1  0
 27 48  1  0
 27 49  1  0
M  END
$$$$
