
     RDKit          3D

 32 34  0  0  0  0  0  0  0  0999 V2000
    5.8267    0.4337   -0.5395 C   0  0  0  0  0  0  0  0  0  0  0  0
    4.4734    0.2446    0.0587 C   0  0  0  0  0  0  0  0  0  0  0  0
    4.0921   -0.7990    0.8177 N   0  0  0  0  0  0  0  0  0  0  0  0
    2.8577   -0.6082    1.1468 O   0  0  0  0  0  0  0  0  0  0  0  0
    2.4223    0.5173    0.6319 C   0  0  0  0  0  0  0  0  0  0  0  0
    1.0403    1.0204    0.8278 C   0  0  0  0  0  0  0  0  0  0  0  0
    0.2237    0.5115   -0.2214 N   0  0  0  0  0  0  0  0  0  0  0  0
    0.1276   -0.9034   -0.3211 C   0  0  1  0  0  0  0  0  0  0  0  0
   -0.3818   -1.7872    0.7327 C   0  0  0  0  0  0  0  0  0  0  0  0
   -1.2725   -1.4908   -0.4115 C   0  0  0  0  0  0  0  0  0  0  0  0
   -2.4472   -0.6071   -0.2478 C   0  0  0  0  0  0  0  0  0  0  0  0
   -2.5306    0.3259    0.7842 C   0  0  0  0  0  0  0  0  0  0  0  0
   -3.6144    1.1549    0.9513 C   0  0  0  0  0  0  0  0  0  0  0  0
   -4.6770    1.0862    0.0815 C   0  0  0  0  0  0  0  0  0  0  0  0
   -4.6354    0.1678   -0.9647 C   0  0  0  0  0  0  0  0  0  0  0  0
   -3.5350   -0.6456   -1.1010 C   0  0  0  0  0  0  0  0  0  0  0  0
    3.4324    1.0627   -0.0556 N   0  0  0  0  0  0  0  0  0  0  0  0
    5.7973    1.0969   -1.4236 H   0  0  0  0  0  0  0  0  0  0  0  0
    6.4696    0.8569    0.2758 H   0  0  0  0  0  0  0  0  0  0  0  0
    6.2606   -0.5499   -0.7947 H   0  0  0  0  0  0  0  0  0  0  0  0
    1.0070    2.1339    0.7669 H   0  0  0  0  0  0  0  0  0  0  0  0
    0.7067    0.7272    1.8439 H   0  0  0  0  0  0  0  0  0  0  0  0
   -0.5788    1.0688   -0.5130 H   0  0  0  0  0  0  0  0  0  0  0  0
    0.9336   -1.3493   -0.9750 H   0  0  0  0  0  0  0  0  0  0  0  0
   -0.0092   -2.8339    0.7819 H   0  0  0  0  0  0  0  0  0  0  0  0
   -0.6986   -1.4122    1.7270 H   0  0  0  0  0  0  0  0  0  0  0  0
   -1.3752   -2.1956   -1.2680 H   0  0  0  0  0  0  0  0  0  0  0  0
   -1.7261    0.4194    1.4918 H   0  0  0  0  0  0  0  0  0  0  0  0
   -3.6690    1.8850    1.7668 H   0  0  0  0  0  0  0  0  0  0  0  0
   -5.5340    1.7362    0.2070 H   0  0  0  0  0  0  0  0  0  0  0  0
   -5.4716    0.0979   -1.6677 H   0  0  0  0  0  0  0  0  0  0  0  0
   -3.5145   -1.3650   -1.9295 H   0  0  0  0  0  0  0  0  0  0  0  0
  1  2  1  0
  2  3  2  0
  3  4  1  0
  4  5  1  0
  5  6  1  0
  6  7  1  0
  7  8  1  0
  8  9  1  0
  9 10  1  0
 10 11  1  0
 11 12  2  0
 12 13  1  0
 13 14  2  0
 14 15  1  0
 15 16  2  0
  5 17  2  0
 17  2  1  0
 10  8  1  0
 16 11  1  0
  1 18  1  0
  1 19  1  0
  1 20  1  0
  6 21  1  0
  6 22  1  0
  7 23  1  0
  8 24  1  6
  9 25  1  0
  9 26  1  0
 10 27  1  0
 12 28  1  0
 13 29  1  0
 14 30  1  0
 15 31  1  0
 16 32  1  0
M  END
$$$$
