@<TRIPOS>MOLECULE
*****
 32 34 0 0 0
SMALL
GASTEIGER

@<TRIPOS>ATOM
      1 C           5.8267    0.4337   -0.5395 C.3     1  UNL1       -0.0012
      2 C           4.4734    0.2446    0.0587 C.ar    1  UNL1        0.1688
      3 N           4.0921   -0.7990    0.8177 N.ar    1  UNL1       -0.0616
      4 O           2.8577   -0.6082    1.1468 O.2     1  UNL1       -0.3367
      5 C           2.4223    0.5173    0.6319 C.ar    1  UNL1        0.2412
      6 C           1.0403    1.0204    0.8278 C.3     1  UNL1        0.0760
      7 N           0.2237    0.5115   -0.2214 N.3     1  UNL1       -0.3046
      8 C           0.1276   -0.9034   -0.3211 C.3     1  UNL1        0.0155
      9 C          -0.3818   -1.7872    0.7327 C.3     1  UNL1       -0.0287
     10 C          -1.2725   -1.4908   -0.4115 C.3     1  UNL1        0.0010
     11 C          -2.4472   -0.6071   -0.2478 C.ar    1  UNL1       -0.0428
     12 C          -2.5306    0.3259    0.7842 C.ar    1  UNL1       -0.0583
     13 C          -3.6144    1.1549    0.9513 C.ar    1  UNL1       -0.0615
     14 C          -4.6770    1.0862    0.0815 C.ar    1  UNL1       -0.0617
     15 C          -4.6354    0.1678   -0.9647 C.ar    1  UNL1       -0.0615
     16 C          -3.5350   -0.6456   -1.1010 C.ar    1  UNL1       -0.0583
     17 N           3.4324    1.0627   -0.0556 N.ar    1  UNL1       -0.1953
     18 H           5.7973    1.0969   -1.4236 H       1  UNL1        0.0309
     19 H           6.4696    0.8569    0.2758 H       1  UNL1        0.0309
     20 H           6.2606   -0.5499   -0.7947 H       1  UNL1        0.0309
     21 H           1.0070    2.1339    0.7669 H       1  UNL1        0.0522
     22 H           0.7067    0.7272    1.8439 H       1  UNL1        0.0522
     23 H          -0.5788    1.0688   -0.5130 H       1  UNL1        0.1227
     24 H           0.9336   -1.3493   -0.9750 H       1  UNL1        0.0466
     25 H          -0.0092   -2.8339    0.7819 H       1  UNL1        0.0287
     26 H          -0.6986   -1.4122    1.7270 H       1  UNL1        0.0287
     27 H          -1.3752   -2.1956   -1.2680 H       1  UNL1        0.0364
     28 H          -1.7261    0.4194    1.4918 H       1  UNL1        0.0620
     29 H          -3.6690    1.8850    1.7668 H       1  UNL1        0.0618
     30 H          -5.5340    1.7362    0.2070 H       1  UNL1        0.0618
     31 H          -5.4716    0.0979   -1.6677 H       1  UNL1        0.0618
     32 H          -3.5145   -1.3650   -1.9295 H       1  UNL1        0.0620
@<TRIPOS>BOND
     1     1     2    1
     2     2     3   ar
     3     3     4   ar
     4     4     5   ar
     5     5     6    1
     6     6     7    1
     7     7     8    1
     8     8     9    1
     9     9    10    1
    10    10    11    1
    11    11    12   ar
    12    12    13   ar
    13    13    14   ar
    14    14    15   ar
    15    15    16   ar
    16     5    17   ar
    17    17     2   ar
    18    10     8    1
    19    16    11   ar
    20     1    18    1
    21     1    19    1
    22     1    20    1
    23     6    21    1
    24     6    22    1
    25     7    23    1
    26     8    24    1
    27     9    25    1
    28     9    26    1
    29    10    27    1
    30    12    28    1
    31    13    29    1
    32    14    30    1
    33    15    31    1
    34    16    32    1
