@<TRIPOS>MOLECULE
*****
 42 45 0 0 0
SMALL
GASTEIGER

@<TRIPOS>ATOM
      1 C           5.2474    3.1150    0.5637 C.3     1  UNL1       -0.0206
      2 C           4.0580    2.2335    0.3906 C.ar    1  UNL1        0.0616
      3 C           3.8220    1.4040   -0.6885 C.ar    1  UNL1        0.0006
      4 C           2.6281    0.7510   -0.4923 C.ar    1  UNL1        0.1196
      5 N           2.0430   -0.1871   -1.3828 N.pl3   1  UNL1       -0.2829
      6 C           0.8016   -0.8151   -1.0974 C.ar    1  UNL1        0.1525
      7 N          -0.3376   -0.2426   -1.5070 N.ar    1  UNL1       -0.1520
      8 N          -1.5190   -0.8144   -1.2505 N.ar    1  UNL1       -0.2228
      9 C          -2.7216   -0.1840   -1.6969 C.3     1  UNL1        0.0703
     10 C          -3.3024    0.7687   -0.7162 C.ar    1  UNL1       -0.0258
     11 C          -2.9470    2.1125   -0.6922 C.ar    1  UNL1       -0.0541
     12 C          -3.4775    2.9987    0.2074 C.ar    1  UNL1       -0.0261
     13 C          -4.4013    2.5782    1.1390 C.ar    1  UNL1        0.1234
     14 F          -4.9397    3.4407    2.0401 F       1  UNL1       -0.2055
     15 C          -4.7784    1.2307    1.1389 C.ar    1  UNL1       -0.0261
     16 C          -4.2269    0.3568    0.2189 C.ar    1  UNL1       -0.0541
     17 C          -1.5648   -1.9648   -0.5811 C.ar    1  UNL1        0.2754
     18 O          -2.6506   -2.5372   -0.3182 O.2     1  UNL1       -0.2655
     19 C          -0.4144   -2.6066   -0.1304 C.ar    1  UNL1        0.0514
     20 C          -0.4451   -3.7927    0.5609 C.ar    1  UNL1       -0.0487
     21 C           0.7114   -4.4249    1.0064 C.ar    1  UNL1       -0.0610
     22 C           1.9053   -3.8225    0.7328 C.ar    1  UNL1       -0.0611
     23 C           1.9441   -2.6234    0.0346 C.ar    1  UNL1       -0.0505
     24 C           0.7852   -2.0006   -0.4057 C.ar    1  UNL1        0.0291
     25 N           2.1545    1.1870    0.6950 N.ar    1  UNL1       -0.2637
     26 N           3.0127    2.0660    1.2077 N.ar    1  UNL1       -0.1775
     27 H           5.7102    3.0000    1.5710 H       1  UNL1        0.0293
     28 H           5.0281    4.1681    0.3309 H       1  UNL1        0.0293
     29 H           6.0372    2.7949   -0.1596 H       1  UNL1        0.0293
     30 H           4.4677    1.2767   -1.5617 H       1  UNL1        0.0670
     31 H           2.5571   -0.4142   -2.2784 H       1  UNL1        0.1550
     32 H          -2.4653    0.4094   -2.6204 H       1  UNL1        0.0560
     33 H          -3.4754   -0.9277   -2.0314 H       1  UNL1        0.0560
     34 H          -2.2317    2.4323   -1.4154 H       1  UNL1        0.0622
     35 H          -3.1995    4.0420    0.2236 H       1  UNL1        0.0646
     36 H          -5.5047    0.9224    1.8785 H       1  UNL1        0.0646
     37 H          -4.5721   -0.6723    0.2841 H       1  UNL1        0.0622
     38 H          -1.3795   -4.2695    0.7781 H       1  UNL1        0.0625
     39 H           0.6544   -5.3695    1.5548 H       1  UNL1        0.0618
     40 H           2.8283   -4.3003    1.0728 H       1  UNL1        0.0618
     41 H           2.9080   -2.1729   -0.1653 H       1  UNL1        0.0625
     42 H           1.2500    0.8537    1.1014 H       1  UNL1        0.1903
@<TRIPOS>BOND
     1     1     2    1
     2     2     3   ar
     3     3     4   ar
     4     4     5    1
     5     5     6    1
     6     6     7   ar
     7     7     8   ar
     8     8     9    1
     9     9    10    1
    10    10    11   ar
    11    11    12   ar
    12    12    13   ar
    13    13    14    1
    14    13    15   ar
    15    15    16   ar
    16     8    17   ar
    17    17    18    2
    18    17    19   ar
    19    19    20   ar
    20    20    21   ar
    21    21    22   ar
    22    22    23   ar
    23    23    24   ar
    24     4    25   ar
    25    25    26   ar
    26    26     2   ar
    27    24     6   ar
    28    16    10   ar
    29    24    19   ar
    30     1    27    1
    31     1    28    1
    32     1    29    1
    33     3    30    1
    34     5    31    1
    35     9    32    1
    36     9    33    1
    37    11    34    1
    38    12    35    1
    39    15    36    1
    40    16    37    1
    41    20    38    1
    42    21    39    1
    43    22    40    1
    44    23    41    1
    45    25    42    1
