@<TRIPOS>MOLECULE
*****
 46 49 0 0 0
SMALL
GASTEIGER

@<TRIPOS>ATOM
      1 O           0.9544    0.8065   -1.8819 O.2     1  UNL1       -0.2702
      2 C           1.0120    0.2513   -0.7512 C.2     1  UNL1        0.2446
      3 N          -0.1914   -0.0866   -0.0974 N.am    1  UNL1       -0.3042
      4 C          -1.4662    0.1986   -0.7129 C.3     1  UNL1        0.0527
      5 C          -2.2192    1.1557    0.1442 C.ar    1  UNL1       -0.0254
      6 C          -2.9118    2.2247   -0.3797 C.ar    1  UNL1       -0.0553
      7 C          -3.6106    3.1205    0.4156 C.ar    1  UNL1       -0.0417
      8 C          -3.6171    2.9415    1.7821 C.ar    1  UNL1        0.0593
      9 CL         -4.4953    4.0623    2.8169 Cl      1  UNL1       -0.0820
     10 C          -2.9308    1.8776    2.3363 C.ar    1  UNL1        0.0596
     11 CL         -2.9513    1.6680    4.0685 Cl      1  UNL1       -0.0820
     12 C          -2.2332    0.9877    1.5104 C.ar    1  UNL1       -0.0370
     13 C          -2.2409   -1.0300   -1.0582 C.3     1  UNL1       -0.0048
     14 C          -2.5870   -1.9268    0.0836 C.3     1  UNL1       -0.0344
     15 C          -3.6860   -2.7796   -0.5728 C.3     1  UNL1       -0.0037
     16 N          -4.2601   -1.9780   -1.6044 N.3     1  UNL1       -0.3156
     17 C          -3.6132   -0.6668   -1.5788 C.3     1  UNL1        0.0008
     18 C           2.3297   -0.0185   -0.1659 C.ar    1  UNL1        0.0373
     19 C           2.5178   -0.6110    1.0439 C.ar    1  UNL1       -0.0490
     20 C           3.8108   -0.8343    1.5339 C.ar    1  UNL1       -0.0519
     21 C           4.9339   -0.4686    0.8219 C.ar    1  UNL1        0.0003
     22 C           6.2151   -0.6871    1.3017 C.ar    1  UNL1        0.0353
     23 N           7.2666   -0.2986    0.5413 N.ar    1  UNL1       -0.2626
     24 C           7.1165    0.2844   -0.6481 C.ar    1  UNL1        0.0281
     25 C           5.8486    0.5047   -1.1313 C.ar    1  UNL1       -0.0359
     26 C           4.7433    0.1323   -0.4050 C.ar    1  UNL1       -0.0143
     27 C           3.4747    0.3422   -0.8672 C.ar    1  UNL1       -0.0418
     28 H          -0.1716   -0.5548    0.8554 H       1  UNL1        0.1496
     29 H          -1.2379    0.6902   -1.7063 H       1  UNL1        0.0551
     30 H          -2.9053    2.3627   -1.4479 H       1  UNL1        0.0621
     31 H          -4.1542    3.9620   -0.0129 H       1  UNL1        0.0633
     32 H          -1.7214    0.1846    2.0268 H       1  UNL1        0.0636
     33 H          -1.7014   -1.5737   -1.8601 H       1  UNL1        0.0335
     34 H          -3.1300   -1.3434    0.8557 H       1  UNL1        0.0281
     35 H          -1.7675   -2.5370    0.4666 H       1  UNL1        0.0281
     36 H          -3.1807   -3.6639   -0.9801 H       1  UNL1        0.0424
     37 H          -4.4504   -3.0635    0.1777 H       1  UNL1        0.0424
     38 H          -4.0845   -2.3546   -2.5693 H       1  UNL1        0.1219
     39 H          -4.1764   -0.0736   -0.8216 H       1  UNL1        0.0427
     40 H          -3.5778   -0.1935   -2.5669 H       1  UNL1        0.0427
     41 H           1.6684   -0.9117    1.6315 H       1  UNL1        0.0625
     42 H           3.9584   -1.3020    2.4889 H       1  UNL1        0.0624
     43 H           6.3558   -1.1591    2.2651 H       1  UNL1        0.0836
     44 H           8.0111    0.5680   -1.1999 H       1  UNL1        0.0830
     45 H           5.7129    0.9774   -2.0962 H       1  UNL1        0.0639
     46 H           3.3435    0.8137   -1.8293 H       1  UNL1        0.0631
@<TRIPOS>BOND
     1     1     2    2
     2     2     3   am
     3     3     4    1
     4     4     5    1
     5     5     6   ar
     6     6     7   ar
     7     7     8   ar
     8     8     9    1
     9     8    10   ar
    10    10    11    1
    11    10    12   ar
    12     4    13    1
    13    13    14    1
    14    14    15    1
    15    15    16    1
    16    16    17    1
    17     2    18    1
    18    18    19   ar
    19    19    20   ar
    20    20    21   ar
    21    21    22   ar
    22    22    23   ar
    23    23    24   ar
    24    24    25   ar
    25    25    26   ar
    26    26    27   ar
    27    12     5   ar
    28    17    13    1
    29    27    18   ar
    30    26    21   ar
    31     3    28    1
    32     4    29    1
    33     6    30    1
    34     7    31    1
    35    12    32    1
    36    13    33    1
    37    14    34    1
    38    14    35    1
    39    15    36    1
    40    15    37    1
    41    16    38    1
    42    17    39    1
    43    17    40    1
    44    19    41    1
    45    20    42    1
    46    22    43    1
    47    24    44    1
    48    25    45    1
    49    27    46    1
