
     RDKit          3D

 46 49  0  0  0  0  0  0  0  0999 V2000
    0.9544    0.8065   -1.8819 O   0  0  0  0  0  0  0  0  0  0  0  0
    1.0120    0.2513   -0.7512 C   0  0  0  0  0  0  0  0  0  0  0  0
   -0.1914   -0.0866   -0.0974 N   0  0  0  0  0  0  0  0  0  0  0  0
   -1.4662    0.1986   -0.7129 C   0  0  0  0  0  0  0  0  0  0  0  0
   -2.2192    1.1557    0.1442 C   0  0  0  0  0  0  0  0  0  0  0  0
   -2.9118    2.2247   -0.3797 C   0  0  0  0  0  0  0  0  0  0  0  0
   -3.6106    3.1205    0.4156 C   0  0  0  0  0  0  0  0  0  0  0  0
   -3.6171    2.9415    1.7821 C   0  0  0  0  0  0  0  0  0  0  0  0
   -4.4953    4.0623    2.8169 Cl  0  0  0  0  0  0  0  0  0  0  0  0
   -2.9308    1.8776    2.3363 C   0  0  0  0  0  0  0  0  0  0  0  0
   -2.9513    1.6680    4.0685 Cl  0  0  0  0  0  0  0  0  0  0  0  0
   -2.2332    0.9877    1.5104 C   0  0  0  0  0  0  0  0  0  0  0  0
   -2.2409   -1.0300   -1.0582 C   0  0  0  0  0  0  0  0  0  0  0  0
   -2.5870   -1.9268    0.0836 C   0  0  0  0  0  0  0  0  0  0  0  0
   -3.6860   -2.7796   -0.5728 C   0  0  0  0  0  0  0  0  0  0  0  0
   -4.2601   -1.9780   -1.6044 N   0  0  0  0  0  0  0  0  0  0  0  0
   -3.6132   -0.6668   -1.5788 C   0  0  0  0  0  0  0  0  0  0  0  0
    2.3297   -0.0185   -0.1659 C   0  0  0  0  0  0  0  0  0  0  0  0
    2.5178   -0.6110    1.0439 C   0  0  0  0  0  0  0  0  0  0  0  0
    3.8108   -0.8343    1.5339 C   0  0  0  0  0  0  0  0  0  0  0  0
    4.9339   -0.4686    0.8219 C   0  0  0  0  0  0  0  0  0  0  0  0
    6.2151   -0.6871    1.3017 C   0  0  0  0  0  0  0  0  0  0  0  0
    7.2666   -0.2986    0.5413 N   0  0  0  0  0  0  0  0  0  0  0  0
    7.1165    0.2844   -0.6481 C   0  0  0  0  0  0  0  0  0  0  0  0
    5.8486    0.5047   -1.1313 C   0  0  0  0  0  0  0  0  0  0  0  0
    4.7433    0.1323   -0.4050 C   0  0  0  0  0  0  0  0  0  0  0  0
    3.4747    0.3422   -0.8672 C   0  0  0  0  0  0  0  0  0  0  0  0
   -0.1716   -0.5548    0.8554 H   0  0  0  0  0  0  0  0  0  0  0  0
   -1.2379    0.6902   -1.7063 H   0  0  0  0  0  0  0  0  0  0  0  0
   -2.9053    2.3627   -1.4479 H   0  0  0  0  0  0  0  0  0  0  0  0
   -4.1542    3.9620   -0.0129 H   0  0  0  0  0  0  0  0  0  0  0  0
   -1.7214    0.1846    2.0268 H   0  0  0  0  0  0  0  0  0  0  0  0
   -1.7014   -1.5737   -1.8601 H   0  0  0  0  0  0  0  0  0  0  0  0
   -3.1300   -1.3434    0.8557 H   0  0  0  0  0  0  0  0  0  0  0  0
   -1.7675   -2.5370    0.4666 H   0  0  0  0  0  0  0  0  0  0  0  0
   -3.1807   -3.6639   -0.9801 H   0  0  0  0  0  0  0  0  0  0  0  0
   -4.4504   -3.0635    0.1777 H   0  0  0  0  0  0  0  0  0  0  0  0
   -4.0845   -2.3546   -2.5693 H   0  0  0  0  0  0  0  0  0  0  0  0
   -4.1764   -0.0736   -0.8216 H   0  0  0  0  0  0  0  0  0  0  0  0
   -3.5778   -0.1935   -2.5669 H   0  0  0  0  0  0  0  0  0  0  0  0
    1.6684   -0.9117    1.6315 H   0  0  0  0  0  0  0  0  0  0  0  0
    3.9584   -1.3020    2.4889 H   0  0  0  0  0  0  0  0  0  0  0  0
    6.3558   -1.1591    2.2651 H   0  0  0  0  0  0  0  0  0  0  0  0
    8.0111    0.5680   -1.1999 H   0  0  0  0  0  0  0  0  0  0  0  0
    5.7129    0.9774   -2.0962 H   0  0  0  0  0  0  0  0  0  0  0  0
    3.3435    0.8137   -1.8293 H   0  0  0  0  0  0  0  0  0  0  0  0
  1  2  2  0
  2  3  1  0
  3  4  1  0
  4  5  1  0
  5  6  2  0
  6  7  1  0
  7  8  2  0
  8  9  1  0
  8 10  1  0
 10 11  1  0
 10 12  2  0
  4 13  1  0
 13 14  1  0
 14 15  1  0
 15 16  1  0
 16 17  1  0
  2 18  1  0
 18 19  2  0
 19 20  1  0
 20 21  2  0
 21 22  1  0
 22 23  2  0
 23 24  1  0
 24 25  2  0
 25 26  1  0
 26 27  2  0
 12  5  1  0
 17 13  1  0
 27 18  1  0
 26 21  1  0
  3 28  1  0
  4 29  1  0
  6 30  1  0
  7 31  1  0
 12 32  1  0
 13 33  1  0
 14 34  1  0
 14 35  1  0
 15 36  1  0
 15 37  1  0
 16 38  1  0
 17 39  1  0
 17 40  1  0
 19 41  1  0
 20 42  1  0
 22 43  1  0
 24 44  1  0
 25 45  1  0
 27 46  1  0
M  END
$$$$
