@<TRIPOS>MOLECULE
*****
 63 66 0 0 0
SMALL
GASTEIGER

@<TRIPOS>ATOM
      1 C          -4.0277    1.7505    2.1621 C.1     1  UNL1       -0.1179
      2 C          -3.3273    0.7364    1.9676 C.1     1  UNL1       -0.0900
      3 C          -2.4895   -0.4580    1.7334 C.3     1  UNL1        0.0621
      4 N          -1.8472   -0.5056    0.4827 N.3     1  UNL1       -0.2706
      5 C          -2.4748   -0.7089   -0.7257 C.3     1  UNL1        0.0433
      6 C          -3.9170   -0.3481   -0.7614 C.ar    1  UNL1        0.0561
      7 C          -4.8455   -1.3943   -0.6863 C.ar    1  UNL1       -0.0385
      8 C          -6.1697   -0.9862   -0.5384 C.ar    1  UNL1       -0.0507
      9 C          -6.5457    0.3333   -0.4675 C.ar    1  UNL1        0.0040
     10 C          -7.8332    0.6449   -0.1248 C.ar    1  UNL1       -0.0523
     11 C          -8.1744    1.9859    0.0904 C.ar    1  UNL1       -0.0576
     12 C          -7.2355    2.9588   -0.0331 C.ar    1  UNL1       -0.0180
     13 C          -5.9083    2.6188   -0.3643 C.ar    1  UNL1        0.1427
     14 O          -4.9643    3.6147   -0.4473 O.3     1  UNL1       -0.5046
     15 C          -5.5755    1.2743   -0.5881 C.ar    1  UNL1        0.1126
     16 N          -4.2574    0.8894   -0.7349 N.ar    1  UNL1       -0.2466
     17 C          -0.4480   -0.6424    0.5143 C.3     1  UNL1        0.0994
     18 C           0.0622    0.7201    0.1411 C.1     1  UNL1        0.0815
     19 N           0.4814    1.8584   -0.1489 N.1     1  UNL1       -0.1949
     20 C          -0.0368   -1.6201   -0.4705 C.3     1  UNL1       -0.0212
     21 C           1.4465   -1.9366   -0.6045 C.3     1  UNL1       -0.0364
     22 C           2.0529   -2.4973    0.6587 C.3     1  UNL1       -0.0372
     23 C           3.3108   -1.9345    1.0706 C.3     1  UNL1       -0.0005
     24 N           4.1258   -1.2319    0.0856 N.3     1  UNL1       -0.2981
     25 C           5.1245   -0.5396    0.9195 C.3     1  UNL1        0.0240
     26 C           6.1819    0.1573    0.1841 C.ar    1  UNL1       -0.0334
     27 C           5.9799    1.4755   -0.2661 C.ar    1  UNL1       -0.0573
     28 C           6.9944    2.2143   -0.9056 C.ar    1  UNL1       -0.0615
     29 C           8.2595    1.5903   -1.0919 C.ar    1  UNL1       -0.0617
     30 C           8.4446    0.3230   -0.6692 C.ar    1  UNL1       -0.0615
     31 C           7.4289   -0.3508   -0.0575 C.ar    1  UNL1       -0.0573
     32 C           3.2004   -0.1644   -0.3930 C.3     1  UNL1       -0.0005
     33 C           2.1795   -0.8485   -1.2679 C.3     1  UNL1       -0.0372
     34 H          -4.6149    2.5919    2.3298 H       1  UNL1        0.1228
     35 H          -1.8168   -0.6191    2.5588 H       1  UNL1        0.0563
     36 H          -3.2634   -1.3478    1.7710 H       1  UNL1        0.0563
     37 H          -2.0157   -0.0999   -1.5453 H       1  UNL1        0.0492
     38 H          -2.3626   -1.7912   -1.0430 H       1  UNL1        0.0492
     39 H          -4.6248   -2.4252   -0.7569 H       1  UNL1        0.0636
     40 H          -7.0009   -1.7239   -0.4631 H       1  UNL1        0.0625
     41 H          -8.5973   -0.0935   -0.0006 H       1  UNL1        0.0624
     42 H          -9.2123    2.2117    0.3497 H       1  UNL1        0.0619
     43 H          -7.4790    4.0118    0.1560 H       1  UNL1        0.0655
     44 H          -4.0267    3.5140   -0.0455 H       1  UNL1        0.2922
     45 H          -0.1373   -0.8321    1.5443 H       1  UNL1        0.0621
     46 H          -0.5670   -2.6062   -0.2973 H       1  UNL1        0.0293
     47 H          -0.3796   -1.2882   -1.4858 H       1  UNL1        0.0293
     48 H           1.4102   -2.7952   -1.3111 H       1  UNL1        0.0302
     49 H           1.2928   -2.3720    1.4916 H       1  UNL1        0.0280
     50 H           2.1862   -3.6309    0.5894 H       1  UNL1        0.0280
     51 H           3.1417   -1.1305    1.8954 H       1  UNL1        0.0427
     52 H           4.0138   -2.6802    1.5549 H       1  UNL1        0.0427
     53 H           4.5420    0.1914    1.5627 H       1  UNL1        0.0476
     54 H           5.5176   -1.2782    1.6305 H       1  UNL1        0.0476
     55 H           5.0433    1.9365   -0.0949 H       1  UNL1        0.0621
     56 H           6.8884    3.1940   -1.2648 H       1  UNL1        0.0618
     57 H           9.0101    2.1864   -1.5324 H       1  UNL1        0.0618
     58 H           9.4463   -0.1529   -0.7845 H       1  UNL1        0.0618
     59 H           7.5934   -1.3773    0.2683 H       1  UNL1        0.0621
     60 H           3.7769    0.4840   -1.0703 H       1  UNL1        0.0427
     61 H           2.8540    0.3108    0.5232 H       1  UNL1        0.0427
     62 H           1.4268   -0.1704   -1.7151 H       1  UNL1        0.0280
     63 H           2.7593   -1.1964   -2.1376 H       1  UNL1        0.0280
@<TRIPOS>BOND
     1     1     2    3
     2     2     3    1
     3     3     4    1
     4     4     5    1
     5     5     6    1
     6     6     7   ar
     7     7     8   ar
     8     8     9   ar
     9     9    10   ar
    10    10    11   ar
    11    11    12   ar
    12    12    13   ar
    13    13    14    1
    14    13    15   ar
    15    15    16   ar
    16     4    17    1
    17    17    18    1
    18    18    19    3
    19    17    20    1
    20    20    21    1
    21    21    22    1
    22    22    23    1
    23    23    24    1
    24    24    25    1
    25    25    26    1
    26    26    27   ar
    27    27    28   ar
    28    28    29   ar
    29    29    30   ar
    30    30    31   ar
    31    24    32    1
    32    32    33    1
    33    16     6   ar
    34    33    21    1
    35    15     9   ar
    36    31    26   ar
    37     1    34    1
    38     3    35    1
    39     3    36    1
    40     5    37    1
    41     5    38    1
    42     7    39    1
    43     8    40    1
    44    10    41    1
    45    11    42    1
    46    12    43    1
    47    14    44    1
    48    17    45    1
    49    20    46    1
    50    20    47    1
    51    21    48    1
    52    22    49    1
    53    22    50    1
    54    23    51    1
    55    23    52    1
    56    25    53    1
    57    25    54    1
    58    27    55    1
    59    28    56    1
    60    29    57    1
    61    30    58    1
    62    31    59    1
    63    32    60    1
    64    32    61    1
    65    33    62    1
    66    33    63    1
