@<TRIPOS>MOLECULE
*****
 59 63 0 0 0
SMALL
GASTEIGER

@<TRIPOS>ATOM
      1 C          -4.4725    2.0854    1.4668 C.3     1  UNL1       -0.0376
      2 C          -4.8775    0.9046    0.6904 C.ar    1  UNL1       -0.0223
      3 C          -6.1052    0.7989    0.0938 C.ar    1  UNL1       -0.0489
      4 C          -6.4839   -0.3146   -0.6355 C.ar    1  UNL1       -0.0127
      5 C          -7.8037   -0.3991   -1.2416 C.ar    1  UNL1        0.0188
      6 C          -8.8432   -1.0062   -0.5357 C.ar    1  UNL1        0.0501
      7 CL         -8.4766   -1.6501    1.0509 Cl      1  UNL1       -0.0829
      8 C         -10.1075   -1.0935   -1.0759 C.ar    1  UNL1       -0.0427
      9 C         -10.4033   -0.5916   -2.3259 C.ar    1  UNL1       -0.0590
     10 C          -9.3825    0.0090   -3.0289 C.ar    1  UNL1       -0.0427
     11 C          -8.1098    0.0974   -2.4863 C.ar    1  UNL1        0.0501
     12 CL         -6.8133    0.8694   -3.3943 Cl      1  UNL1       -0.0829
     13 C          -5.5738   -1.3392   -0.7506 C.ar    1  UNL1       -0.0246
     14 C          -4.3316   -1.2643   -0.1627 C.ar    1  UNL1        0.1125
     15 N          -3.4933   -2.2920   -0.2934 N.ar    1  UNL1       -0.1444
     16 N          -2.2871   -2.2417    0.2840 N.ar    1  UNL1       -0.1123
     17 C          -1.8956   -1.1763    0.9967 C.ar    1  UNL1        0.2398
     18 N          -0.6395   -1.1690    1.6162 N.pl3   1  UNL1       -0.2824
     19 C           0.6107   -0.9523    0.9709 C.ar    1  UNL1        0.0338
     20 C           1.7737   -0.8094    1.7124 C.ar    1  UNL1       -0.0370
     21 C           2.9955   -0.6221    1.1082 C.ar    1  UNL1       -0.0182
     22 C           3.1389   -0.5657   -0.2617 C.ar    1  UNL1        0.1207
     23 O           4.3715   -0.3758   -0.8873 O.3     1  UNL1       -0.4907
     24 C           5.4878   -0.2305    0.0064 C.3     1  UNL1        0.1022
     25 C           6.7881   -0.0368   -0.7141 C.3     1  UNL1        0.0331
     26 N           7.8121    0.1111    0.3044 N.3     1  UNL1       -0.2991
     27 C           7.6157    1.3487    0.9855 C.3     1  UNL1       -0.0010
     28 C           8.8326    2.2076    0.7858 C.3     1  UNL1       -0.0390
     29 C           9.8980    1.2255    0.4140 C.3     1  UNL1       -0.0390
     30 C           9.1437    0.0693   -0.2060 C.3     1  UNL1       -0.0010
     31 C           1.9797   -0.7077   -1.0147 C.ar    1  UNL1       -0.0182
     32 C           0.7358   -0.8978   -0.3998 C.ar    1  UNL1       -0.0370
     33 N          -2.7679   -0.1374    1.1166 N.ar    1  UNL1       -0.2112
     34 C          -3.9779   -0.1388    0.5623 C.ar    1  UNL1        0.0975
     35 H          -5.3164    2.5645    2.0067 H       1  UNL1        0.0278
     36 H          -3.6892    1.8671    2.2155 H       1  UNL1        0.0278
     37 H          -4.0616    2.8785    0.7974 H       1  UNL1        0.0278
     38 H          -6.8039    1.5987    0.1871 H       1  UNL1        0.0627
     39 H         -10.9117   -1.5675   -0.5241 H       1  UNL1        0.0632
     40 H         -11.4178   -0.6649   -2.7475 H       1  UNL1        0.0618
     41 H          -9.6299    0.3982   -4.0041 H       1  UNL1        0.0632
     42 H          -5.8120   -2.2286   -1.3080 H       1  UNL1        0.0646
     43 H          -0.5931   -1.3400    2.6717 H       1  UNL1        0.1551
     44 H           1.6968   -0.8497    2.8045 H       1  UNL1        0.0637
     45 H           3.9159   -0.5101    1.7007 H       1  UNL1        0.0655
     46 H           5.2209    0.6438    0.6372 H       1  UNL1        0.0709
     47 H           5.5837   -1.0963    0.6935 H       1  UNL1        0.0709
     48 H           6.8063    0.7855   -1.4245 H       1  UNL1        0.0460
     49 H           7.0777   -0.9697   -1.2707 H       1  UNL1        0.0460
     50 H           6.7559    1.9378    0.5572 H       1  UNL1        0.0427
     51 H           7.4164    1.1731    2.0693 H       1  UNL1        0.0427
     52 H           9.0419    2.7076    1.7652 H       1  UNL1        0.0278
     53 H           8.6685    2.9859   -0.0031 H       1  UNL1        0.0278
     54 H          10.6290    1.5834   -0.3106 H       1  UNL1        0.0278
     55 H          10.3895    0.9204    1.3730 H       1  UNL1        0.0278
     56 H           9.6009   -0.9130    0.1120 H       1  UNL1        0.0427
     57 H           9.1773    0.0549   -1.3080 H       1  UNL1        0.0427
     58 H           2.0645   -0.6700   -2.0864 H       1  UNL1        0.0655
     59 H          -0.1475   -1.0049   -0.9926 H       1  UNL1        0.0637
@<TRIPOS>BOND
     1     1     2    1
     2     2     3   ar
     3     3     4   ar
     4     4     5    1
     5     5     6   ar
     6     6     7    1
     7     6     8   ar
     8     8     9   ar
     9     9    10   ar
    10    10    11   ar
    11    11    12    1
    12     4    13   ar
    13    13    14   ar
    14    14    15   ar
    15    15    16   ar
    16    16    17   ar
    17    17    18    1
    18    18    19    1
    19    19    20   ar
    20    20    21   ar
    21    21    22   ar
    22    22    23    1
    23    23    24    1
    24    24    25    1
    25    25    26    1
    26    26    27    1
    27    27    28    1
    28    28    29    1
    29    29    30    1
    30    22    31   ar
    31    31    32   ar
    32    17    33   ar
    33    33    34   ar
    34    34     2   ar
    35    11     5   ar
    36    34    14   ar
    37    32    19   ar
    38    30    26    1
    39     1    35    1
    40     1    36    1
    41     1    37    1
    42     3    38    1
    43     8    39    1
    44     9    40    1
    45    10    41    1
    46    13    42    1
    47    18    43    1
    48    20    44    1
    49    21    45    1
    50    24    46    1
    51    24    47    1
    52    25    48    1
    53    25    49    1
    54    27    50    1
    55    27    51    1
    56    28    52    1
    57    28    53    1
    58    29    54    1
    59    29    55    1
    60    30    56    1
    61    30    57    1
    62    31    58    1
    63    32    59    1
