
     RDKit          3D

 59 63  0  0  0  0  0  0  0  0999 V2000
   -4.4725    2.0854    1.4668 C   0  0  0  0  0  0  0  0  0  0  0  0
   -4.8775    0.9046    0.6904 C   0  0  0  0  0  0  0  0  0  0  0  0
   -6.1052    0.7989    0.0938 C   0  0  0  0  0  0  0  0  0  0  0  0
   -6.4839   -0.3146   -0.6355 C   0  0  0  0  0  0  0  0  0  0  0  0
   -7.8037   -0.3991   -1.2416 C   0  0  0  0  0  0  0  0  0  0  0  0
   -8.8432   -1.0062   -0.5357 C   0  0  0  0  0  0  0  0  0  0  0  0
   -8.4766   -1.6501    1.0509 Cl  0  0  0  0  0  0  0  0  0  0  0  0
  -10.1075   -1.0935   -1.0759 C   0  0  0  0  0  0  0  0  0  0  0  0
  -10.4033   -0.5916   -2.3259 C   0  0  0  0  0  0  0  0  0  0  0  0
   -9.3825    0.0090   -3.0289 C   0  0  0  0  0  0  0  0  0  0  0  0
   -8.1098    0.0974   -2.4863 C   0  0  0  0  0  0  0  0  0  0  0  0
   -6.8133    0.8694   -3.3943 Cl  0  0  0  0  0  0  0  0  0  0  0  0
   -5.5738   -1.3392   -0.7506 C   0  0  0  0  0  0  0  0  0  0  0  0
   -4.3316   -1.2643   -0.1627 C   0  0  0  0  0  0  0  0  0  0  0  0
   -3.4933   -2.2920   -0.2934 N   0  0  0  0  0  0  0  0  0  0  0  0
   -2.2871   -2.2417    0.2840 N   0  0  0  0  0  0  0  0  0  0  0  0
   -1.8956   -1.1763    0.9967 C   0  0  0  0  0  0  0  0  0  0  0  0
   -0.6395   -1.1690    1.6162 N   0  0  0  0  0  0  0  0  0  0  0  0
    0.6107   -0.9523    0.9709 C   0  0  0  0  0  0  0  0  0  0  0  0
    1.7737   -0.8094    1.7124 C   0  0  0  0  0  0  0  0  0  0  0  0
    2.9955   -0.6221    1.1082 C   0  0  0  0  0  0  0  0  0  0  0  0
    3.1389   -0.5657   -0.2617 C   0  0  0  0  0  0  0  0  0  0  0  0
    4.3715   -0.3758   -0.8873 O   0  0  0  0  0  0  0  0  0  0  0  0
    5.4878   -0.2305    0.0064 C   0  0  0  0  0  0  0  0  0  0  0  0
    6.7881   -0.0368   -0.7141 C   0  0  0  0  0  0  0  0  0  0  0  0
    7.8121    0.1111    0.3044 N   0  0  0  0  0  0  0  0  0  0  0  0
    7.6157    1.3487    0.9855 C   0  0  0  0  0  0  0  0  0  0  0  0
    8.8326    2.2076    0.7858 C   0  0  0  0  0  0  0  0  0  0  0  0
    9.8980    1.2255    0.4140 C   0  0  0  0  0  0  0  0  0  0  0  0
    9.1437    0.0693   -0.2060 C   0  0  0  0  0  0  0  0  0  0  0  0
    1.9797   -0.7077   -1.0147 C   0  0  0  0  0  0  0  0  0  0  0  0
    0.7358   -0.8978   -0.3998 C   0  0  0  0  0  0  0  0  0  0  0  0
   -2.7679   -0.1374    1.1166 N   0  0  0  0  0  0  0  0  0  0  0  0
   -3.9779   -0.1388    0.5623 C   0  0  0  0  0  0  0  0  0  0  0  0
   -5.3164    2.5645    2.0067 H   0  0  0  0  0  0  0  0  0  0  0  0
   -3.6892    1.8671    2.2155 H   0  0  0  0  0  0  0  0  0  0  0  0
   -4.0616    2.8785    0.7974 H   0  0  0  0  0  0  0  0  0  0  0  0
   -6.8039    1.5987    0.1871 H   0  0  0  0  0  0  0  0  0  0  0  0
  -10.9117   -1.5675   -0.5241 H   0  0  0  0  0  0  0  0  0  0  0  0
  -11.4178   -0.6649   -2.7475 H   0  0  0  0  0  0  0  0  0  0  0  0
   -9.6299    0.3982   -4.0041 H   0  0  0  0  0  0  0  0  0  0  0  0
   -5.8120   -2.2286   -1.3080 H   0  0  0  0  0  0  0  0  0  0  0  0
   -0.5931   -1.3400    2.6717 H   0  0  0  0  0  0  0  0  0  0  0  0
    1.6968   -0.8497    2.8045 H   0  0  0  0  0  0  0  0  0  0  0  0
    3.9159   -0.5101    1.7007 H   0  0  0  0  0  0  0  0  0  0  0  0
    5.2209    0.6438    0.6372 H   0  0  0  0  0  0  0  0  0  0  0  0
    5.5837   -1.0963    0.6935 H   0  0  0  0  0  0  0  0  0  0  0  0
    6.8063    0.7855   -1.4245 H   0  0  0  0  0  0  0  0  0  0  0  0
    7.0777   -0.9697   -1.2707 H   0  0  0  0  0  0  0  0  0  0  0  0
    6.7559    1.9378    0.5572 H   0  0  0  0  0  0  0  0  0  0  0  0
    7.4164    1.1731    2.0693 H   0  0  0  0  0  0  0  0  0  0  0  0
    9.0419    2.7076    1.7652 H   0  0  0  0  0  0  0  0  0  0  0  0
    8.6685    2.9859   -0.0031 H   0  0  0  0  0  0  0  0  0  0  0  0
   10.6290    1.5834   -0.3106 H   0  0  0  0  0  0  0  0  0  0  0  0
   10.3895    0.9204    1.3730 H   0  0  0  0  0  0  0  0  0  0  0  0
    9.6009   -0.9130    0.1120 H   0  0  0  0  0  0  0  0  0  0  0  0
    9.1773    0.0549   -1.3080 H   0  0  0  0  0  0  0  0  0  0  0  0
    2.0645   -0.6700   -2.0864 H   0  0  0  0  0  0  0  0  0  0  0  0
   -0.1475   -1.0049   -0.9926 H   0  0  0  0  0  0  0  0  0  0  0  0
  1  2  1  0
  2  3  2  0
  3  4  1  0
  4  5  1  0
  5  6  2  0
  6  7  1  0
  6  8  1  0
  8  9  2  0
  9 10  1  0
 10 11  2  0
 11 12  1  0
  4 13  2  0
 13 14  1  0
 14 15  2  0
 15 16  1  0
 16 17  2  0
 17 18  1  0
 18 19  1  0
 19 20  2  0
 20 21  1  0
 21 22  2  0
 22 23  1  0
 23 24  1  0
 24 25  1  0
 25 26  1  0
 26 27  1  0
 27 28  1  0
 28 29  1  0
 29 30  1  0
 22 31  1  0
 31 32  2  0
 17 33  1  0
 33 34  2  0
 34  2  1  0
 11  5  1  0
 34 14  1  0
 32 19  1  0
 30 26  1  0
  1 35  1  0
  1 36  1  0
  1 37  1  0
  3 38  1  0
  8 39  1  0
  9 40  1  0
 10 41  1  0
 13 42  1  0
 18 43  1  0
 20 44  1  0
 21 45  1  0
 24 46  1  0
 24 47  1  0
 25 48  1  0
 25 49  1  0
 27 50  1  0
 27 51  1  0
 28 52  1  0
 28 53  1  0
 29 54  1  0
 29 55  1  0
 30 56  1  0
 30 57  1  0
 31 58  1  0
 32 59  1  0
M  END
$$$$
