
     RDKit          3D

 30 32  0  0  0  0  0  0  0  0999 V2000
    0.0257   -1.5787    0.7552 O   0  0  0  0  0  0  0  0  0  0  0  0
   -0.4341   -0.5158    0.2879 C   0  0  0  0  0  0  0  0  0  0  0  0
    0.4537    0.4609   -0.1073 C   0  0  0  0  0  0  0  0  0  0  0  0
    1.8912    0.2466    0.0220 C   0  0  0  0  0  0  0  0  0  0  0  0
    2.7549    1.1968    0.5251 C   0  0  0  0  0  0  0  0  0  0  0  0
    4.1060    0.9974    0.6474 C   0  0  0  0  0  0  0  0  0  0  0  0
    4.6504   -0.2032    0.2549 C   0  0  0  0  0  0  0  0  0  0  0  0
    6.0095   -0.4642    0.3541 O   0  0  0  0  0  0  0  0  0  0  0  0
    3.8189   -1.1781   -0.2532 C   0  0  0  0  0  0  0  0  0  0  0  0
    2.4543   -0.9582   -0.3694 C   0  0  0  0  0  0  0  0  0  0  0  0
   -0.0883    1.6228   -0.6191 C   0  0  0  0  0  0  0  0  0  0  0  0
   -1.3766    1.8134   -0.7343 O   0  0  0  0  0  0  0  0  0  0  0  0
   -2.2675    0.9149   -0.3727 C   0  0  0  0  0  0  0  0  0  0  0  0
   -3.6325    1.1368   -0.5033 C   0  0  0  0  0  0  0  0  0  0  0  0
   -4.5182    0.1668   -0.1110 C   0  0  0  0  0  0  0  0  0  0  0  0
   -5.8846    0.3719   -0.2344 O   0  0  0  0  0  0  0  0  0  0  0  0
   -4.0335   -1.0202    0.4101 C   0  0  0  0  0  0  0  0  0  0  0  0
   -2.6942   -1.2557    0.5459 C   0  0  0  0  0  0  0  0  0  0  0  0
   -2.1725   -2.4342    1.0643 O   0  0  0  0  0  0  0  0  0  0  0  0
   -1.8016   -0.2860    0.1538 C   0  0  0  0  0  0  0  0  0  0  0  0
    2.3539    2.1584    0.8446 H   0  0  0  0  0  0  0  0  0  0  0  0
    4.7898    1.7489    1.0454 H   0  0  0  0  0  0  0  0  0  0  0  0
    6.6109    0.1867    0.8338 H   0  0  0  0  0  0  0  0  0  0  0  0
    4.2665   -2.1208   -0.5584 H   0  0  0  0  0  0  0  0  0  0  0  0
    1.8546   -1.7542   -0.7724 H   0  0  0  0  0  0  0  0  0  0  0  0
    0.5942    2.3954   -0.9322 H   0  0  0  0  0  0  0  0  0  0  0  0
   -3.9463    2.0933   -0.9212 H   0  0  0  0  0  0  0  0  0  0  0  0
   -6.2810    1.3020   -0.1917 H   0  0  0  0  0  0  0  0  0  0  0  0
   -4.7344   -1.7813    0.7178 H   0  0  0  0  0  0  0  0  0  0  0  0
   -2.7693   -3.2622    1.1643 H   0  0  0  0  0  0  0  0  0  0  0  0
  1  2  2  0
  2  3  1  0
  3  4  1  0
  4  5  2  0
  5  6  1  0
  6  7  2  0
  7  8  1  0
  7  9  1  0
  9 10  2  0
  3 11  2  0
 11 12  1  0
 12 13  1  0
 13 14  2  0
 14 15  1  0
 15 16  1  0
 15 17  2  0
 17 18  1  0
 18 19  1  0
 18 20  2  0
 20  2  1  0
 10  4  1  0
 20 13  1  0
  5 21  1  0
  6 22  1  0
  8 23  1  0
  9 24  1  0
 10 25  1  0
 11 26  1  0
 14 27  1  0
 16 28  1  0
 17 29  1  0
 19 30  1  0
M  END
$$$$
