@<TRIPOS>MOLECULE
*****
 30 32 0 0 0
SMALL
GASTEIGER

@<TRIPOS>ATOM
      1 O           0.0257   -1.5787    0.7552 O.2     1  UNL1       -0.2863
      2 C          -0.4341   -0.5158    0.2879 C.ar    1  UNL1        0.2037
      3 C           0.4537    0.4609   -0.1073 C.ar    1  UNL1        0.0644
      4 C           1.8912    0.2466    0.0220 C.ar    1  UNL1       -0.0110
      5 C           2.7549    1.1968    0.5251 C.ar    1  UNL1       -0.0504
      6 C           4.1060    0.9974    0.6474 C.ar    1  UNL1       -0.0196
      7 C           4.6504   -0.2032    0.2549 C.ar    1  UNL1        0.1169
      8 O           6.0095   -0.4642    0.3541 O.3     1  UNL1       -0.5068
      9 C           3.8189   -1.1781   -0.2532 C.ar    1  UNL1       -0.0196
     10 C           2.4543   -0.9582   -0.3694 C.ar    1  UNL1       -0.0504
     11 C          -0.0883    1.6228   -0.6191 C.ar    1  UNL1        0.1038
     12 O          -1.3766    1.8134   -0.7343 O.2     1  UNL1       -0.4618
     13 C          -2.2675    0.9149   -0.3727 C.ar    1  UNL1        0.1454
     14 C          -3.6325    1.1368   -0.5033 C.ar    1  UNL1        0.0231
     15 C          -4.5182    0.1668   -0.1110 C.ar    1  UNL1        0.1239
     16 O          -5.8846    0.3719   -0.2344 O.3     1  UNL1       -0.5065
     17 C          -4.0335   -1.0202    0.4101 C.ar    1  UNL1        0.0223
     18 C          -2.6942   -1.2557    0.5459 C.ar    1  UNL1        0.1347
     19 O          -2.1725   -2.4342    1.0643 O.3     1  UNL1       -0.5058
     20 C          -1.8016   -0.2860    0.1538 C.ar    1  UNL1        0.1060
     21 H           2.3539    2.1584    0.8446 H       1  UNL1        0.0625
     22 H           4.7898    1.7489    1.0454 H       1  UNL1        0.0654
     23 H           6.6109    0.1867    0.8338 H       1  UNL1        0.2921
     24 H           4.2665   -2.1208   -0.5584 H       1  UNL1        0.0654
     25 H           1.8546   -1.7542   -0.7724 H       1  UNL1        0.0625
     26 H           0.5942    2.3954   -0.9322 H       1  UNL1        0.1037
     27 H          -3.9463    2.0933   -0.9212 H       1  UNL1        0.0691
     28 H          -6.2810    1.3020   -0.1917 H       1  UNL1        0.2921
     29 H          -4.7344   -1.7813    0.7178 H       1  UNL1        0.0691
     30 H          -2.7693   -3.2622    1.1643 H       1  UNL1        0.2922
@<TRIPOS>BOND
     1     1     2    2
     2     2     3   ar
     3     3     4    1
     4     4     5   ar
     5     5     6   ar
     6     6     7   ar
     7     7     8    1
     8     7     9   ar
     9     9    10   ar
    10     3    11   ar
    11    11    12   ar
    12    12    13   ar
    13    13    14   ar
    14    14    15   ar
    15    15    16    1
    16    15    17   ar
    17    17    18   ar
    18    18    19    1
    19    18    20   ar
    20    20     2   ar
    21    10     4   ar
    22    20    13   ar
    23     5    21    1
    24     6    22    1
    25     8    23    1
    26     9    24    1
    27    10    25    1
    28    11    26    1
    29    14    27    1
    30    16    28    1
    31    17    29    1
    32    19    30    1
