@<TRIPOS>MOLECULE
*****
 44 47 0 0 0
SMALL
GASTEIGER

@<TRIPOS>ATOM
      1 C          -1.0339    3.5036    1.8427 C.3     1  UNL1       -0.0122
      2 N          -0.2920    2.3203    1.5268 N.3     1  UNL1       -0.2989
      3 C          -1.1465    1.4637    0.6791 C.3     1  UNL1        0.0178
      4 C          -1.1832    2.2407   -0.5829 C.3     1  UNL1       -0.0353
      5 C           0.1151    3.0529   -0.6699 C.3     1  UNL1       -0.0359
      6 C           0.7883    2.6394    0.6136 C.3     1  UNL1        0.0110
      7 C           1.6020    1.4038    0.4092 C.3     1  UNL1       -0.0299
      8 C           0.7701    0.3113   -0.2728 C.3     1  UNL1       -0.0062
      9 C           1.6593   -0.8684   -0.3459 C.ar    1  UNL1       -0.0436
     10 C           2.0058   -1.3602   -1.5842 C.ar    1  UNL1       -0.0583
     11 C           2.8414   -2.4706   -1.7225 C.ar    1  UNL1       -0.0615
     12 C           3.3507   -3.1158   -0.6202 C.ar    1  UNL1       -0.0617
     13 C           3.0061   -2.6265    0.6206 C.ar    1  UNL1       -0.0615
     14 C           2.1767   -1.5246    0.7447 C.ar    1  UNL1       -0.0583
     15 C          -0.4450    0.1029    0.5618 C.3     1  UNL1        0.0066
     16 C          -1.3523   -0.9554    0.1537 C.ar    1  UNL1       -0.0422
     17 C          -1.9605   -1.7813    1.1079 C.ar    1  UNL1       -0.0582
     18 C          -2.8147   -2.7951    0.7369 C.ar    1  UNL1       -0.0615
     19 C          -3.1075   -3.0408   -0.5821 C.ar    1  UNL1       -0.0617
     20 C          -2.5060   -2.2245   -1.5228 C.ar    1  UNL1       -0.0615
     21 C          -1.6468   -1.2036   -1.1646 C.ar    1  UNL1       -0.0582
     22 H          -1.0516    3.6676    2.9486 H       1  UNL1        0.0391
     23 H          -2.0612    3.4844    1.4491 H       1  UNL1        0.0391
     24 H          -0.5449    4.4059    1.4118 H       1  UNL1        0.0391
     25 H          -2.0939    1.3824    1.2125 H       1  UNL1        0.0469
     26 H          -2.0300    2.9639   -0.5342 H       1  UNL1        0.0281
     27 H          -1.2252    1.6642   -1.5187 H       1  UNL1        0.0281
     28 H          -0.0947    4.1283   -0.7254 H       1  UNL1        0.0281
     29 H           0.7512    2.7441   -1.4983 H       1  UNL1        0.0281
     30 H           1.4573    3.4248    1.0159 H       1  UNL1        0.0463
     31 H           1.9065    1.0177    1.4094 H       1  UNL1        0.0286
     32 H           2.5142    1.5646   -0.1948 H       1  UNL1        0.0286
     33 H           0.5106    0.6282   -1.2791 H       1  UNL1        0.0356
     34 H           1.6527   -0.9171   -2.5071 H       1  UNL1        0.0620
     35 H           3.1178   -2.8625   -2.6924 H       1  UNL1        0.0618
     36 H           4.0116   -3.9939   -0.7233 H       1  UNL1        0.0618
     37 H           3.3967   -3.1200    1.5126 H       1  UNL1        0.0618
     38 H           1.9253   -1.1653    1.7370 H       1  UNL1        0.0620
     39 H          -0.1539   -0.1101    1.6255 H       1  UNL1        0.0370
     40 H          -1.7858   -1.6579    2.1669 H       1  UNL1        0.0620
     41 H          -3.2921   -3.4419    1.4690 H       1  UNL1        0.0618
     42 H          -3.7740   -3.8300   -0.8902 H       1  UNL1        0.0618
     43 H          -2.7304   -2.4110   -2.5534 H       1  UNL1        0.0618
     44 H          -1.2334   -0.6379   -1.9870 H       1  UNL1        0.0620
@<TRIPOS>BOND
     1     1     2    1
     2     2     3    1
     3     3     4    1
     4     4     5    1
     5     5     6    1
     6     6     7    1
     7     7     8    1
     8     8     9    1
     9     9    10   ar
    10    10    11   ar
    11    11    12   ar
    12    12    13   ar
    13    13    14   ar
    14     8    15    1
    15    15    16    1
    16    16    17   ar
    17    17    18   ar
    18    18    19   ar
    19    19    20   ar
    20    20    21   ar
    21     6     2    1
    22    14     9   ar
    23    21    16   ar
    24    15     3    1
    25     1    22    1
    26     1    23    1
    27     1    24    1
    28     3    25    1
    29     4    26    1
    30     4    27    1
    31     5    28    1
    32     5    29    1
    33     6    30    1
    34     7    31    1
    35     7    32    1
    36     8    33    1
    37    10    34    1
    38    11    35    1
    39    12    36    1
    40    13    37    1
    41    14    38    1
    42    15    39    1
    43    17    40    1
    44    18    41    1
    45    19    42    1
    46    20    43    1
    47    21    44    1
