@<TRIPOS>MOLECULE
*****
 43 47 0 0 0
SMALL
GASTEIGER

@<TRIPOS>ATOM
      1 C          -5.0234    3.6908   -0.1613 C.3     1  UNL1       -0.0223
      2 C          -4.8313    2.2200   -0.0787 C.ar    1  UNL1        0.0390
      3 C          -5.9995    1.4510   -0.0484 C.ar    1  UNL1       -0.0406
      4 C          -5.9538    0.0565    0.0291 C.ar    1  UNL1       -0.0580
      5 C          -4.7045   -0.5289    0.0743 C.ar    1  UNL1       -0.0326
      6 C          -3.5784    0.2663    0.0422 C.ar    1  UNL1        0.1082
      7 N          -3.6224    1.6064   -0.0323 N.ar    1  UNL1       -0.2488
      8 C          -2.2834   -0.4008    0.0920 C.ar    1  UNL1        0.1807
      9 N          -1.1700    0.3383    0.0608 N.ar    1  UNL1       -0.2103
     10 C           0.0646   -0.2431    0.1053 C.ar    1  UNL1        0.1346
     11 N           1.1716    0.6298    0.0667 N.pl3   1  UNL1       -0.2988
     12 C           2.5633    0.7336    0.0567 C.ar    1  UNL1        0.0331
     13 C           3.2706    0.6734   -1.1511 C.ar    1  UNL1       -0.0385
     14 C           4.6441    0.7612   -1.2336 C.ar    1  UNL1       -0.0345
     15 C           5.2731    0.9149   -0.0174 C.ar    1  UNL1        0.0658
     16 N           6.6098    1.0293    0.2259 N.ar    1  UNL1       -0.2770
     17 N           6.8433    1.1630    1.5247 N.ar    1  UNL1       -0.1812
     18 C           5.6688    1.1426    2.1978 C.ar    1  UNL1        0.0569
     19 C           4.7107    0.9892    1.2350 C.ar    1  UNL1        0.0212
     20 C           3.3146    0.8917    1.2270 C.ar    1  UNL1       -0.0298
     21 C           0.1200   -1.6130    0.1835 C.ar    1  UNL1        0.0405
     22 C           1.3548   -2.2190    0.2312 C.ar    1  UNL1       -0.0493
     23 C           1.3999   -3.5939    0.3107 C.ar    1  UNL1       -0.0610
     24 C           0.3073   -4.4256    0.3472 C.ar    1  UNL1       -0.0597
     25 C          -0.9339   -3.7842    0.2975 C.ar    1  UNL1       -0.0356
     26 C          -1.0047   -2.4086    0.2177 C.ar    1  UNL1        0.0767
     27 N          -2.1647   -1.7349    0.1685 N.ar    1  UNL1       -0.2258
     28 H          -5.7966    4.0145    0.5647 H       1  UNL1        0.0292
     29 H          -4.0735    4.2321   -0.0704 H       1  UNL1        0.0292
     30 H          -5.4092    3.9288   -1.1853 H       1  UNL1        0.0292
     31 H          -6.9759    1.8988   -0.0831 H       1  UNL1        0.0635
     32 H          -6.8525   -0.5471    0.0528 H       1  UNL1        0.0619
     33 H          -4.6261   -1.6062    0.1345 H       1  UNL1        0.0640
     34 H           1.0378    1.6631    0.0278 H       1  UNL1        0.1536
     35 H           2.6805    0.5519   -2.0429 H       1  UNL1        0.0637
     36 H           5.1925    0.7154   -2.1613 H       1  UNL1        0.0639
     37 H           7.3818    1.0173   -0.4961 H       1  UNL1        0.1889
     38 H           5.4639    1.2247    3.2641 H       1  UNL1        0.0854
     39 H           2.7934    0.9416    2.1742 H       1  UNL1        0.0643
     40 H           2.2597   -1.6598    0.2098 H       1  UNL1        0.0625
     41 H           2.3544   -4.1298    0.3513 H       1  UNL1        0.0618
     42 H           0.3802   -5.5024    0.4101 H       1  UNL1        0.0618
     43 H          -1.8567   -4.3489    0.3202 H       1  UNL1        0.0639
@<TRIPOS>BOND
     1     1     2    1
     2     2     3   ar
     3     3     4   ar
     4     4     5   ar
     5     5     6   ar
     6     6     7   ar
     7     6     8    1
     8     8     9   ar
     9     9    10   ar
    10    10    11    1
    11    11    12    1
    12    12    13   ar
    13    13    14   ar
    14    14    15   ar
    15    15    16   ar
    16    16    17   ar
    17    17    18   ar
    18    18    19   ar
    19    19    20   ar
    20    10    21   ar
    21    21    22   ar
    22    22    23   ar
    23    23    24   ar
    24    24    25   ar
    25    25    26   ar
    26    26    27   ar
    27     7     2   ar
    28    27     8   ar
    29    20    12   ar
    30    26    21   ar
    31    19    15   ar
    32     1    28    1
    33     1    29    1
    34     1    30    1
    35     3    31    1
    36     4    32    1
    37     5    33    1
    38    11    34    1
    39    13    35    1
    40    14    36    1
    41    16    37    1
    42    18    38    1
    43    20    39    1
    44    22    40    1
    45    23    41    1
    46    24    42    1
    47    25    43    1
