
     RDKit          3D

 43 47  0  0  0  0  0  0  0  0999 V2000
   -5.0234    3.6908   -0.1613 C   0  0  0  0  0  0  0  0  0  0  0  0
   -4.8313    2.2200   -0.0787 C   0  0  0  0  0  0  0  0  0  0  0  0
   -5.9995    1.4510   -0.0484 C   0  0  0  0  0  0  0  0  0  0  0  0
   -5.9538    0.0565    0.0291 C   0  0  0  0  0  0  0  0  0  0  0  0
   -4.7045   -0.5289    0.0743 C   0  0  0  0  0  0  0  0  0  0  0  0
   -3.5784    0.2663    0.0422 C   0  0  0  0  0  0  0  0  0  0  0  0
   -3.6224    1.6064   -0.0323 N   0  0  0  0  0  0  0  0  0  0  0  0
   -2.2834   -0.4008    0.0920 C   0  0  0  0  0  0  0  0  0  0  0  0
   -1.1700    0.3383    0.0608 N   0  0  0  0  0  0  0  0  0  0  0  0
    0.0646   -0.2431    0.1053 C   0  0  0  0  0  0  0  0  0  0  0  0
    1.1716    0.6298    0.0667 N   0  0  0  0  0  0  0  0  0  0  0  0
    2.5633    0.7336    0.0567 C   0  0  0  0  0  0  0  0  0  0  0  0
    3.2706    0.6734   -1.1511 C   0  0  0  0  0  0  0  0  0  0  0  0
    4.6441    0.7612   -1.2336 C   0  0  0  0  0  0  0  0  0  0  0  0
    5.2731    0.9149   -0.0174 C   0  0  0  0  0  0  0  0  0  0  0  0
    6.6098    1.0293    0.2259 N   0  0  0  0  0  0  0  0  0  0  0  0
    6.8433    1.1630    1.5247 N   0  0  0  0  0  0  0  0  0  0  0  0
    5.6688    1.1426    2.1978 C   0  0  0  0  0  0  0  0  0  0  0  0
    4.7107    0.9892    1.2350 C   0  0  0  0  0  0  0  0  0  0  0  0
    3.3146    0.8917    1.2270 C   0  0  0  0  0  0  0  0  0  0  0  0
    0.1200   -1.6130    0.1835 C   0  0  0  0  0  0  0  0  0  0  0  0
    1.3548   -2.2190    0.2312 C   0  0  0  0  0  0  0  0  0  0  0  0
    1.3999   -3.5939    0.3107 C   0  0  0  0  0  0  0  0  0  0  0  0
    0.3073   -4.4256    0.3472 C   0  0  0  0  0  0  0  0  0  0  0  0
   -0.9339   -3.7842    0.2975 C   0  0  0  0  0  0  0  0  0  0  0  0
   -1.0047   -2.4086    0.2177 C   0  0  0  0  0  0  0  0  0  0  0  0
   -2.1647   -1.7349    0.1685 N   0  0  0  0  0  0  0  0  0  0  0  0
   -5.7966    4.0145    0.5647 H   0  0  0  0  0  0  0  0  0  0  0  0
   -4.0735    4.2321   -0.0704 H   0  0  0  0  0  0  0  0  0  0  0  0
   -5.4092    3.9288   -1.1853 H   0  0  0  0  0  0  0  0  0  0  0  0
   -6.9759    1.8988   -0.0831 H   0  0  0  0  0  0  0  0  0  0  0  0
   -6.8525   -0.5471    0.0528 H   0  0  0  0  0  0  0  0  0  0  0  0
   -4.6261   -1.6062    0.1345 H   0  0  0  0  0  0  0  0  0  0  0  0
    1.0378    1.6631    0.0278 H   0  0  0  0  0  0  0  0  0  0  0  0
    2.6805    0.5519   -2.0429 H   0  0  0  0  0  0  0  0  0  0  0  0
    5.1925    0.7154   -2.1613 H   0  0  0  0  0  0  0  0  0  0  0  0
    7.3818    1.0173   -0.4961 H   0  0  0  0  0  0  0  0  0  0  0  0
    5.4639    1.2247    3.2641 H   0  0  0  0  0  0  0  0  0  0  0  0
    2.7934    0.9416    2.1742 H   0  0  0  0  0  0  0  0  0  0  0  0
    2.2597   -1.6598    0.2098 H   0  0  0  0  0  0  0  0  0  0  0  0
    2.3544   -4.1298    0.3513 H   0  0  0  0  0  0  0  0  0  0  0  0
    0.3802   -5.5024    0.4101 H   0  0  0  0  0  0  0  0  0  0  0  0
   -1.8567   -4.3489    0.3202 H   0  0  0  0  0  0  0  0  0  0  0  0
  1  2  1  0
  2  3  2  0
  3  4  1  0
  4  5  2  0
  5  6  1  0
  6  7  2  0
  6  8  1  0
  8  9  2  0
  9 10  1  0
 10 11  1  0
 11 12  1  0
 12 13  2  0
 13 14  1  0
 14 15  2  0
 15 16  1  0
 16 17  1  0
 17 18  2  0
 18 19  1  0
 19 20  2  0
 10 21  2  0
 21 22  1  0
 22 23  2  0
 23 24  1  0
 24 25  2  0
 25 26  1  0
 26 27  2  0
  7  2  1  0
 27  8  1  0
 20 12  1  0
 26 21  1  0
 19 15  1  0
  1 28  1  0
  1 29  1  0
  1 30  1  0
  3 31  1  0
  4 32  1  0
  5 33  1  0
 11 34  1  0
 13 35  1  0
 14 36  1  0
 16 37  1  0
 18 38  1  0
 20 39  1  0
 22 40  1  0
 23 41  1  0
 24 42  1  0
 25 43  1  0
M  END
$$$$
