
     RDKit          3D

 47 50  0  0  0  0  0  0  0  0999 V2000
   -3.4041   -0.4742   -0.8831 C   0  0  0  0  0  0  0  0  0  0  0  0
   -2.6221    0.5673   -0.1067 C   0  0  2  0  0  0  0  0  0  0  0  0
   -1.6669   -0.1926    0.7415 C   0  0  0  0  0  0  0  0  0  0  0  0
   -0.3310   -0.2326    0.6331 C   0  0  0  0  0  0  0  0  0  0  0  0
    0.5316   -0.9979    1.3977 C   0  0  0  0  0  0  0  0  0  0  0  0
    1.9431   -1.0312    1.1077 C   0  0  0  0  0  0  0  0  0  0  0  0
    2.7776   -2.0312    1.3001 C   0  0  0  0  0  0  0  0  0  0  0  0
    2.3269   -3.1787    1.8368 F   0  0  0  0  0  0  0  0  0  0  0  0
    4.1631   -1.9706    0.8485 C   0  0  0  0  0  0  0  0  0  0  0  0
    5.0353   -2.9751    1.1658 C   0  0  0  0  0  0  0  0  0  0  0  0
    6.3294   -2.9332    0.6856 C   0  0  0  0  0  0  0  0  0  0  0  0
    6.6954   -1.8744   -0.1004 C   0  0  0  0  0  0  0  0  0  0  0  0
    8.0475   -1.7543   -0.6706 C   0  0  0  0  0  0  0  0  0  0  0  0
    9.0683   -1.6584   -1.1218 N   0  0  0  0  0  0  0  0  0  0  0  0
    5.8047   -0.8735   -0.4078 C   0  0  0  0  0  0  0  0  0  0  0  0
    4.5838   -0.9569    0.0721 N   0  0  0  0  0  0  0  0  0  0  0  0
   -0.0756   -1.8103    2.3896 C   0  0  0  0  0  0  0  0  0  0  0  0
   -1.4232   -1.7877    2.5191 C   0  0  0  0  0  0  0  0  0  0  0  0
   -2.2424   -1.0333    1.7586 C   0  0  0  0  0  0  0  0  0  0  0  0
   -3.5786   -1.0168    1.8968 F   0  0  0  0  0  0  0  0  0  0  0  0
   -3.4203    1.3644    0.7800 N   0  0  0  0  0  0  0  0  0  0  0  0
   -4.1966    2.2992    0.4582 C   0  0  0  0  0  0  0  0  0  0  0  0
   -4.9529    3.0379    1.3593 N   0  0  0  0  0  0  0  0  0  0  0  0
   -4.2357    2.6722   -1.3138 S   0  0  0  0  0  0  0  0  0  0  0  0
   -2.5084    2.4177   -1.8431 C   0  0  1  0  0  0  0  0  0  0  0  0
   -2.2614    2.7348   -3.2628 C   0  0  0  0  0  0  0  0  0  0  0  0
   -3.2019    2.2994   -4.2280 N   0  0  0  0  0  0  0  0  0  0  0  0
   -1.2517    3.3726   -3.6452 O   0  0  0  0  0  0  0  0  0  0  0  0
   -1.4834    2.7732   -0.8213 C   0  0  0  0  0  0  0  0  0  0  0  0
   -1.8262    1.3648   -1.1244 C   0  0  1  0  0  0  0  0  0  0  0  0
   -2.7868   -1.3834   -1.0722 H   0  0  0  0  0  0  0  0  0  0  0  0
   -3.7803   -0.0143   -1.8124 H   0  0  0  0  0  0  0  0  0  0  0  0
   -4.2753   -0.7330   -0.2525 H   0  0  0  0  0  0  0  0  0  0  0  0
    0.1073    0.4079   -0.1381 H   0  0  0  0  0  0  0  0  0  0  0  0
    2.4448   -0.1359    0.6741 H   0  0  0  0  0  0  0  0  0  0  0  0
    4.7247   -3.8269    1.7994 H   0  0  0  0  0  0  0  0  0  0  0  0
    7.0298   -3.7138    0.9222 H   0  0  0  0  0  0  0  0  0  0  0  0
    6.1375   -0.0340   -1.0430 H   0  0  0  0  0  0  0  0  0  0  0  0
    0.6068   -2.4006    2.9911 H   0  0  0  0  0  0  0  0  0  0  0  0
   -1.8249   -2.4431    3.3196 H   0  0  0  0  0  0  0  0  0  0  0  0
   -5.7999    2.6858    1.8478 H   0  0  0  0  0  0  0  0  0  0  0  0
   -4.6649    4.0276    1.5762 H   0  0  0  0  0  0  0  0  0  0  0  0
   -3.9274    1.5829   -4.0166 H   0  0  0  0  0  0  0  0  0  0  0  0
   -3.1919    2.6909   -5.1917 H   0  0  0  0  0  0  0  0  0  0  0  0
   -1.7918    3.2783    0.1280 H   0  0  0  0  0  0  0  0  0  0  0  0
   -0.5003    3.1447   -1.1608 H   0  0  0  0  0  0  0  0  0  0  0  0
   -1.1320    0.7460   -1.7078 H   0  0  0  0  0  0  0  0  0  0  0  0
  2  1  1  6
  2  3  1  0
  3  4  2  0
  4  5  1  0
  5  6  1  0
  6  7  2  0
  7  8  1  0
  7  9  1  0
  9 10  2  0
 10 11  1  0
 11 12  2  0
 12 13  1  0
 13 14  3  0
 12 15  1  0
 15 16  2  0
  5 17  2  0
 17 18  1  0
 18 19  2  0
 19 20  1  0
  2 21  1  0
 21 22  2  0
 22 23  1  0
 22 24  1  0
 24 25  1  0
 25 26  1  6
 26 27  1  0
 26 28  2  0
 25 29  1  0
 29 30  1  0
 30  2  1  0
 19  3  1  0
 30 25  1  0
 16  9  1  0
  1 31  1  0
  1 32  1  0
  1 33  1  0
  4 34  1  0
  6 35  1  0
 10 36  1  0
 11 37  1  0
 15 38  1  0
 17 39  1  0
 18 40  1  0
 23 41  1  0
 23 42  1  0
 27 43  1  0
 27 44  1  0
 29 45  1  0
 29 46  1  0
 30 47  1  6
M  END
$$$$
