@<TRIPOS>MOLECULE
*****
 47 50 0 0 0
SMALL
GASTEIGER

@<TRIPOS>ATOM
      1 C          -3.4041   -0.4742   -0.8831 C.3     1  UNL1       -0.0351
      2 C          -2.6221    0.5673   -0.1067 C.3     1  UNL1        0.0935
      3 C          -1.6669   -0.1926    0.7415 C.ar    1  UNL1        0.0158
      4 C          -0.3310   -0.2326    0.6331 C.ar    1  UNL1       -0.0463
      5 C           0.5316   -0.9979    1.3977 C.ar    1  UNL1       -0.0217
      6 C           1.9431   -1.0312    1.1077 C.2     1  UNL1       -0.0172
      7 C           2.7776   -2.0312    1.3001 C.2     1  UNL1        0.1492
      8 F           2.3269   -3.1787    1.8368 F       1  UNL1       -0.2032
      9 C           4.1631   -1.9706    0.8485 C.ar    1  UNL1        0.0990
     10 C           5.0353   -2.9751    1.1658 C.ar    1  UNL1       -0.0322
     11 C           6.3294   -2.9332    0.6856 C.ar    1  UNL1       -0.0408
     12 C           6.6954   -1.8744   -0.1004 C.ar    1  UNL1        0.0699
     13 C           8.0475   -1.7543   -0.6706 C.1     1  UNL1        0.1007
     14 N           9.0683   -1.6584   -1.1218 N.1     1  UNL1       -0.1908
     15 C           5.8047   -0.8735   -0.4078 C.ar    1  UNL1        0.0457
     16 N           4.5838   -0.9569    0.0721 N.ar    1  UNL1       -0.2514
     17 C          -0.0756   -1.8103    2.3896 C.ar    1  UNL1       -0.0518
     18 C          -1.4232   -1.7877    2.5191 C.ar    1  UNL1       -0.0255
     19 C          -2.2424   -1.0333    1.7586 C.ar    1  UNL1        0.1289
     20 F          -3.5786   -1.0168    1.8968 F       1  UNL1       -0.2051
     21 N          -3.4203    1.3644    0.7800 N.2     1  UNL1       -0.2521
     22 C          -4.1966    2.2992    0.4582 C.2     1  UNL1        0.1485
     23 N          -4.9529    3.0379    1.3593 N.pl3   1  UNL1       -0.3380
     24 S          -4.2357    2.6722   -1.3138 S.3     1  UNL1       -0.0746
     25 C          -2.5084    2.4177   -1.8431 C.3     1  UNL1        0.1050
     26 C          -2.2614    2.7348   -3.2628 C.2     1  UNL1        0.2273
     27 N          -3.2019    2.2994   -4.2280 N.am    1  UNL1       -0.3282
     28 O          -1.2517    3.3726   -3.6452 O.2     1  UNL1       -0.2745
     29 C          -1.4834    2.7732   -0.8213 C.3     1  UNL1       -0.0220
     30 C          -1.8262    1.3648   -1.1244 C.3     1  UNL1        0.0134
     31 H          -2.7868   -1.3834   -1.0722 H       1  UNL1        0.0256
     32 H          -3.7803   -0.0143   -1.8124 H       1  UNL1        0.0256
     33 H          -4.2753   -0.7330   -0.2525 H       1  UNL1        0.0256
     34 H           0.1073    0.4079   -0.1381 H       1  UNL1        0.0628
     35 H           2.4448   -0.1359    0.6741 H       1  UNL1        0.0653
     36 H           4.7247   -3.8269    1.7994 H       1  UNL1        0.0640
     37 H           7.0298   -3.7138    0.9222 H       1  UNL1        0.0631
     38 H           6.1375   -0.0340   -1.0430 H       1  UNL1        0.0843
     39 H           0.6068   -2.4006    2.9911 H       1  UNL1        0.0624
     40 H          -1.8249   -2.4431    3.3196 H       1  UNL1        0.0646
     41 H          -5.7999    2.6858    1.8478 H       1  UNL1        0.1442
     42 H          -4.6649    4.0276    1.5762 H       1  UNL1        0.1442
     43 H          -3.9274    1.5829   -4.0166 H       1  UNL1        0.1450
     44 H          -3.1919    2.6909   -5.1917 H       1  UNL1        0.1450
     45 H          -1.7918    3.2783    0.1280 H       1  UNL1        0.0287
     46 H          -0.5003    3.1447   -1.1608 H       1  UNL1        0.0287
     47 H          -1.1320    0.7460   -1.7078 H       1  UNL1        0.0346
@<TRIPOS>BOND
     1     2     1    1
     2     2     3    1
     3     3     4   ar
     4     4     5   ar
     5     5     6    1
     6     6     7    2
     7     7     8    1
     8     7     9    1
     9     9    10   ar
    10    10    11   ar
    11    11    12   ar
    12    12    13    1
    13    13    14    3
    14    12    15   ar
    15    15    16   ar
    16     5    17   ar
    17    17    18   ar
    18    18    19   ar
    19    19    20    1
    20     2    21    1
    21    21    22    2
    22    22    23    1
    23    22    24    1
    24    24    25    1
    25    25    26    1
    26    26    27   am
    27    26    28    2
    28    25    29    1
    29    29    30    1
    30    30     2    1
    31    19     3   ar
    32    30    25    1
    33    16     9   ar
    34     1    31    1
    35     1    32    1
    36     1    33    1
    37     4    34    1
    38     6    35    1
    39    10    36    1
    40    11    37    1
    41    15    38    1
    42    17    39    1
    43    18    40    1
    44    23    41    1
    45    23    42    1
    46    27    43    1
    47    27    44    1
    48    29    45    1
    49    29    46    1
    50    30    47    1
