
     RDKit          3D

 67 71  0  0  0  0  0  0  0  0999 V2000
    7.7892   -4.0171   -0.7750 C   0  0  0  0  0  0  0  0  0  0  0  0
    7.0034   -2.9847   -0.2386 O   0  0  0  0  0  0  0  0  0  0  0  0
    7.4826   -2.0801    0.6998 C   0  0  0  0  0  0  0  0  0  0  0  0
    8.7058   -2.0224    1.2399 N   0  0  0  0  0  0  0  0  0  0  0  0
    8.7931   -1.0377    2.0867 N   0  0  0  0  0  0  0  0  0  0  0  0
    9.9778   -0.6763    2.8618 C   0  0  0  0  0  0  0  0  0  0  0  0
    7.6028   -0.3799    2.1496 C   0  0  0  0  0  0  0  0  0  0  0  0
    6.7631   -1.0266    1.2782 C   0  0  0  0  0  0  0  0  0  0  0  0
    5.4126   -0.7369    0.9738 N   0  0  0  0  0  0  0  0  0  0  0  0
    4.7286    0.3470    1.5697 C   0  0  0  0  0  0  0  0  0  0  0  0
    5.2715    1.1817    2.4563 N   0  0  0  0  0  0  0  0  0  0  0  0
    4.5815    2.2180    3.0012 C   0  0  0  0  0  0  0  0  0  0  0  0
    3.2753    2.3777    2.5964 C   0  0  0  0  0  0  0  0  0  0  0  0
    2.3467    3.6924    3.2670 Cl  0  0  0  0  0  0  0  0  0  0  0  0
    2.6762    1.5400    1.6849 C   0  0  0  0  0  0  0  0  0  0  0  0
    1.3016    1.6799    1.2370 C   0  0  0  0  0  0  0  0  0  0  0  0
    0.1849    1.8435    2.0617 C   0  0  0  0  0  0  0  0  0  0  0  0
   -0.9097    1.9502    1.2961 N   0  0  0  0  0  0  0  0  0  0  0  0
   -0.5827    1.8651   -0.0237 C   0  0  0  0  0  0  0  0  0  0  0  0
   -1.3402    1.9133   -1.1773 C   0  0  0  0  0  0  0  0  0  0  0  0
   -2.7466    2.0979   -1.1459 N   0  0  0  0  0  0  0  0  0  0  0  0
   -3.6114    0.9789   -1.0435 C   0  0  0  0  0  0  0  0  0  0  0  0
   -3.1155   -0.1639   -0.9805 O   0  0  0  0  0  0  0  0  0  0  0  0
   -5.0792    1.1349   -1.0092 C   0  0  1  0  0  0  0  0  0  0  0  0
   -5.5056    2.0372   -2.1491 C   0  0  0  0  0  0  0  0  0  0  0  0
   -5.7284   -0.0999   -0.9664 N   0  0  0  0  0  0  0  0  0  0  0  0
   -5.6264   -0.9125   -2.1108 C   0  0  0  0  0  0  0  0  0  0  0  0
   -5.9391   -2.3715   -1.8411 C   0  0  0  0  0  0  0  0  0  0  0  0
   -7.2215   -2.4728   -1.1899 N   0  0  0  0  0  0  0  0  0  0  0  0
   -8.3281   -2.0993   -2.0198 C   0  0  0  0  0  0  0  0  0  0  0  0
   -7.1826   -1.7197    0.0250 C   0  0  0  0  0  0  0  0  0  0  0  0
   -6.8895   -0.2465   -0.1718 C   0  0  0  0  0  0  0  0  0  0  0  0
   -0.7294    1.7922   -2.4061 C   0  0  0  0  0  0  0  0  0  0  0  0
    0.6390    1.6253   -2.4290 C   0  0  0  0  0  0  0  0  0  0  0  0
    1.4055    1.5761   -1.2823 C   0  0  0  0  0  0  0  0  0  0  0  0
    0.7861    1.6983   -0.0434 C   0  0  0  0  0  0  0  0  0  0  0  0
    3.4280    0.5421    1.1961 N   0  0  0  0  0  0  0  0  0  0  0  0
    8.0540   -4.7443    0.0202 H   0  0  0  0  0  0  0  0  0  0  0  0
    7.1937   -4.5665   -1.5230 H   0  0  0  0  0  0  0  0  0  0  0  0
    8.7145   -3.6250   -1.2464 H   0  0  0  0  0  0  0  0  0  0  0  0
   10.7726   -1.4042    2.6337 H   0  0  0  0  0  0  0  0  0  0  0  0
   10.3136    0.3405    2.5374 H   0  0  0  0  0  0  0  0  0  0  0  0
    9.7346   -0.6737    3.9561 H   0  0  0  0  0  0  0  0  0  0  0  0
    7.4248    0.4742    2.7823 H   0  0  0  0  0  0  0  0  0  0  0  0
    4.9098   -1.3613    0.2738 H   0  0  0  0  0  0  0  0  0  0  0  0
    5.0680    2.8761    3.7243 H   0  0  0  0  0  0  0  0  0  0  0  0
    0.2491    1.8721    3.1345 H   0  0  0  0  0  0  0  0  0  0  0  0
   -1.9038    2.0815    1.6098 H   0  0  0  0  0  0  0  0  0  0  0  0
   -3.2006    3.0372   -1.1952 H   0  0  0  0  0  0  0  0  0  0  0  0
   -5.3724    1.7099   -0.0764 H   0  0  0  0  0  0  0  0  0  0  0  0
   -5.5094    3.0944   -1.8816 H   0  0  0  0  0  0  0  0  0  0  0  0
   -4.7509    1.9004   -2.9641 H   0  0  0  0  0  0  0  0  0  0  0  0
   -6.4788    1.7849   -2.5753 H   0  0  0  0  0  0  0  0  0  0  0  0
   -6.3030   -0.6221   -2.9479 H   0  0  0  0  0  0  0  0  0  0  0  0
   -4.6112   -0.8680   -2.5356 H   0  0  0  0  0  0  0  0  0  0  0  0
   -5.1753   -2.8237   -1.1978 H   0  0  0  0  0  0  0  0  0  0  0  0
   -6.0292   -2.8709   -2.8315 H   0  0  0  0  0  0  0  0  0  0  0  0
   -9.2553   -2.2787   -1.4245 H   0  0  0  0  0  0  0  0  0  0  0  0
   -8.3252   -2.7176   -2.9471 H   0  0  0  0  0  0  0  0  0  0  0  0
   -8.2559   -1.0205   -2.2882 H   0  0  0  0  0  0  0  0  0  0  0  0
   -6.4707   -2.1357    0.7415 H   0  0  0  0  0  0  0  0  0  0  0  0
   -8.2036   -1.7721    0.4808 H   0  0  0  0  0  0  0  0  0  0  0  0
   -6.6928    0.1766    0.8360 H   0  0  0  0  0  0  0  0  0  0  0  0
   -7.7861    0.2873   -0.5558 H   0  0  0  0  0  0  0  0  0  0  0  0
   -1.3151    1.8276   -3.3394 H   0  0  0  0  0  0  0  0  0  0  0  0
    1.1118    1.5311   -3.4023 H   0  0  0  0  0  0  0  0  0  0  0  0
    2.4736    1.4463   -1.2870 H   0  0  0  0  0  0  0  0  0  0  0  0
  1  2  1  0
  2  3  1  0
  3  4  2  0
  4  5  1  0
  5  6  1  0
  5  7  1  0
  7  8  2  0
  8  9  1  0
  9 10  1  0
 10 11  2  0
 11 12  1  0
 12 13  2  0
 13 14  1  0
 13 15  1  0
 15 16  1  0
 16 17  2  0
 17 18  1  0
 18 19  1  0
 19 20  2  0
 20 21  1  0
 21 22  1  0
 22 23  2  0
 22 24  1  0
 24 25  1  0
 24 26  1  0
 26 27  1  0
 27 28  1  0
 28 29  1  0
 29 30  1  0
 29 31  1  0
 31 32  1  0
 20 33  1  0
 33 34  2  0
 34 35  1  0
 35 36  2  0
 15 37  2  0
  8  3  1  0
 37 10  1  0
 36 16  1  0
 36 19  1  0
 32 26  1  0
  1 38  1  0
  1 39  1  0
  1 40  1  0
  6 41  1  0
  6 42  1  0
  6 43  1  0
  7 44  1  0
  9 45  1  0
 12 46  1  0
 17 47  1  0
 18 48  1  0
 21 49  1  0
 24 50  1  1
 25 51  1  0
 25 52  1  0
 25 53  1  0
 27 54  1  0
 27 55  1  0
 28 56  1  0
 28 57  1  0
 30 58  1  0
 30 59  1  0
 30 60  1  0
 31 61  1  0
 31 62  1  0
 32 63  1  0
 32 64  1  0
 33 65  1  0
 34 66  1  0
 35 67  1  0
M  END
$$$$
