@<TRIPOS>MOLECULE
*****
 67 71 0 0 0
SMALL
GASTEIGER

@<TRIPOS>ATOM
      1 C           7.7892   -4.0171   -0.7750 C.3     1  UNL1        0.0805
      2 O           7.0034   -2.9847   -0.2386 O.3     1  UNL1       -0.4774
      3 C           7.4826   -2.0801    0.6998 C.ar    1  UNL1        0.2552
      4 N           8.7058   -2.0224    1.2399 N.ar    1  UNL1       -0.1317
      5 N           8.7931   -1.0377    2.0867 N.ar    1  UNL1       -0.2692
      6 C           9.9778   -0.6763    2.8618 C.3     1  UNL1        0.0304
      7 C           7.6028   -0.3799    2.1496 C.ar    1  UNL1        0.0503
      8 C           6.7631   -1.0266    1.2782 C.ar    1  UNL1        0.1152
      9 N           5.4126   -0.7369    0.9738 N.pl3   1  UNL1       -0.2782
     10 C           4.7286    0.3470    1.5697 C.ar    1  UNL1        0.2202
     11 N           5.2715    1.1817    2.4563 N.ar    1  UNL1       -0.2212
     12 C           4.5815    2.2180    3.0012 C.ar    1  UNL1        0.0516
     13 C           3.2753    2.3777    2.5964 C.ar    1  UNL1        0.0851
     14 CL          2.3467    3.6924    3.2670 Cl      1  UNL1       -0.0797
     15 C           2.6762    1.5400    1.6849 C.ar    1  UNL1        0.0963
     16 C           1.3016    1.6799    1.2370 C.ar    1  UNL1        0.0270
     17 C           0.1849    1.8435    2.0617 C.ar    1  UNL1        0.0120
     18 N          -0.9097    1.9502    1.2961 N.ar    1  UNL1       -0.3586
     19 C          -0.5827    1.8651   -0.0237 C.ar    1  UNL1        0.0686
     20 C          -1.3402    1.9133   -1.1773 C.ar    1  UNL1        0.0576
     21 N          -2.7466    2.0979   -1.1459 N.am    1  UNL1       -0.2825
     22 C          -3.6114    0.9789   -1.0435 C.2     1  UNL1        0.2342
     23 O          -3.1155   -0.1639   -0.9805 O.2     1  UNL1       -0.2738
     24 C          -5.0792    1.1349   -1.0092 C.3     1  UNL1        0.0848
     25 C          -5.5056    2.0372   -2.1491 C.3     1  UNL1       -0.0409
     26 N          -5.7284   -0.0999   -0.9664 N.3     1  UNL1       -0.2893
     27 C          -5.6264   -0.9125   -2.1108 C.3     1  UNL1        0.0124
     28 C          -5.9391   -2.3715   -1.8411 C.3     1  UNL1        0.0114
     29 N          -7.2215   -2.4728   -1.1899 N.3     1  UNL1       -0.3029
     30 C          -8.3281   -2.0993   -2.0198 C.3     1  UNL1       -0.0127
     31 C          -7.1826   -1.7197    0.0250 C.3     1  UNL1        0.0114
     32 C          -6.8895   -0.2465   -0.1718 C.3     1  UNL1        0.0124
     33 C          -0.7294    1.7922   -2.4061 C.ar    1  UNL1       -0.0384
     34 C           0.6390    1.6253   -2.4290 C.ar    1  UNL1       -0.0593
     35 C           1.4055    1.5761   -1.2823 C.ar    1  UNL1       -0.0518
     36 C           0.7861    1.6983   -0.0434 C.ar    1  UNL1        0.0107
     37 N           3.4280    0.5421    1.1961 N.ar    1  UNL1       -0.2127
     38 H           8.0540   -4.7443    0.0202 H       1  UNL1        0.0660
     39 H           7.1937   -4.5665   -1.5230 H       1  UNL1        0.0660
     40 H           8.7145   -3.6250   -1.2464 H       1  UNL1        0.0660
     41 H          10.7726   -1.4042    2.6337 H       1  UNL1        0.0473
     42 H          10.3136    0.3405    2.5374 H       1  UNL1        0.0473
     43 H           9.7346   -0.6737    3.9561 H       1  UNL1        0.0473
     44 H           7.4248    0.4742    2.7823 H       1  UNL1        0.0846
     45 H           4.9098   -1.3613    0.2738 H       1  UNL1        0.1552
     46 H           5.0680    2.8761    3.7243 H       1  UNL1        0.0846
     47 H           0.2491    1.8721    3.1345 H       1  UNL1        0.0814
     48 H          -1.9038    2.0815    1.6098 H       1  UNL1        0.1654
     49 H          -3.2006    3.0372   -1.1952 H       1  UNL1        0.1549
     50 H          -5.3724    1.7099   -0.0764 H       1  UNL1        0.0556
     51 H          -5.5094    3.0944   -1.8816 H       1  UNL1        0.0249
     52 H          -4.7509    1.9004   -2.9641 H       1  UNL1        0.0249
     53 H          -6.4788    1.7849   -2.5753 H       1  UNL1        0.0249
     54 H          -6.3030   -0.6221   -2.9479 H       1  UNL1        0.0439
     55 H          -4.6112   -0.8680   -2.5356 H       1  UNL1        0.0439
     56 H          -5.1753   -2.8237   -1.1978 H       1  UNL1        0.0439
     57 H          -6.0292   -2.8709   -2.8315 H       1  UNL1        0.0439
     58 H          -9.2553   -2.2787   -1.4245 H       1  UNL1        0.0391
     59 H          -8.3252   -2.7176   -2.9471 H       1  UNL1        0.0391
     60 H          -8.2559   -1.0205   -2.2882 H       1  UNL1        0.0391
     61 H          -6.4707   -2.1357    0.7415 H       1  UNL1        0.0439
     62 H          -8.2036   -1.7721    0.4808 H       1  UNL1        0.0439
     63 H          -6.6928    0.1766    0.8360 H       1  UNL1        0.0439
     64 H          -7.7861    0.2873   -0.5558 H       1  UNL1        0.0439
     65 H          -1.3151    1.8276   -3.3394 H       1  UNL1        0.0637
     66 H           1.1118    1.5311   -3.4023 H       1  UNL1        0.0618
     67 H           2.4736    1.4463   -1.2870 H       1  UNL1        0.0624
@<TRIPOS>BOND
     1     1     2    1
     2     2     3    1
     3     3     4   ar
     4     4     5   ar
     5     5     6    1
     6     5     7   ar
     7     7     8   ar
     8     8     9    1
     9     9    10    1
    10    10    11   ar
    11    11    12   ar
    12    12    13   ar
    13    13    14    1
    14    13    15   ar
    15    15    16    1
    16    16    17   ar
    17    17    18   ar
    18    18    19   ar
    19    19    20   ar
    20    20    21    1
    21    21    22   am
    22    22    23    2
    23    22    24    1
    24    24    25    1
    25    24    26    1
    26    26    27    1
    27    27    28    1
    28    28    29    1
    29    29    30    1
    30    29    31    1
    31    31    32    1
    32    20    33   ar
    33    33    34   ar
    34    34    35   ar
    35    35    36   ar
    36    15    37   ar
    37     8     3   ar
    38    37    10   ar
    39    36    16   ar
    40    36    19   ar
    41    32    26    1
    42     1    38    1
    43     1    39    1
    44     1    40    1
    45     6    41    1
    46     6    42    1
    47     6    43    1
    48     7    44    1
    49     9    45    1
    50    12    46    1
    51    17    47    1
    52    18    48    1
    53    21    49    1
    54    24    50    1
    55    25    51    1
    56    25    52    1
    57    25    53    1
    58    27    54    1
    59    27    55    1
    60    28    56    1
    61    28    57    1
    62    30    58    1
    63    30    59    1
    64    30    60    1
    65    31    61    1
    66    31    62    1
    67    32    63    1
    68    32    64    1
    69    33    65    1
    70    34    66    1
    71    35    67    1
