@<TRIPOS>MOLECULE
*****
 73 76 0 0 0
SMALL
GASTEIGER

@<TRIPOS>ATOM
      1 C           0.5775    0.9944   -2.5623 C.3     1  UNL1       -0.0421
      2 C           1.0203   -0.2550   -1.7482 C.3     1  UNL1        0.0515
      3 C           2.2694    0.0575   -1.0358 C.ar    1  UNL1       -0.0271
      4 C           3.4279   -0.6661   -1.3199 C.ar    1  UNL1       -0.0562
      5 C           4.6339   -0.4120   -0.7080 C.ar    1  UNL1       -0.0537
      6 C           4.7614    0.5872    0.2326 C.ar    1  UNL1       -0.0165
      7 C           6.0418    0.8643    0.8942 C.ar    1  UNL1       -0.0015
      8 C           6.4233    2.1172    1.3210 C.ar    1  UNL1       -0.0475
      9 C           7.6219    2.3804    1.9443 C.ar    1  UNL1        0.0036
     10 C           8.4937    1.3277    2.1543 C.ar    1  UNL1        0.2511
     11 O           9.5847    1.5685    2.7217 O.2     1  UNL1       -0.2677
     12 N           8.1425    0.0867    1.7444 N.ar    1  UNL1       -0.3177
     13 C           9.0960   -0.9792    1.9920 C.3     1  UNL1        0.0147
     14 C           6.9572   -0.1487    1.1329 C.ar    1  UNL1        0.0153
     15 C           3.6240    1.3125    0.5242 C.ar    1  UNL1       -0.0537
     16 C           2.3980    1.0546   -0.0978 C.ar    1  UNL1       -0.0562
     17 N          -0.0786   -0.6952   -0.9250 N.am    1  UNL1       -0.2605
     18 C          -0.5632    0.0076    0.2303 C.3     1  UNL1        0.0224
     19 C          -1.7017   -0.7532    0.8493 C.3     1  UNL1        0.0075
     20 C          -2.7503   -1.2404   -0.0676 C.3     1  UNL1        0.1431
     21 C          -3.5364   -0.2841   -0.8409 C.3     1  UNL1        0.0109
     22 C          -4.3815    0.7464   -0.2459 C.3     1  UNL1        0.0380
     23 C          -3.7518    1.7729    0.6295 C.3     1  UNL1       -0.0453
     24 C          -5.4989    0.1289    0.6428 C.3     1  UNL1       -0.0453
     25 N          -5.1436    1.4101   -1.2685 N.3     1  UNL1       -0.1891
     26 S          -4.3757    2.0860   -2.5840 S.O2    1  UNL1        0.0270
     27 C          -3.2610    3.3625   -2.0539 C.3     1  UNL1        0.0705
     28 O          -3.5643    1.1321   -3.4328 O.2     1  UNL1       -0.1585
     29 O          -5.3691    2.8265   -3.5001 O.2     1  UNL1       -0.1585
     30 C          -3.5822   -2.2677    0.6655 C.ar    1  UNL1       -0.0041
     31 C          -4.5872   -2.9357    0.0183 C.ar    1  UNL1       -0.0548
     32 C          -5.3686   -3.8707    0.6178 C.ar    1  UNL1       -0.0614
     33 C          -5.1649   -4.1873    1.9475 C.ar    1  UNL1       -0.0617
     34 C          -4.1437   -3.5046    2.5954 C.ar    1  UNL1       -0.0614
     35 C          -3.3619   -2.5617    1.9770 C.ar    1  UNL1       -0.0548
     36 O          -2.0639   -2.0595   -1.0491 O.3     1  UNL1       -0.4388
     37 C          -0.7129   -1.9142   -1.2758 C.2     1  UNL1        0.4042
     38 O          -0.0897   -2.8861   -1.7941 O.2     1  UNL1       -0.2262
     39 H          -0.1737    0.7273   -3.3036 H       1  UNL1        0.0251
     40 H           0.1621    1.6864   -1.7907 H       1  UNL1        0.0251
     41 H           1.4765    1.4983   -2.9727 H       1  UNL1        0.0251
     42 H           1.2018   -1.0019   -2.5343 H       1  UNL1        0.0549
     43 H           3.3277   -1.4510   -2.0589 H       1  UNL1        0.0621
     44 H           5.5334   -0.9865   -0.9398 H       1  UNL1        0.0624
     45 H           5.7461    2.9386    1.1580 H       1  UNL1        0.0626
     46 H           7.8916    3.3768    2.2678 H       1  UNL1        0.0672
     47 H           9.7230   -1.1297    1.0841 H       1  UNL1        0.0457
     48 H           9.7595   -0.7212    2.8267 H       1  UNL1        0.0457
     49 H           8.5633   -1.9400    2.1704 H       1  UNL1        0.0457
     50 H           6.7339   -1.1575    0.8296 H       1  UNL1        0.0816
     51 H           3.7247    2.1072    1.2706 H       1  UNL1        0.0624
     52 H           1.5512    1.6738    0.1698 H       1  UNL1        0.0621
     53 H           0.2714   -0.0699    1.0046 H       1  UNL1        0.0467
     54 H          -0.8099    1.0518    0.0281 H       1  UNL1        0.0467
     55 H          -2.0246   -0.2259    1.7512 H       1  UNL1        0.0322
     56 H          -1.1998   -1.6990    1.2624 H       1  UNL1        0.0322
     57 H          -4.1525   -0.8238   -1.6143 H       1  UNL1        0.0325
     58 H          -2.7748    0.2692   -1.4856 H       1  UNL1        0.0325
     59 H          -3.6942    1.4625    1.6991 H       1  UNL1        0.0248
     60 H          -4.4871    2.6373    0.6653 H       1  UNL1        0.0248
     61 H          -2.8268    2.2124    0.2576 H       1  UNL1        0.0248
     62 H          -5.0643   -0.2995    1.5588 H       1  UNL1        0.0248
     63 H          -6.1589   -0.5257    0.0630 H       1  UNL1        0.0248
     64 H          -6.1594    0.9704    1.0100 H       1  UNL1        0.0248
     65 H          -5.7987    2.0895   -0.8474 H       1  UNL1        0.1482
     66 H          -3.6663    3.9020   -1.1836 H       1  UNL1        0.0479
     67 H          -2.2278    2.9776   -1.8902 H       1  UNL1        0.0479
     68 H          -3.1413    4.1242   -2.8843 H       1  UNL1        0.0479
     69 H          -4.7721   -2.7037   -1.0423 H       1  UNL1        0.0622
     70 H          -6.1518   -4.3656    0.0471 H       1  UNL1        0.0618
     71 H          -5.7796   -4.9285    2.4327 H       1  UNL1        0.0618
     72 H          -4.0187   -3.7846    3.6383 H       1  UNL1        0.0618
     73 H          -2.6068   -2.0941    2.5816 H       1  UNL1        0.0622
@<TRIPOS>BOND
     1     1     2    1
     2     2     3    1
     3     3     4   ar
     4     4     5   ar
     5     5     6   ar
     6     6     7    1
     7     7     8   ar
     8     8     9   ar
     9     9    10   ar
    10    10    11    2
    11    10    12   ar
    12    12    13    1
    13    12    14   ar
    14     6    15   ar
    15    15    16   ar
    16     2    17    1
    17    17    18    1
    18    18    19    1
    19    19    20    1
    20    20    21    1
    21    21    22    1
    22    22    23    1
    23    22    24    1
    24    22    25    1
    25    25    26    1
    26    26    27    1
    27    26    28    2
    28    26    29    2
    29    20    30    1
    30    30    31   ar
    31    31    32   ar
    32    32    33   ar
    33    33    34   ar
    34    34    35   ar
    35    20    36    1
    36    36    37    1
    37    37    38    2
    38    16     3   ar
    39    37    17   am
    40    14     7   ar
    41    35    30   ar
    42     1    39    1
    43     1    40    1
    44     1    41    1
    45     2    42    1
    46     4    43    1
    47     5    44    1
    48     8    45    1
    49     9    46    1
    50    13    47    1
    51    13    48    1
    52    13    49    1
    53    14    50    1
    54    15    51    1
    55    16    52    1
    56    18    53    1
    57    18    54    1
    58    19    55    1
    59    19    56    1
    60    21    57    1
    61    21    58    1
    62    23    59    1
    63    23    60    1
    64    23    61    1
    65    24    62    1
    66    24    63    1
    67    24    64    1
    68    25    65    1
    69    27    66    1
    70    27    67    1
    71    27    68    1
    72    31    69    1
    73    32    70    1
    74    33    71    1
    75    34    72    1
    76    35    73    1
