@<TRIPOS>MOLECULE
*****
 63 68 0 0 0
SMALL
GASTEIGER

@<TRIPOS>ATOM
      1 C          -2.1603    0.9828   -1.2015 C.3     1  UNL1        0.0241
      2 C          -3.3772    0.1223   -1.0432 C.3     1  UNL1       -0.0108
      3 C          -3.1481   -1.0485   -0.1658 C.ar    1  UNL1       -0.0383
      4 C          -2.1479   -1.1226    0.7567 C.ar    1  UNL1        0.0118
      5 C          -1.7895   -2.1181    1.6096 C.ar    1  UNL1        0.1664
      6 O          -0.6876   -1.6296    2.3096 O.3     1  UNL1       -0.4807
      7 C          -0.1556   -0.4804    1.6870 C.3     1  UNL1        0.1435
      8 C          -1.3048    0.0975    0.8730 C.3     1  UNL1        0.0511
      9 C          -2.0535    1.1346    1.6120 C.3     1  UNL1       -0.0260
     10 C          -2.7361    2.1361    0.7744 C.3     1  UNL1       -0.0001
     11 N          -2.3167    2.2827   -0.5747 N.3     1  UNL1       -0.3012
     12 C          -3.1825    3.1538   -1.2973 C.3     1  UNL1       -0.0124
     13 C          -0.9377    0.3972   -0.5488 C.3     1  UNL1        0.0184
     14 C           0.2595    1.2470   -0.6191 C.3     1  UNL1       -0.0330
     15 C           1.3720    0.5931    0.1877 C.3     1  UNL1        0.0247
     16 C           2.6582    0.7266   -0.5261 C.3     1  UNL1        0.0692
     17 C           2.8776    2.2519   -0.6683 C.3     1  UNL1       -0.0357
     18 O           2.5894    0.3036   -1.8643 O.3     1  UNL1       -0.3885
     19 C           3.8616    0.2003    0.1560 C.3     1  UNL1       -0.0241
     20 C           5.1446    0.4084   -0.6437 C.3     1  UNL1       -0.0533
     21 C           5.0901   -0.2830   -1.9788 C.3     1  UNL1       -0.0652
     22 C           0.9667   -0.7473    0.7091 C.3     1  UNL1        0.1301
     23 O           1.9685   -1.4064    1.3364 O.3     1  UNL1       -0.3685
     24 C           1.7451   -2.6192    1.8960 C.3     1  UNL1        0.0377
     25 C           0.3184   -1.5814   -0.3783 C.2     1  UNL1       -0.0520
     26 C          -0.5768   -0.9367   -1.1614 C.2     1  UNL1       -0.0765
     27 C          -2.5972   -3.2412    1.5071 C.ar    1  UNL1        0.1588
     28 O          -2.2573   -4.2930    2.3760 O.3     1  UNL1       -0.5033
     29 C          -3.6513   -3.2960    0.6091 C.ar    1  UNL1       -0.0162
     30 C          -3.9276   -2.2039   -0.2262 C.ar    1  UNL1       -0.0546
     31 H          -1.9881    1.1536   -2.2782 H       1  UNL1        0.0474
     32 H          -3.6653   -0.3149   -2.0401 H       1  UNL1        0.0329
     33 H          -4.2173    0.7541   -0.7025 H       1  UNL1        0.0329
     34 H           0.1277    0.2479    2.4730 H       1  UNL1        0.0775
     35 H          -1.4528    1.6161    2.4281 H       1  UNL1        0.0288
     36 H          -2.8723    0.6090    2.2033 H       1  UNL1        0.0288
     37 H          -3.8481    2.0566    0.7826 H       1  UNL1        0.0427
     38 H          -2.5611    3.1469    1.2696 H       1  UNL1        0.0427
     39 H          -2.5413    4.0086   -1.6618 H       1  UNL1        0.0391
     40 H          -3.4915    2.6264   -2.2262 H       1  UNL1        0.0391
     41 H          -4.0513    3.5271   -0.7525 H       1  UNL1        0.0391
     42 H           0.6320    1.2738   -1.6853 H       1  UNL1        0.0279
     43 H           0.0095    2.2677   -0.2709 H       1  UNL1        0.0279
     44 H           1.4562    1.2513    1.1090 H       1  UNL1        0.0361
     45 H           2.8322    2.6648    0.3492 H       1  UNL1        0.0257
     46 H           3.7642    2.4887   -1.2548 H       1  UNL1        0.0257
     47 H           2.0027    2.7097   -1.2073 H       1  UNL1        0.0257
     48 H           2.1492   -0.5459   -2.0013 H       1  UNL1        0.2102
     49 H           3.8264   -0.9322    0.2297 H       1  UNL1        0.0293
     50 H           3.9891    0.6417    1.1539 H       1  UNL1        0.0293
     51 H           5.4352    1.4542   -0.7034 H       1  UNL1        0.0264
     52 H           5.9318   -0.1015   -0.0474 H       1  UNL1        0.0264
     53 H           4.7172    0.3805   -2.7933 H       1  UNL1        0.0230
     54 H           4.4469   -1.1806   -1.9583 H       1  UNL1        0.0230
     55 H           6.1025   -0.6174   -2.3184 H       1  UNL1        0.0230
     56 H           1.3722   -3.3491    1.1186 H       1  UNL1        0.0524
     57 H           1.2334   -2.6721    2.8526 H       1  UNL1        0.0524
     58 H           2.7933   -3.0479    2.0983 H       1  UNL1        0.0524
     59 H           0.5066   -2.6431   -0.5844 H       1  UNL1        0.0599
     60 H          -0.9354   -1.3798   -2.0814 H       1  UNL1        0.0576
     61 H          -2.5381   -4.2164    3.3498 H       1  UNL1        0.2923
     62 H          -4.2547   -4.2106    0.5739 H       1  UNL1        0.0655
     63 H          -4.7545   -2.2556   -0.9266 H       1  UNL1        0.0622
@<TRIPOS>BOND
     1     1     2    1
     2     2     3    1
     3     3     4   ar
     4     4     5   ar
     5     5     6    1
     6     6     7    1
     7     7     8    1
     8     8     9    1
     9     9    10    1
    10    10    11    1
    11    11    12    1
    12     8    13    1
    13    13    14    1
    14    14    15    1
    15    15    16    1
    16    16    17    1
    17    16    18    1
    18    16    19    1
    19    19    20    1
    20    20    21    1
    21    15    22    1
    22    22    23    1
    23    23    24    1
    24    22    25    1
    25    25    26    2
    26     5    27   ar
    27    27    28    1
    28    27    29   ar
    29    29    30   ar
    30    11     1    1
    31    26    13    1
    32    13     1    1
    33    30     3   ar
    34     8     4    1
    35    22     7    1
    36     1    31    1
    37     2    32    1
    38     2    33    1
    39     7    34    1
    40     9    35    1
    41     9    36    1
    42    10    37    1
    43    10    38    1
    44    12    39    1
    45    12    40    1
    46    12    41    1
    47    14    42    1
    48    14    43    1
    49    15    44    1
    50    17    45    1
    51    17    46    1
    52    17    47    1
    53    18    48    1
    54    19    49    1
    55    19    50    1
    56    20    51    1
    57    20    52    1
    58    21    53    1
    59    21    54    1
    60    21    55    1
    61    24    56    1
    62    24    57    1
    63    24    58    1
    64    25    59    1
    65    26    60    1
    66    28    61    1
    67    29    62    1
    68    30    63    1
