
     RDKit          3D

 56 58  0  0  0  0  0  0  0  0999 V2000
   -6.7603    1.0109    1.3398 C   0  0  0  0  0  0  0  0  0  0  0  0
   -6.3120   -0.3674    0.9156 C   0  0  0  0  0  0  0  0  0  0  0  0
   -7.4406   -1.3611    1.0968 C   0  0  0  0  0  0  0  0  0  0  0  0
   -5.2535   -0.8271    1.7155 O   0  0  0  0  0  0  0  0  0  0  0  0
   -4.6674   -1.7554    0.8265 C   0  0  0  0  0  0  0  0  0  0  0  0
   -4.6057   -0.9368   -0.4260 C   0  0  2  0  0  0  0  0  0  0  0  0
   -3.5913    0.2046   -0.3041 C   0  0  1  0  0  0  0  0  0  0  0  0
   -2.2267   -0.4100   -0.3268 C   0  0  0  0  0  0  0  0  0  0  0  0
   -0.9330    0.7961   -0.1948 S   0  0  0  0  0  6  0  0  0  0  0  0
   -1.0437    1.8362   -1.2872 O   0  0  0  0  0  0  0  0  0  0  0  0
   -1.0609    1.5199    1.1145 O   0  0  0  0  0  0  0  0  0  0  0  0
    0.6273    0.0146   -0.2273 C   0  0  0  0  0  0  0  0  0  0  0  0
    1.2681   -0.1845   -1.4388 C   0  0  0  0  0  0  0  0  0  0  0  0
    2.4978   -0.8058   -1.4157 C   0  0  0  0  0  0  0  0  0  0  0  0
    3.0668   -1.2137   -0.2241 C   0  0  0  0  0  0  0  0  0  0  0  0
    4.3133   -1.8467   -0.1690 O   0  0  0  0  0  0  0  0  0  0  0  0
    5.4149   -1.0247   -0.0326 C   0  0  0  0  0  0  0  0  0  0  0  0
    5.8610   -0.6991    1.2084 C   0  0  0  0  0  0  0  0  0  0  0  0
    6.9558    0.1177    1.3618 C   0  0  0  0  0  0  0  0  0  0  0  0
    7.5968    0.6035    0.2395 C   0  0  0  0  0  0  0  0  0  0  0  0
    8.6930    1.4213    0.4274 O   0  0  0  0  0  0  0  0  0  0  0  0
    9.9702    0.7919    0.5098 C   0  0  0  0  0  0  0  0  0  0  0  0
   10.2363    0.0960   -0.6590 F   0  0  0  0  0  0  0  0  0  0  0  0
    9.9120   -0.0855    1.5795 F   0  0  0  0  0  0  0  0  0  0  0  0
   10.9297    1.7499    0.7364 F   0  0  0  0  0  0  0  0  0  0  0  0
    7.1472    0.2755   -1.0083 C   0  0  0  0  0  0  0  0  0  0  0  0
    6.0374   -0.5527   -1.1515 C   0  0  0  0  0  0  0  0  0  0  0  0
    2.4053   -1.0022    0.9683 C   0  0  0  0  0  0  0  0  0  0  0  0
    1.1747   -0.3831    0.9715 C   0  0  0  0  0  0  0  0  0  0  0  0
   -3.7480    1.1470   -1.3870 N   0  0  0  0  0  0  0  0  0  0  0  0
   -4.0088    2.4635   -1.1137 O   0  0  0  0  0  0  0  0  0  0  0  0
   -3.6458    0.7839   -2.7498 C   0  0  0  0  0  0  0  0  0  0  0  0
   -3.4081   -0.4041   -3.1160 O   0  0  0  0  0  0  0  0  0  0  0  0
   -5.8650   -0.2936   -0.3760 O   0  0  0  0  0  0  0  0  0  0  0  0
   -7.0358    1.6287    0.4612 H   0  0  0  0  0  0  0  0  0  0  0  0
   -6.0063    1.5178    1.9847 H   0  0  0  0  0  0  0  0  0  0  0  0
   -7.6775    0.8883    1.9503 H   0  0  0  0  0  0  0  0  0  0  0  0
   -7.4342   -2.1652    0.3544 H   0  0  0  0  0  0  0  0  0  0  0  0
   -8.4230   -0.8289    1.0910 H   0  0  0  0  0  0  0  0  0  0  0  0
   -7.3953   -1.8613    2.1054 H   0  0  0  0  0  0  0  0  0  0  0  0
   -3.7306   -2.1617    1.1842 H   0  0  0  0  0  0  0  0  0  0  0  0
   -5.4159   -2.5581    0.6512 H   0  0  0  0  0  0  0  0  0  0  0  0
   -4.4594   -1.5046   -1.3427 H   0  0  0  0  0  0  0  0  0  0  0  0
   -3.7168    0.7300    0.6571 H   0  0  0  0  0  0  0  0  0  0  0  0
   -2.1326   -1.0620    0.5746 H   0  0  0  0  0  0  0  0  0  0  0  0
   -2.0964   -0.9492   -1.2640 H   0  0  0  0  0  0  0  0  0  0  0  0
    0.8114    0.1416   -2.3836 H   0  0  0  0  0  0  0  0  0  0  0  0
    3.0404   -0.9851   -2.3366 H   0  0  0  0  0  0  0  0  0  0  0  0
    5.3617   -1.0777    2.0993 H   0  0  0  0  0  0  0  0  0  0  0  0
    7.2987    0.3678    2.3345 H   0  0  0  0  0  0  0  0  0  0  0  0
    7.6555    0.6606   -1.8831 H   0  0  0  0  0  0  0  0  0  0  0  0
    5.7282   -0.7774   -2.1562 H   0  0  0  0  0  0  0  0  0  0  0  0
    2.8082   -1.3025    1.9257 H   0  0  0  0  0  0  0  0  0  0  0  0
    0.6546   -0.2183    1.9245 H   0  0  0  0  0  0  0  0  0  0  0  0
   -3.6076    3.0536   -1.7837 H   0  0  0  0  0  0  0  0  0  0  0  0
   -3.7642    1.4968   -3.5518 H   0  0  0  0  0  0  0  0  0  0  0  0
  1  2  1  0
  2  3  1  0
  2  4  1  0
  4  5  1  0
  5  6  1  0
  6  7  1  0
  7  8  1  0
  8  9  1  0
  9 10  2  0
  9 11  2  0
  9 12  1  0
 12 13  2  0
 13 14  1  0
 14 15  2  0
 15 16  1  0
 16 17  1  0
 17 18  2  0
 18 19  1  0
 19 20  2  0
 20 21  1  0
 21 22  1  0
 22 23  1  0
 22 24  1  0
 22 25  1  0
 20 26  1  0
 26 27  2  0
 15 28  1  0
 28 29  2  0
  7 30  1  0
 30 31  1  0
 30 32  1  0
 32 33  2  0
  6 34  1  0
 34  2  1  0
 29 12  1  0
 27 17  1  0
  1 35  1  0
  1 36  1  0
  1 37  1  0
  3 38  1  0
  3 39  1  0
  3 40  1  0
  5 41  1  0
  5 42  1  0
  6 43  1  6
  7 44  1  1
  8 45  1  0
  8 46  1  0
 13 47  1  0
 14 48  1  0
 18 49  1  0
 19 50  1  0
 26 51  1  0
 27 52  1  0
 28 53  1  0
 29 54  1  0
 31 55  1  0
 32 56  1  0
M  END
$$$$
