@<TRIPOS>MOLECULE
*****
 56 58 0 0 0
SMALL
GASTEIGER

@<TRIPOS>ATOM
      1 C          -6.7603    1.0109    1.3398 C.3     1  UNL1       -0.0108
      2 C          -6.3120   -0.3674    0.9156 C.3     1  UNL1        0.1651
      3 C          -7.4406   -1.3611    1.0968 C.3     1  UNL1       -0.0108
      4 O          -5.2535   -0.8271    1.7155 O.3     1  UNL1       -0.3465
      5 C          -4.6674   -1.7554    0.8265 C.3     1  UNL1        0.0791
      6 C          -4.6057   -0.9368   -0.4260 C.3     1  UNL1        0.1076
      7 C          -3.5913    0.2046   -0.3041 C.3     1  UNL1        0.1005
      8 C          -2.2267   -0.4100   -0.3268 C.3     1  UNL1        0.0942
      9 S          -0.9330    0.7961   -0.1948 S.O2    1  UNL1       -0.0012
     10 O          -1.0437    1.8362   -1.2872 O.2     1  UNL1       -0.1693
     11 O          -1.0609    1.5199    1.1145 O.2     1  UNL1       -0.1693
     12 C           0.6273    0.0146   -0.2273 C.ar    1  UNL1        0.0885
     13 C           1.2681   -0.1845   -1.4388 C.ar    1  UNL1       -0.0334
     14 C           2.4978   -0.8058   -1.4157 C.ar    1  UNL1       -0.0175
     15 C           3.0668   -1.2137   -0.2241 C.ar    1  UNL1        0.1285
     16 O           4.3133   -1.8467   -0.1690 O.3     1  UNL1       -0.4560
     17 C           5.4149   -1.0247   -0.0326 C.ar    1  UNL1        0.1287
     18 C           5.8610   -0.6991    1.2084 C.ar    1  UNL1       -0.0159
     19 C           6.9558    0.1177    1.3618 C.ar    1  UNL1       -0.0162
     20 C           7.5968    0.6035    0.2395 C.ar    1  UNL1        0.1302
     21 O           8.6930    1.4213    0.4274 O.3     1  UNL1       -0.4057
     22 C           9.9702    0.7919    0.5098 C.3     1  UNL1        0.5752
     23 F          10.2363    0.0960   -0.6590 F       1  UNL1       -0.1328
     24 F           9.9120   -0.0855    1.5795 F       1  UNL1       -0.1328
     25 F          10.9297    1.7499    0.7364 F       1  UNL1       -0.1328
     26 C           7.1472    0.2755   -1.0083 C.ar    1  UNL1       -0.0162
     27 C           6.0374   -0.5527   -1.1515 C.ar    1  UNL1       -0.0159
     28 C           2.4053   -1.0022    0.9683 C.ar    1  UNL1       -0.0175
     29 C           1.1747   -0.3831    0.9715 C.ar    1  UNL1       -0.0334
     30 N          -3.7480    1.1470   -1.3870 N.am    1  UNL1       -0.1791
     31 O          -4.0088    2.4635   -1.1137 O.3     1  UNL1       -0.2923
     32 C          -3.6458    0.7839   -2.7498 C.2     1  UNL1        0.2254
     33 O          -3.4081   -0.4041   -3.1160 O.2     1  UNL1       -0.2772
     34 O          -5.8650   -0.2936   -0.3760 O.3     1  UNL1       -0.3417
     35 H          -7.0358    1.6287    0.4612 H       1  UNL1        0.0281
     36 H          -6.0063    1.5178    1.9847 H       1  UNL1        0.0281
     37 H          -7.6775    0.8883    1.9503 H       1  UNL1        0.0281
     38 H          -7.4342   -2.1652    0.3544 H       1  UNL1        0.0281
     39 H          -8.4230   -0.8289    1.0910 H       1  UNL1        0.0281
     40 H          -7.3953   -1.8613    2.1054 H       1  UNL1        0.0281
     41 H          -3.7306   -2.1617    1.1842 H       1  UNL1        0.0587
     42 H          -5.4159   -2.5581    0.6512 H       1  UNL1        0.0587
     43 H          -4.4594   -1.5046   -1.3427 H       1  UNL1        0.0640
     44 H          -3.7168    0.7300    0.6571 H       1  UNL1        0.0568
     45 H          -2.1326   -1.0620    0.5746 H       1  UNL1        0.0524
     46 H          -2.0964   -0.9492   -1.2640 H       1  UNL1        0.0524
     47 H           0.8114    0.1416   -2.3836 H       1  UNL1        0.0638
     48 H           3.0404   -0.9851   -2.3366 H       1  UNL1        0.0655
     49 H           5.3617   -1.0777    2.0993 H       1  UNL1        0.0655
     50 H           7.2987    0.3678    2.3345 H       1  UNL1        0.0655
     51 H           7.6555    0.6606   -1.8831 H       1  UNL1        0.0655
     52 H           5.7282   -0.7774   -2.1562 H       1  UNL1        0.0655
     53 H           2.8082   -1.3025    1.9257 H       1  UNL1        0.0655
     54 H           0.6546   -0.2183    1.9245 H       1  UNL1        0.0638
     55 H          -3.6076    3.0536   -1.7837 H       1  UNL1        0.2417
     56 H          -3.7642    1.4968   -3.5518 H       1  UNL1        0.1274
@<TRIPOS>BOND
     1     1     2    1
     2     2     3    1
     3     2     4    1
     4     4     5    1
     5     5     6    1
     6     6     7    1
     7     7     8    1
     8     8     9    1
     9     9    10    2
    10     9    11    2
    11     9    12    1
    12    12    13   ar
    13    13    14   ar
    14    14    15   ar
    15    15    16    1
    16    16    17    1
    17    17    18   ar
    18    18    19   ar
    19    19    20   ar
    20    20    21    1
    21    21    22    1
    22    22    23    1
    23    22    24    1
    24    22    25    1
    25    20    26   ar
    26    26    27   ar
    27    15    28   ar
    28    28    29   ar
    29     7    30    1
    30    30    31    1
    31    30    32   am
    32    32    33    2
    33     6    34    1
    34    34     2    1
    35    29    12   ar
    36    27    17   ar
    37     1    35    1
    38     1    36    1
    39     1    37    1
    40     3    38    1
    41     3    39    1
    42     3    40    1
    43     5    41    1
    44     5    42    1
    45     6    43    1
    46     7    44    1
    47     8    45    1
    48     8    46    1
    49    13    47    1
    50    14    48    1
    51    18    49    1
    52    19    50    1
    53    26    51    1
    54    27    52    1
    55    28    53    1
    56    29    54    1
    57    31    55    1
    58    32    56    1
