@<TRIPOS>MOLECULE
*****
 27 27 0 0 0
SMALL
GASTEIGER

@<TRIPOS>ATOM
      1 C          -0.8327   -0.5373    0.0653 C.3     1  UNL1        0.0323
      2 C          -0.8582   -1.6412   -0.9978 C.3     1  UNL1       -0.0454
      3 N          -1.8036    0.4717   -0.2917 N.3     1  UNL1       -0.3017
      4 C          -3.0748   -0.2385   -0.5222 C.3     1  UNL1       -0.0125
      5 C          -2.1048    1.3446    0.8502 C.3     1  UNL1       -0.0125
      6 C           0.5589   -0.0323    0.1232 C.ar    1  UNL1       -0.0271
      7 C           1.5957   -0.6921   -0.5503 C.ar    1  UNL1       -0.0155
      8 C           2.9235   -0.3181   -0.5574 C.ar    1  UNL1        0.1172
      9 O           3.9148   -0.9904   -1.2303 O.3     1  UNL1       -0.5068
     10 C           3.2975    0.7957    0.1483 C.ar    1  UNL1       -0.0202
     11 C           2.3330    1.4888    0.8306 C.ar    1  UNL1       -0.0580
     12 C           1.0443    1.0606    0.7918 C.ar    1  UNL1       -0.0569
     13 H          -1.1117   -0.9972    1.0381 H       1  UNL1        0.0509
     14 H          -1.9008   -2.0141   -1.0772 H       1  UNL1        0.0248
     15 H          -0.2375   -2.5021   -0.6063 H       1  UNL1        0.0248
     16 H          -0.4007   -1.3255   -1.9399 H       1  UNL1        0.0248
     17 H          -3.8776    0.5194   -0.2814 H       1  UNL1        0.0391
     18 H          -3.1819   -0.5693   -1.5714 H       1  UNL1        0.0391
     19 H          -3.1128   -1.0522    0.2238 H       1  UNL1        0.0391
     20 H          -3.2324    1.4638    0.9498 H       1  UNL1        0.0391
     21 H          -1.7543    2.3753    0.7079 H       1  UNL1        0.0391
     22 H          -1.8047    0.8729    1.7891 H       1  UNL1        0.0391
     23 H           1.4380   -1.5865   -1.1481 H       1  UNL1        0.0657
     24 H           4.8641   -1.0418   -0.8669 H       1  UNL1        0.2921
     25 H           4.3188    1.1223    0.1701 H       1  UNL1        0.0654
     26 H           2.6385    2.3664    1.3845 H       1  UNL1        0.0619
     27 H           0.3614    1.6571    1.3575 H       1  UNL1        0.0621
@<TRIPOS>BOND
     1     1     2    1
     2     1     3    1
     3     3     4    1
     4     3     5    1
     5     1     6    1
     6     6     7   ar
     7     7     8   ar
     8     8     9    1
     9     8    10   ar
    10    10    11   ar
    11    11    12   ar
    12    12     6   ar
    13     1    13    1
    14     2    14    1
    15     2    15    1
    16     2    16    1
    17     4    17    1
    18     4    18    1
    19     4    19    1
    20     5    20    1
    21     5    21    1
    22     5    22    1
    23     7    23    1
    24     9    24    1
    25    10    25    1
    26    11    26    1
    27    12    27    1
