@<TRIPOS>MOLECULE
*****
 81 84 0 0 0
SMALL
GASTEIGER

@<TRIPOS>ATOM
      1 C          -0.5492   -1.5325   -3.3641 C.3     1  UNL1       -0.0390
      2 C          -0.1155   -2.5091   -2.3288 C.ar    1  UNL1       -0.0400
      3 C           0.2272   -3.7967   -2.7056 C.ar    1  UNL1       -0.0230
      4 C           0.6321   -4.7510   -1.8028 C.ar    1  UNL1        0.1237
      5 F           0.9595   -5.9959   -2.2027 F       1  UNL1       -0.2055
      6 C           0.7079   -4.4380   -0.4633 C.ar    1  UNL1       -0.0259
      7 C           0.3711   -3.1574   -0.0566 C.ar    1  UNL1       -0.0510
      8 C          -0.0334   -2.2139   -0.9833 C.ar    1  UNL1       -0.0129
      9 C          -0.3744   -0.8899   -0.5431 C.ar    1  UNL1        0.0070
     10 C          -1.6860   -0.5812   -0.2372 C.ar    1  UNL1       -0.0306
     11 C          -2.0860    0.6643    0.1843 C.ar    1  UNL1        0.0450
     12 C          -3.4970    0.9930    0.5110 C.3     1  UNL1        0.0014
     13 C          -4.3383    0.8291   -0.7440 C.3     1  UNL1       -0.0445
     14 C          -5.7416    1.2362   -0.4428 C.3     1  UNL1       -0.0489
     15 C          -6.3680    0.4277    0.6862 C.3     1  UNL1       -0.0284
     16 C          -7.6312    1.2035    1.0901 C.3     1  UNL1        0.0563
     17 C          -8.5533    1.3247   -0.1216 C.3     1  UNL1       -0.0520
     18 C          -8.3991    0.5233    2.1527 C.2     1  UNL1        0.3078
     19 O          -8.0556   -0.5895    2.5915 O.2     1  UNL1       -0.2507
     20 O          -9.5362    1.0899    2.7108 O.3     1  UNL1       -0.4804
     21 C          -5.4694    0.3818    1.8766 C.3     1  UNL1       -0.0489
     22 C          -4.0223    0.0941    1.5723 C.3     1  UNL1       -0.0445
     23 N          -1.1315    1.6047    0.2938 N.ar    1  UNL1       -0.2577
     24 C           0.1547    1.3417    0.0052 C.ar    1  UNL1        0.0499
     25 C           0.5856    0.0896   -0.4232 C.ar    1  UNL1        0.0619
     26 N           1.9796   -0.1153   -0.6983 N.am    1  UNL1       -0.2718
     27 C           2.3756    0.1568   -2.0542 C.3     1  UNL1        0.0084
     28 C           2.8744   -0.5767    0.2895 C.2     1  UNL1        0.2296
     29 O           2.2747   -0.9020    1.3967 O.2     1  UNL1       -0.2743
     30 C           4.3182   -0.7301    0.2260 C.3     1  UNL1        0.0667
     31 C           4.7511   -1.4609   -1.0264 C.3     1  UNL1       -0.0474
     32 C           4.7040   -1.6827    1.3799 C.3     1  UNL1       -0.0474
     33 C           5.1189    0.5005    0.4485 C.ar    1  UNL1       -0.0319
     34 C           4.7878    1.7520    0.0086 C.ar    1  UNL1       -0.0459
     35 C           5.6162    2.8223    0.2406 C.ar    1  UNL1        0.0556
     36 C           5.2559    4.2061   -0.2434 C.3     1  UNL1        0.4174
     37 F           6.3848    5.0006   -0.2820 F       1  UNL1       -0.1659
     38 F           4.8410    4.0601   -1.5705 F       1  UNL1       -0.1659
     39 F           4.2599    4.7185    0.5354 F       1  UNL1       -0.1659
     40 C           6.7949    2.6356    0.9249 C.ar    1  UNL1       -0.0385
     41 C           7.1769    1.3956    1.3911 C.ar    1  UNL1        0.0556
     42 C           8.4628    1.1870    2.1393 C.3     1  UNL1        0.4174
     43 F           9.3640    2.1515    1.7866 F       1  UNL1       -0.1659
     44 F           8.1499    1.2042    3.4857 F       1  UNL1       -0.1659
     45 F           8.9486   -0.0879    1.8676 F       1  UNL1       -0.1659
     46 C           6.3156    0.3531    1.1349 C.ar    1  UNL1       -0.0459
     47 H           0.1225   -1.7016   -4.2449 H       1  UNL1        0.0278
     48 H          -1.5712   -1.7678   -3.7486 H       1  UNL1        0.0278
     49 H          -0.4149   -0.4919   -3.0750 H       1  UNL1        0.0278
     50 H           0.1632   -4.0363   -3.7757 H       1  UNL1        0.0649
     51 H           1.0322   -5.2075    0.2490 H       1  UNL1        0.0646
     52 H           0.4408   -2.9400    1.0057 H       1  UNL1        0.0625
     53 H          -2.4878   -1.3291   -0.3176 H       1  UNL1        0.0642
     54 H          -3.5731    2.0356    0.8273 H       1  UNL1        0.0364
     55 H          -4.2712   -0.2380   -1.0266 H       1  UNL1        0.0272
     56 H          -3.9581    1.4902   -1.5392 H       1  UNL1        0.0272
     57 H          -6.3694    1.0039   -1.3461 H       1  UNL1        0.0268
     58 H          -5.8066    2.2924   -0.1874 H       1  UNL1        0.0268
     59 H          -6.6678   -0.5589    0.3444 H       1  UNL1        0.0309
     60 H          -7.2907    2.1824    1.4550 H       1  UNL1        0.0413
     61 H          -8.3141    0.4854   -0.8076 H       1  UNL1        0.0238
     62 H          -9.6047    1.2653    0.1818 H       1  UNL1        0.0238
     63 H          -8.3785    2.3169   -0.5589 H       1  UNL1        0.0238
     64 H         -10.1110    0.5837    3.3696 H       1  UNL1        0.2951
     65 H          -5.8053   -0.4661    2.5425 H       1  UNL1        0.0268
     66 H          -5.5646    1.2944    2.5178 H       1  UNL1        0.0268
     67 H          -3.4651    0.2637    2.5287 H       1  UNL1        0.0272
     68 H          -3.9503   -0.9616    1.2377 H       1  UNL1        0.0272
     69 H           0.8863    2.1516    0.1144 H       1  UNL1        0.0849
     70 H           1.7226    0.9394   -2.5289 H       1  UNL1        0.0433
     71 H           2.1439   -0.7547   -2.6830 H       1  UNL1        0.0433
     72 H           3.4337    0.3437   -2.2186 H       1  UNL1        0.0433
     73 H           5.4065   -0.8426   -1.6896 H       1  UNL1        0.0243
     74 H           3.8876   -1.9051   -1.5579 H       1  UNL1        0.0243
     75 H           5.4060   -2.3563   -0.7947 H       1  UNL1        0.0243
     76 H           5.5531   -2.3147    1.1415 H       1  UNL1        0.0243
     77 H           4.8108   -1.0893    2.2970 H       1  UNL1        0.0243
     78 H           3.8372   -2.3887    1.5460 H       1  UNL1        0.0243
     79 H           3.8706    1.9193   -0.5130 H       1  UNL1        0.0626
     80 H           7.4742    3.4757    1.1230 H       1  UNL1        0.0629
     81 H           6.6081   -0.6303    1.4957 H       1  UNL1        0.0626
@<TRIPOS>BOND
     1     1     2    1
     2     2     3   ar
     3     3     4   ar
     4     4     5    1
     5     4     6   ar
     6     6     7   ar
     7     7     8   ar
     8     8     9    1
     9     9    10   ar
    10    10    11   ar
    11    11    12    1
    12    12    13    1
    13    13    14    1
    14    14    15    1
    15    15    16    1
    16    16    17    1
    17    16    18    1
    18    18    19    2
    19    18    20    1
    20    15    21    1
    21    21    22    1
    22    11    23   ar
    23    23    24   ar
    24    24    25   ar
    25    25    26    1
    26    26    27    1
    27    26    28   am
    28    28    29    2
    29    28    30    1
    30    30    31    1
    31    30    32    1
    32    30    33    1
    33    33    34   ar
    34    34    35   ar
    35    35    36    1
    36    36    37    1
    37    36    38    1
    38    36    39    1
    39    35    40   ar
    40    40    41   ar
    41    41    42    1
    42    42    43    1
    43    42    44    1
    44    42    45    1
    45    41    46   ar
    46     8     2   ar
    47    25     9   ar
    48    46    33   ar
    49    22    12    1
    50     1    47    1
    51     1    48    1
    52     1    49    1
    53     3    50    1
    54     6    51    1
    55     7    52    1
    56    10    53    1
    57    12    54    1
    58    13    55    1
    59    13    56    1
    60    14    57    1
    61    14    58    1
    62    15    59    1
    63    16    60    1
    64    17    61    1
    65    17    62    1
    66    17    63    1
    67    20    64    1
    68    21    65    1
    69    21    66    1
    70    22    67    1
    71    22    68    1
    72    24    69    1
    73    27    70    1
    74    27    71    1
    75    27    72    1
    76    31    73    1
    77    31    74    1
    78    31    75    1
    79    32    76    1
    80    32    77    1
    81    32    78    1
    82    34    79    1
    83    40    80    1
    84    46    81    1
