
     RDKit          3D

 81 84  0  0  0  0  0  0  0  0999 V2000
   -0.5492   -1.5325   -3.3641 C   0  0  0  0  0  0  0  0  0  0  0  0
   -0.1155   -2.5091   -2.3288 C   0  0  0  0  0  0  0  0  0  0  0  0
    0.2272   -3.7967   -2.7056 C   0  0  0  0  0  0  0  0  0  0  0  0
    0.6321   -4.7510   -1.8028 C   0  0  0  0  0  0  0  0  0  0  0  0
    0.9595   -5.9959   -2.2027 F   0  0  0  0  0  0  0  0  0  0  0  0
    0.7079   -4.4380   -0.4633 C   0  0  0  0  0  0  0  0  0  0  0  0
    0.3711   -3.1574   -0.0566 C   0  0  0  0  0  0  0  0  0  0  0  0
   -0.0334   -2.2139   -0.9833 C   0  0  0  0  0  0  0  0  0  0  0  0
   -0.3744   -0.8899   -0.5431 C   0  0  0  0  0  0  0  0  0  0  0  0
   -1.6860   -0.5812   -0.2372 C   0  0  0  0  0  0  0  0  0  0  0  0
   -2.0860    0.6643    0.1843 C   0  0  0  0  0  0  0  0  0  0  0  0
   -3.4970    0.9930    0.5110 C   0  0  0  0  0  0  0  0  0  0  0  0
   -4.3383    0.8291   -0.7440 C   0  0  0  0  0  0  0  0  0  0  0  0
   -5.7416    1.2362   -0.4428 C   0  0  0  0  0  0  0  0  0  0  0  0
   -6.3680    0.4277    0.6862 C   0  0  0  0  0  0  0  0  0  0  0  0
   -7.6312    1.2035    1.0901 C   0  0  0  0  0  0  0  0  0  0  0  0
   -8.5533    1.3247   -0.1216 C   0  0  0  0  0  0  0  0  0  0  0  0
   -8.3991    0.5233    2.1527 C   0  0  0  0  0  0  0  0  0  0  0  0
   -8.0556   -0.5895    2.5915 O   0  0  0  0  0  0  0  0  0  0  0  0
   -9.5362    1.0899    2.7108 O   0  0  0  0  0  0  0  0  0  0  0  0
   -5.4694    0.3818    1.8766 C   0  0  0  0  0  0  0  0  0  0  0  0
   -4.0223    0.0941    1.5723 C   0  0  0  0  0  0  0  0  0  0  0  0
   -1.1315    1.6047    0.2938 N   0  0  0  0  0  0  0  0  0  0  0  0
    0.1547    1.3417    0.0052 C   0  0  0  0  0  0  0  0  0  0  0  0
    0.5856    0.0896   -0.4232 C   0  0  0  0  0  0  0  0  0  0  0  0
    1.9796   -0.1153   -0.6983 N   0  0  0  0  0  0  0  0  0  0  0  0
    2.3756    0.1568   -2.0542 C   0  0  0  0  0  0  0  0  0  0  0  0
    2.8744   -0.5767    0.2895 C   0  0  0  0  0  0  0  0  0  0  0  0
    2.2747   -0.9020    1.3967 O   0  0  0  0  0  0  0  0  0  0  0  0
    4.3182   -0.7301    0.2260 C   0  0  0  0  0  0  0  0  0  0  0  0
    4.7511   -1.4609   -1.0264 C   0  0  0  0  0  0  0  0  0  0  0  0
    4.7040   -1.6827    1.3799 C   0  0  0  0  0  0  0  0  0  0  0  0
    5.1189    0.5005    0.4485 C   0  0  0  0  0  0  0  0  0  0  0  0
    4.7878    1.7520    0.0086 C   0  0  0  0  0  0  0  0  0  0  0  0
    5.6162    2.8223    0.2406 C   0  0  0  0  0  0  0  0  0  0  0  0
    5.2559    4.2061   -0.2434 C   0  0  0  0  0  0  0  0  0  0  0  0
    6.3848    5.0006   -0.2820 F   0  0  0  0  0  0  0  0  0  0  0  0
    4.8410    4.0601   -1.5705 F   0  0  0  0  0  0  0  0  0  0  0  0
    4.2599    4.7185    0.5354 F   0  0  0  0  0  0  0  0  0  0  0  0
    6.7949    2.6356    0.9249 C   0  0  0  0  0  0  0  0  0  0  0  0
    7.1769    1.3956    1.3911 C   0  0  0  0  0  0  0  0  0  0  0  0
    8.4628    1.1870    2.1393 C   0  0  0  0  0  0  0  0  0  0  0  0
    9.3640    2.1515    1.7866 F   0  0  0  0  0  0  0  0  0  0  0  0
    8.1499    1.2042    3.4857 F   0  0  0  0  0  0  0  0  0  0  0  0
    8.9486   -0.0879    1.8676 F   0  0  0  0  0  0  0  0  0  0  0  0
    6.3156    0.3531    1.1349 C   0  0  0  0  0  0  0  0  0  0  0  0
    0.1225   -1.7016   -4.2449 H   0  0  0  0  0  0  0  0  0  0  0  0
   -1.5712   -1.7678   -3.7486 H   0  0  0  0  0  0  0  0  0  0  0  0
   -0.4149   -0.4919   -3.0750 H   0  0  0  0  0  0  0  0  0  0  0  0
    0.1632   -4.0363   -3.7757 H   0  0  0  0  0  0  0  0  0  0  0  0
    1.0322   -5.2075    0.2490 H   0  0  0  0  0  0  0  0  0  0  0  0
    0.4408   -2.9400    1.0057 H   0  0  0  0  0  0  0  0  0  0  0  0
   -2.4878   -1.3291   -0.3176 H   0  0  0  0  0  0  0  0  0  0  0  0
   -3.5731    2.0356    0.8273 H   0  0  0  0  0  0  0  0  0  0  0  0
   -4.2712   -0.2380   -1.0266 H   0  0  0  0  0  0  0  0  0  0  0  0
   -3.9581    1.4902   -1.5392 H   0  0  0  0  0  0  0  0  0  0  0  0
   -6.3694    1.0039   -1.3461 H   0  0  0  0  0  0  0  0  0  0  0  0
   -5.8066    2.2924   -0.1874 H   0  0  0  0  0  0  0  0  0  0  0  0
   -6.6678   -0.5589    0.3444 H   0  0  0  0  0  0  0  0  0  0  0  0
   -7.2907    2.1824    1.4550 H   0  0  0  0  0  0  0  0  0  0  0  0
   -8.3141    0.4854   -0.8076 H   0  0  0  0  0  0  0  0  0  0  0  0
   -9.6047    1.2653    0.1818 H   0  0  0  0  0  0  0  0  0  0  0  0
   -8.3785    2.3169   -0.5589 H   0  0  0  0  0  0  0  0  0  0  0  0
  -10.1110    0.5837    3.3696 H   0  0  0  0  0  0  0  0  0  0  0  0
   -5.8053   -0.4661    2.5425 H   0  0  0  0  0  0  0  0  0  0  0  0
   -5.5646    1.2944    2.5178 H   0  0  0  0  0  0  0  0  0  0  0  0
   -3.4651    0.2637    2.5287 H   0  0  0  0  0  0  0  0  0  0  0  0
   -3.9503   -0.9616    1.2377 H   0  0  0  0  0  0  0  0  0  0  0  0
    0.8863    2.1516    0.1144 H   0  0  0  0  0  0  0  0  0  0  0  0
    1.7226    0.9394   -2.5289 H   0  0  0  0  0  0  0  0  0  0  0  0
    2.1439   -0.7547   -2.6830 H   0  0  0  0  0  0  0  0  0  0  0  0
    3.4337    0.3437   -2.2186 H   0  0  0  0  0  0  0  0  0  0  0  0
    5.4065   -0.8426   -1.6896 H   0  0  0  0  0  0  0  0  0  0  0  0
    3.8876   -1.9051   -1.5579 H   0  0  0  0  0  0  0  0  0  0  0  0
    5.4060   -2.3563   -0.7947 H   0  0  0  0  0  0  0  0  0  0  0  0
    5.5531   -2.3147    1.1415 H   0  0  0  0  0  0  0  0  0  0  0  0
    4.8108   -1.0893    2.2970 H   0  0  0  0  0  0  0  0  0  0  0  0
    3.8372   -2.3887    1.5460 H   0  0  0  0  0  0  0  0  0  0  0  0
    3.8706    1.9193   -0.5130 H   0  0  0  0  0  0  0  0  0  0  0  0
    7.4742    3.4757    1.1230 H   0  0  0  0  0  0  0  0  0  0  0  0
    6.6081   -0.6303    1.4957 H   0  0  0  0  0  0  0  0  0  0  0  0
  1  2  1  0
  2  3  2  0
  3  4  1  0
  4  5  1  0
  4  6  2  0
  6  7  1  0
  7  8  2  0
  8  9  1  0
  9 10  2  0
 10 11  1  0
 11 12  1  0
 12 13  1  0
 13 14  1  0
 14 15  1  0
 15 16  1  0
 16 17  1  0
 16 18  1  0
 18 19  2  0
 18 20  1  0
 15 21  1  0
 21 22  1  0
 11 23  2  0
 23 24  1  0
 24 25  2  0
 25 26  1  0
 26 27  1  0
 26 28  1  0
 28 29  2  0
 28 30  1  0
 30 31  1  0
 30 32  1  0
 30 33  1  0
 33 34  2  0
 34 35  1  0
 35 36  1  0
 36 37  1  0
 36 38  1  0
 36 39  1  0
 35 40  2  0
 40 41  1  0
 41 42  1  0
 42 43  1  0
 42 44  1  0
 42 45  1  0
 41 46  2  0
  8  2  1  0
 25  9  1  0
 46 33  1  0
 22 12  1  0
  1 47  1  0
  1 48  1  0
  1 49  1  0
  3 50  1  0
  6 51  1  0
  7 52  1  0
 10 53  1  0
 12 54  1  0
 13 55  1  0
 13 56  1  0
 14 57  1  0
 14 58  1  0
 15 59  1  0
 16 60  1  0
 17 61  1  0
 17 62  1  0
 17 63  1  0
 20 64  1  0
 21 65  1  0
 21 66  1  0
 22 67  1  0
 22 68  1  0
 24 69  1  0
 27 70  1  0
 27 71  1  0
 27 72  1  0
 31 73  1  0
 31 74  1  0
 31 75  1  0
 32 76  1  0
 32 77  1  0
 32 78  1  0
 34 79  1  0
 40 80  1  0
 46 81  1  0
M  END
$$$$
