@<TRIPOS>MOLECULE
*****
 19 18 0 0 0
SMALL
GASTEIGER

@<TRIPOS>ATOM
      1 N1          1.5453   -1.6262   -0.4873 N.3     1  <1>        -0.3166
      2 C1          1.2681   -0.2133   -0.5170 C.3     1  <1>         0.1273
      3 C2         -0.0925    0.1218    0.0905 C.3     1  <1>         0.0846
      4 O1         -1.0457   -0.5409   -0.6455 O.3     1  <1>        -0.2847
      5 P1         -2.6113   -0.2806   -0.1088 P.3     1  <1>         0.4724
      6 O2         -2.9056    1.3328    0.3069 O.3     1  <1>        -0.3026
      7 O3         -3.0752   -1.2829    1.1465 O.3     1  <1>        -0.3026
      8 O4         -3.5436   -0.5700   -1.2864 O.2     1  <1>        -0.2275
      9 C3          2.3687    0.5455    0.1491 C.2     1  <1>         0.3240
     10 O5          2.2835    1.9305    0.2217 O.3     1  <1>        -0.4795
     11 O6          3.3798    0.0036    0.6544 O.2     1  <1>        -0.2492
     12 H1          2.5757   -1.7567   -0.5870 H       1  <1>         0.1190
     13 H2          1.0584   -2.0832   -1.2971 H       1  <1>         0.1190
     14 H3          1.2949    0.0873   -1.6023 H       1  <1>         0.0597
     15 H4         -0.1883    1.2159    0.1075 H       1  <1>         0.0587
     16 H5         -0.0360   -0.2052    1.1471 H       1  <1>         0.0587
     17 H6         -2.4403    1.9822   -0.2708 H       1  <1>         0.2220
     18 H7         -2.5842   -1.0378    1.9702 H       1  <1>         0.2220
     19 H8          2.7483    2.3770    1.0084 H       1  <1>         0.2951
@<TRIPOS>BOND
     1     1     2    1
     2     2     3    1
     3     3     4    1
     4     4     5    1
     5     5     6    1
     6     5     7    1
     7     5     8    2
     8     2     9    1
     9     9    10    1
    10     9    11    2
    11     1    12    1
    12     1    13    1
    13     2    14    1
    14     3    15    1
    15     3    16    1
    16     6    17    1
    17     7    18    1
    18    10    19    1
