
     RDKit          3D

 30 30  0  0  0  0  0  0  0  0999 V2000
    3.3816    0.3483   -0.8502 C   0  0  0  0  0  0  0  0  0  0  0  0
    2.6048   -0.5390    0.1011 C   0  0  0  0  0  0  0  0  0  0  0  0
    3.0395   -0.4396    1.4594 N   0  0  0  0  0  0  0  0  0  0  0  0
    1.1356   -0.3265   -0.0633 C   0  0  0  0  0  0  0  0  0  0  0  0
    0.6628   -0.3984   -1.2483 O   0  0  0  0  0  0  0  0  0  0  0  0
    0.1526   -0.0451    0.9486 N   0  0  0  0  0  0  0  0  0  0  0  0
   -1.1062    0.0684    0.2543 C   0  0  0  0  0  0  0  0  0  0  0  0
   -1.8478   -1.0852    0.0997 C   0  0  0  0  0  0  0  0  0  0  0  0
   -1.4028   -2.4098    0.6129 C   0  0  0  0  0  0  0  0  0  0  0  0
   -3.0568   -1.0101   -0.5601 C   0  0  0  0  0  0  0  0  0  0  0  0
   -3.4502    0.2290   -1.0279 C   0  0  0  0  0  0  0  0  0  0  0  0
   -2.7013    1.3888   -0.8708 C   0  0  0  0  0  0  0  0  0  0  0  0
   -1.4929    1.3087   -0.2103 C   0  0  0  0  0  0  0  0  0  0  0  0
   -0.5815    2.4716    0.0329 C   0  0  0  0  0  0  0  0  0  0  0  0
    2.8387    0.3104   -1.8307 H   0  0  0  0  0  0  0  0  0  0  0  0
    3.3455    1.3867   -0.4381 H   0  0  0  0  0  0  0  0  0  0  0  0
    4.4214   -0.0380   -0.9375 H   0  0  0  0  0  0  0  0  0  0  0  0
    2.7933   -1.5899   -0.2225 H   0  0  0  0  0  0  0  0  0  0  0  0
    3.8602   -1.0137    1.6847 H   0  0  0  0  0  0  0  0  0  0  0  0
    3.0732    0.5327    1.8337 H   0  0  0  0  0  0  0  0  0  0  0  0
    0.5837    0.0070    1.9202 H   0  0  0  0  0  0  0  0  0  0  0  0
   -0.5509   -2.3243    1.3084 H   0  0  0  0  0  0  0  0  0  0  0  0
   -1.2282   -3.1567   -0.1875 H   0  0  0  0  0  0  0  0  0  0  0  0
   -2.2490   -2.7788    1.2639 H   0  0  0  0  0  0  0  0  0  0  0  0
   -3.6837   -1.8798   -0.7128 H   0  0  0  0  0  0  0  0  0  0  0  0
   -4.3906    0.3580   -1.5558 H   0  0  0  0  0  0  0  0  0  0  0  0
   -3.0112    2.3468   -1.2356 H   0  0  0  0  0  0  0  0  0  0  0  0
   -0.4873    2.5778    1.1475 H   0  0  0  0  0  0  0  0  0  0  0  0
   -1.0826    3.3875   -0.3200 H   0  0  0  0  0  0  0  0  0  0  0  0
    0.4302    2.3134   -0.3959 H   0  0  0  0  0  0  0  0  0  0  0  0
  1  2  1  0
  2  3  1  0
  2  4  1  0
  4  5  2  0
  4  6  1  0
  6  7  1  0
  7  8  2  0
  8  9  1  0
  8 10  1  0
 10 11  2  0
 11 12  1  0
 12 13  2  0
 13 14  1  0
 13  7  1  0
  1 15  1  0
  1 16  1  0
  1 17  1  0
  2 18  1  0
  3 19  1  0
  3 20  1  0
  6 21  1  0
  9 22  1  0
  9 23  1  0
  9 24  1  0
 10 25  1  0
 11 26  1  0
 12 27  1  0
 14 28  1  0
 14 29  1  0
 14 30  1  0
M  END
$$$$
