@<TRIPOS>MOLECULE
*****
 45 48 0 0 0
SMALL
GASTEIGER

@<TRIPOS>ATOM
      1 C           1.1405    0.4170    0.3162 C.3     1  UNL1       -0.0227
      2 C           2.2493    1.3815    0.4695 C.3     1  UNL1       -0.0462
      3 C           3.4058    0.4553    0.8764 C.3     1  UNL1       -0.0231
      4 C           3.0919   -0.8823    0.2092 C.3     1  UNL1        0.0723
      5 C           3.0604   -2.0016    1.2160 C.3     1  UNL1       -0.0353
      6 O           4.1270   -1.1260   -0.6977 O.3     1  UNL1       -0.3880
      7 C           1.8183   -0.6829   -0.5166 C.3     1  UNL1        0.0181
      8 C           2.0379   -0.2511   -1.9407 C.3     1  UNL1       -0.0532
      9 C           0.8778   -1.8046   -0.5430 C.2     1  UNL1       -0.0748
     10 C          -0.4456   -1.5981   -0.4100 C.2     1  UNL1       -0.0613
     11 C          -1.0600   -0.2627   -0.2294 C.2     1  UNL1       -0.0408
     12 C          -2.3178   -0.1107    0.0886 C.2     1  UNL1       -0.0402
     13 C          -3.1183   -1.3148    0.2631 C.3     1  UNL1       -0.0202
     14 C          -4.5371   -0.9623    0.5630 C.3     1  UNL1        0.0139
     15 C          -4.8774    0.2860   -0.1673 C.2     1  UNL1        0.1567
     16 O          -5.8156    0.4195   -1.0129 O.2     1  UNL1       -0.2927
     17 C          -4.0633    1.4932    0.1000 C.2     1  UNL1       -0.0158
     18 C          -2.7385    1.2780    0.2318 C.2     1  UNL1       -0.0406
     19 C          -1.7946    2.3873    0.5116 C.3     1  UNL1       -0.0268
     20 C          -0.5521    2.1991   -0.2729 C.3     1  UNL1       -0.0419
     21 C          -0.0481    0.8290   -0.4671 C.3     1  UNL1       -0.0116
     22 H           0.7978   -0.0054    1.2744 H       1  UNL1        0.0316
     23 H           2.0671    2.0869    1.3182 H       1  UNL1        0.0269
     24 H           2.4719    1.9306   -0.4428 H       1  UNL1        0.0269
     25 H           3.3144    0.3257    1.9727 H       1  UNL1        0.0293
     26 H           4.3735    0.8723    0.5427 H       1  UNL1        0.0293
     27 H           3.7534   -1.6932    2.0500 H       1  UNL1        0.0257
     28 H           2.0749   -2.1438    1.7046 H       1  UNL1        0.0257
     29 H           3.4916   -2.9296    0.7879 H       1  UNL1        0.0257
     30 H           5.0050   -0.8471   -0.2975 H       1  UNL1        0.2102
     31 H           2.1479    0.8184   -2.1032 H       1  UNL1        0.0239
     32 H           1.2695   -0.6637   -2.6305 H       1  UNL1        0.0239
     33 H           2.9969   -0.7284   -2.2850 H       1  UNL1        0.0239
     34 H           1.2052   -2.8181   -0.6677 H       1  UNL1        0.0579
     35 H          -1.1055   -2.4794   -0.4380 H       1  UNL1        0.0618
     36 H          -3.1407   -1.8214   -0.7450 H       1  UNL1        0.0317
     37 H          -2.6848   -2.0710    0.9339 H       1  UNL1        0.0317
     38 H          -4.6891   -0.7951    1.6641 H       1  UNL1        0.0348
     39 H          -5.2558   -1.7579    0.2441 H       1  UNL1        0.0348
     40 H          -4.4871    2.4713    0.1824 H       1  UNL1        0.0655
     41 H          -1.5667    2.4681    1.6025 H       1  UNL1        0.0313
     42 H          -2.2552    3.3643    0.2441 H       1  UNL1        0.0313
     43 H          -0.6779    2.7694   -1.2366 H       1  UNL1        0.0274
     44 H           0.2684    2.7783    0.2494 H       1  UNL1        0.0274
     45 H           0.1847    0.7201   -1.5716 H       1  UNL1        0.0352
@<TRIPOS>BOND
     1     1     2    1
     2     2     3    1
     3     3     4    1
     4     4     5    1
     5     4     6    1
     6     4     7    1
     7     7     8    1
     8     7     9    1
     9     9    10    2
    10    10    11    1
    11    11    12    2
    12    12    13    1
    13    13    14    1
    14    14    15    1
    15    15    16    2
    16    15    17    1
    17    17    18    2
    18    18    19    1
    19    19    20    1
    20    20    21    1
    21     7     1    1
    22    21    11    1
    23    21     1    1
    24    18    12    1
    25     1    22    1
    26     2    23    1
    27     2    24    1
    28     3    25    1
    29     3    26    1
    30     5    27    1
    31     5    28    1
    32     5    29    1
    33     6    30    1
    34     8    31    1
    35     8    32    1
    36     8    33    1
    37     9    34    1
    38    10    35    1
    39    13    36    1
    40    13    37    1
    41    14    38    1
    42    14    39    1
    43    17    40    1
    44    19    41    1
    45    19    42    1
    46    20    43    1
    47    20    44    1
    48    21    45    1
