
     RDKit          3D

 45 48  0  0  0  0  0  0  0  0999 V2000
    1.1405    0.4170    0.3162 C   0  0  2  0  0  0  0  0  0  0  0  0
    2.2493    1.3815    0.4695 C   0  0  0  0  0  0  0  0  0  0  0  0
    3.4058    0.4553    0.8764 C   0  0  0  0  0  0  0  0  0  0  0  0
    3.0919   -0.8823    0.2092 C   0  0  2  0  0  0  0  0  0  0  0  0
    3.0604   -2.0016    1.2160 C   0  0  0  0  0  0  0  0  0  0  0  0
    4.1270   -1.1260   -0.6977 O   0  0  0  0  0  0  0  0  0  0  0  0
    1.8183   -0.6829   -0.5166 C   0  0  2  0  0  0  0  0  0  0  0  0
    2.0379   -0.2511   -1.9407 C   0  0  0  0  0  0  0  0  0  0  0  0
    0.8778   -1.8046   -0.5430 C   0  0  0  0  0  0  0  0  0  0  0  0
   -0.4456   -1.5981   -0.4100 C   0  0  0  0  0  0  0  0  0  0  0  0
   -1.0600   -0.2627   -0.2294 C   0  0  0  0  0  0  0  0  0  0  0  0
   -2.3178   -0.1107    0.0886 C   0  0  0  0  0  0  0  0  0  0  0  0
   -3.1183   -1.3148    0.2631 C   0  0  0  0  0  0  0  0  0  0  0  0
   -4.5371   -0.9623    0.5630 C   0  0  0  0  0  0  0  0  0  0  0  0
   -4.8774    0.2860   -0.1673 C   0  0  0  0  0  0  0  0  0  0  0  0
   -5.8156    0.4195   -1.0129 O   0  0  0  0  0  0  0  0  0  0  0  0
   -4.0633    1.4932    0.1000 C   0  0  0  0  0  0  0  0  0  0  0  0
   -2.7385    1.2780    0.2318 C   0  0  0  0  0  0  0  0  0  0  0  0
   -1.7946    2.3873    0.5116 C   0  0  0  0  0  0  0  0  0  0  0  0
   -0.5521    2.1991   -0.2729 C   0  0  0  0  0  0  0  0  0  0  0  0
   -0.0481    0.8290   -0.4671 C   0  0  1  0  0  0  0  0  0  0  0  0
    0.7978   -0.0054    1.2744 H   0  0  0  0  0  0  0  0  0  0  0  0
    2.0671    2.0869    1.3182 H   0  0  0  0  0  0  0  0  0  0  0  0
    2.4719    1.9306   -0.4428 H   0  0  0  0  0  0  0  0  0  0  0  0
    3.3144    0.3257    1.9727 H   0  0  0  0  0  0  0  0  0  0  0  0
    4.3735    0.8723    0.5427 H   0  0  0  0  0  0  0  0  0  0  0  0
    3.7534   -1.6932    2.0500 H   0  0  0  0  0  0  0  0  0  0  0  0
    2.0749   -2.1438    1.7046 H   0  0  0  0  0  0  0  0  0  0  0  0
    3.4916   -2.9296    0.7879 H   0  0  0  0  0  0  0  0  0  0  0  0
    5.0050   -0.8471   -0.2975 H   0  0  0  0  0  0  0  0  0  0  0  0
    2.1479    0.8184   -2.1032 H   0  0  0  0  0  0  0  0  0  0  0  0
    1.2695   -0.6637   -2.6305 H   0  0  0  0  0  0  0  0  0  0  0  0
    2.9969   -0.7284   -2.2850 H   0  0  0  0  0  0  0  0  0  0  0  0
    1.2052   -2.8181   -0.6677 H   0  0  0  0  0  0  0  0  0  0  0  0
   -1.1055   -2.4794   -0.4380 H   0  0  0  0  0  0  0  0  0  0  0  0
   -3.1407   -1.8214   -0.7450 H   0  0  0  0  0  0  0  0  0  0  0  0
   -2.6848   -2.0710    0.9339 H   0  0  0  0  0  0  0  0  0  0  0  0
   -4.6891   -0.7951    1.6641 H   0  0  0  0  0  0  0  0  0  0  0  0
   -5.2558   -1.7579    0.2441 H   0  0  0  0  0  0  0  0  0  0  0  0
   -4.4871    2.4713    0.1824 H   0  0  0  0  0  0  0  0  0  0  0  0
   -1.5667    2.4681    1.6025 H   0  0  0  0  0  0  0  0  0  0  0  0
   -2.2552    3.3643    0.2441 H   0  0  0  0  0  0  0  0  0  0  0  0
   -0.6779    2.7694   -1.2366 H   0  0  0  0  0  0  0  0  0  0  0  0
    0.2684    2.7783    0.2494 H   0  0  0  0  0  0  0  0  0  0  0  0
    0.1847    0.7201   -1.5716 H   0  0  0  0  0  0  0  0  0  0  0  0
  1  2  1  0
  2  3  1  0
  3  4  1  0
  4  5  1  0
  4  6  1  6
  4  7  1  0
  7  8  1  6
  7  9  1  0
  9 10  2  0
 10 11  1  0
 11 12  2  0
 12 13  1  0
 13 14  1  0
 14 15  1  0
 15 16  2  0
 15 17  1  0
 17 18  2  0
 18 19  1  0
 19 20  1  0
 20 21  1  0
  7  1  1  0
 21 11  1  0
 21  1  1  0
 18 12  1  0
  1 22  1  1
  2 23  1  0
  2 24  1  0
  3 25  1  0
  3 26  1  0
  5 27  1  0
  5 28  1  0
  5 29  1  0
  6 30  1  0
  8 31  1  0
  8 32  1  0
  8 33  1  0
  9 34  1  0
 10 35  1  0
 13 36  1  0
 13 37  1  0
 14 38  1  0
 14 39  1  0
 17 40  1  0
 19 41  1  0
 19 42  1  0
 20 43  1  0
 20 44  1  0
 21 45  1  6
M  END
$$$$
