@<TRIPOS>MOLECULE
*****
 36 37 0 0 0
SMALL
GASTEIGER

@<TRIPOS>ATOM
      1 C           5.3311    0.9999   -0.4088 C.3     1  UNL1       -0.0306
      2 C           4.8919   -0.3683   -0.8385 C.3     1  UNL1        0.0900
      3 O           3.5006   -0.2874   -1.1815 O.3     1  UNL1       -0.4614
      4 C           2.6751    0.1225   -0.1421 C.2     1  UNL1        0.3427
      5 O           3.2445    0.3697    0.9609 O.2     1  UNL1       -0.2448
      6 C           1.2327    0.3318   -0.0670 C.ar    1  UNL1        0.1025
      7 C           0.2119   -0.5341    0.2692 C.ar    1  UNL1        0.0561
      8 C           0.4111   -1.9510    0.6464 C.3     1  UNL1       -0.0214
      9 N          -0.9626    0.1158    0.1964 N.ar    1  UNL1       -0.2357
     10 N          -0.7267    1.3768   -0.1775 N.ar    1  UNL1       -0.1706
     11 C           0.6069    1.5404   -0.3466 C.ar    1  UNL1        0.0746
     12 C           1.2986    2.7912   -0.7598 C.3     1  UNL1       -0.0198
     13 C          -2.2719   -0.3804    0.4561 C.ar    1  UNL1        0.0721
     14 C          -3.3534    0.0661   -0.3090 C.ar    1  UNL1        0.0410
     15 C          -4.6460   -0.3801   -0.1026 C.ar    1  UNL1        0.2752
     16 C          -4.8541   -1.2996    0.9004 C.ar    1  UNL1        0.0157
     17 C          -3.8328   -1.7731    1.6822 C.ar    1  UNL1       -0.0533
     18 C          -2.5610   -1.3006    1.4408 C.ar    1  UNL1       -0.0358
     19 N          -5.6665    0.1548   -0.9545 N.pl3   1  UNL1        0.0797
     20 O          -5.4272    1.0796   -1.9562 O.co2   1  UNL1       -0.5760
     21 O          -6.8592   -0.2060   -0.8224 O.2     1  UNL1        0.0414
     22 H           5.5713    1.0301    0.6750 H       1  UNL1        0.0262
     23 H           4.5263    1.7637   -0.5661 H       1  UNL1        0.0262
     24 H           6.2260    1.3104   -0.9817 H       1  UNL1        0.0262
     25 H           5.0416   -1.1016   -0.0063 H       1  UNL1        0.0695
     26 H           5.3960   -0.7555   -1.7333 H       1  UNL1        0.0695
     27 H          -0.4040   -2.6207    0.3105 H       1  UNL1        0.0293
     28 H           1.3372   -2.3785    0.1760 H       1  UNL1        0.0293
     29 H           0.6087   -2.0651    1.7502 H       1  UNL1        0.0293
     30 H           2.2546    2.5679   -1.2759 H       1  UNL1        0.0293
     31 H           1.4519    3.4170    0.1497 H       1  UNL1        0.0293
     32 H           0.6222    3.3572   -1.4185 H       1  UNL1        0.0293
     33 H          -3.1598    0.7884   -1.0898 H       1  UNL1        0.0707
     34 H          -5.9055   -1.6080    1.0058 H       1  UNL1        0.0685
     35 H          -4.0664   -2.4938    2.4517 H       1  UNL1        0.0620
     36 H          -1.7430   -1.6793    2.0664 H       1  UNL1        0.0639
@<TRIPOS>UNITY_ATOM_ATTR
19 1
charge 1
20 1
charge -1
@<TRIPOS>BOND
     1     1     2    1
     2     2     3    1
     3     3     4    1
     4     4     5    2
     5     4     6    1
     6     6     7   ar
     7     7     8    1
     8     7     9   ar
     9     9    10   ar
    10    10    11   ar
    11    11    12    1
    12     9    13    1
    13    13    14   ar
    14    14    15   ar
    15    15    16   ar
    16    16    17   ar
    17    17    18   ar
    18    15    19    1
    19    19    20    1
    20    19    21    2
    21    11     6   ar
    22    18    13   ar
    23     1    22    1
    24     1    23    1
    25     1    24    1
    26     2    25    1
    27     2    26    1
    28     8    27    1
    29     8    28    1
    30     8    29    1
    31    12    30    1
    32    12    31    1
    33    12    32    1
    34    14    33    1
    35    16    34    1
    36    17    35    1
    37    18    36    1
