
     RDKit          3D

 36 37  0  0  0  0  0  0  0  0999 V2000
    5.3311    0.9999   -0.4088 C   0  0  0  0  0  0  0  0  0  0  0  0
    4.8919   -0.3683   -0.8385 C   0  0  0  0  0  0  0  0  0  0  0  0
    3.5006   -0.2874   -1.1815 O   0  0  0  0  0  0  0  0  0  0  0  0
    2.6751    0.1225   -0.1421 C   0  0  0  0  0  0  0  0  0  0  0  0
    3.2445    0.3697    0.9609 O   0  0  0  0  0  0  0  0  0  0  0  0
    1.2327    0.3318   -0.0670 C   0  0  0  0  0  0  0  0  0  0  0  0
    0.2119   -0.5341    0.2692 C   0  0  0  0  0  0  0  0  0  0  0  0
    0.4111   -1.9510    0.6464 C   0  0  0  0  0  0  0  0  0  0  0  0
   -0.9626    0.1158    0.1964 N   0  0  0  0  0  0  0  0  0  0  0  0
   -0.7267    1.3768   -0.1775 N   0  0  0  0  0  0  0  0  0  0  0  0
    0.6069    1.5404   -0.3466 C   0  0  0  0  0  0  0  0  0  0  0  0
    1.2986    2.7912   -0.7598 C   0  0  0  0  0  0  0  0  0  0  0  0
   -2.2719   -0.3804    0.4561 C   0  0  0  0  0  0  0  0  0  0  0  0
   -3.3534    0.0661   -0.3090 C   0  0  0  0  0  0  0  0  0  0  0  0
   -4.6460   -0.3801   -0.1026 C   0  0  0  0  0  0  0  0  0  0  0  0
   -4.8541   -1.2996    0.9004 C   0  0  0  0  0  0  0  0  0  0  0  0
   -3.8328   -1.7731    1.6822 C   0  0  0  0  0  0  0  0  0  0  0  0
   -2.5610   -1.3006    1.4408 C   0  0  0  0  0  0  0  0  0  0  0  0
   -5.6665    0.1548   -0.9545 N   0  0  0  0  0  4  0  0  0  0  0  0
   -5.4272    1.0796   -1.9562 O   0  0  0  0  0  1  0  0  0  0  0  0
   -6.8592   -0.2060   -0.8224 O   0  0  0  0  0  0  0  0  0  0  0  0
    5.5713    1.0301    0.6750 H   0  0  0  0  0  0  0  0  0  0  0  0
    4.5263    1.7637   -0.5661 H   0  0  0  0  0  0  0  0  0  0  0  0
    6.2260    1.3104   -0.9817 H   0  0  0  0  0  0  0  0  0  0  0  0
    5.0416   -1.1016   -0.0063 H   0  0  0  0  0  0  0  0  0  0  0  0
    5.3960   -0.7555   -1.7333 H   0  0  0  0  0  0  0  0  0  0  0  0
   -0.4040   -2.6207    0.3105 H   0  0  0  0  0  0  0  0  0  0  0  0
    1.3372   -2.3785    0.1760 H   0  0  0  0  0  0  0  0  0  0  0  0
    0.6087   -2.0651    1.7502 H   0  0  0  0  0  0  0  0  0  0  0  0
    2.2546    2.5679   -1.2759 H   0  0  0  0  0  0  0  0  0  0  0  0
    1.4519    3.4170    0.1497 H   0  0  0  0  0  0  0  0  0  0  0  0
    0.6222    3.3572   -1.4185 H   0  0  0  0  0  0  0  0  0  0  0  0
   -3.1598    0.7884   -1.0898 H   0  0  0  0  0  0  0  0  0  0  0  0
   -5.9055   -1.6080    1.0058 H   0  0  0  0  0  0  0  0  0  0  0  0
   -4.0664   -2.4938    2.4517 H   0  0  0  0  0  0  0  0  0  0  0  0
   -1.7430   -1.6793    2.0664 H   0  0  0  0  0  0  0  0  0  0  0  0
  1  2  1  0
  2  3  1  0
  3  4  1  0
  4  5  2  0
  4  6  1  0
  6  7  2  0
  7  8  1  0
  7  9  1  0
  9 10  1  0
 10 11  2  0
 11 12  1  0
  9 13  1  0
 13 14  2  0
 14 15  1  0
 15 16  2  0
 16 17  1  0
 17 18  2  0
 15 19  1  0
 19 20  1  0
 19 21  2  0
 11  6  1  0
 18 13  1  0
  1 22  1  0
  1 23  1  0
  1 24  1  0
  2 25  1  0
  2 26  1  0
  8 27  1  0
  8 28  1  0
  8 29  1  0
 12 30  1  0
 12 31  1  0
 12 32  1  0
 14 33  1  0
 16 34  1  0
 17 35  1  0
 18 36  1  0
M  CHG  2  19   1  20  -1
M  END
$$$$
