
     RDKit          3D

 78 81  0  0  0  0  0  0  0  0999 V2000
    3.4096    0.1595    2.8353 C   0  0  0  0  0  0  0  0  0  0  0  0
    4.7375   -0.3762    2.4043 C   0  0  0  0  0  0  0  0  0  0  0  0
    4.7372   -1.2155    1.1820 C   0  0  0  0  0  0  0  0  0  0  0  0
    4.2951   -0.6221   -0.0286 N   0  0  0  0  0  0  0  0  0  0  0  0
    2.9819   -0.6310   -0.5565 C   0  0  0  0  0  0  0  0  0  0  0  0
    2.5068   -1.6393   -1.3599 C   0  0  0  0  0  0  0  0  0  0  0  0
    1.2104   -1.6535   -1.8770 C   0  0  0  0  0  0  0  0  0  0  0  0
    0.3293   -0.6506   -1.6159 C   0  0  0  0  0  0  0  0  0  0  0  0
    0.7643    0.3881   -0.7968 C   0  0  0  0  0  0  0  0  0  0  0  0
    2.0787    0.3696   -0.2937 C   0  0  0  0  0  0  0  0  0  0  0  0
   -0.0303    1.4899   -0.1996 C   0  0  0  0  0  0  0  0  0  0  0  0
    0.3575    1.9141    0.9894 O   0  0  0  0  0  0  0  0  0  0  0  0
   -1.1362    2.2725   -0.4979 N   0  0  0  0  0  0  0  0  0  0  0  0
   -1.7259    3.2782    0.3628 C   0  0  1  0  0  0  0  0  0  0  0  0
   -1.8212    4.6159   -0.2693 C   0  0  0  0  0  0  0  0  0  0  0  0
   -1.4245    5.7774    0.3571 C   0  0  0  0  0  0  0  0  0  0  0  0
   -1.5385    7.0050   -0.2630 C   0  0  0  0  0  0  0  0  0  0  0  0
   -2.0596    7.0910   -1.5424 C   0  0  0  0  0  0  0  0  0  0  0  0
   -2.4597    5.9395   -2.1804 C   0  0  0  0  0  0  0  0  0  0  0  0
   -2.3347    4.7196   -1.5348 C   0  0  0  0  0  0  0  0  0  0  0  0
   -3.0819    2.8438    0.8751 C   0  0  0  0  0  0  0  0  0  0  0  0
   -3.0326    1.6837    1.7562 C   0  0  0  0  0  0  0  0  0  0  0  0
   -3.1492    0.2522    1.4243 C   0  0  0  0  0  0  0  0  0  0  0  0
   -3.7537   -0.4093    2.5572 C   0  0  0  0  0  0  0  0  0  0  0  0
   -4.0234   -1.7381    2.6123 C   0  0  0  0  0  0  0  0  0  0  0  0
   -3.6816   -2.4460    1.5040 C   0  0  0  0  0  0  0  0  0  0  0  0
   -3.0796   -1.8691    0.3482 C   0  0  0  0  0  0  0  0  0  0  0  0
   -2.8278   -0.5190    0.3399 C   0  0  0  0  0  0  0  0  0  0  0  0
   -2.8361   -2.9736   -0.6309 C   0  0  0  0  0  0  0  0  0  0  0  0
   -1.7478   -3.9264   -0.3752 C   0  0  1  0  0  0  0  0  0  0  0  0
   -1.7654   -4.5666    1.0256 C   0  0  0  0  0  0  0  0  0  0  0  0
   -2.0509   -5.1489   -1.2041 N   0  0  0  0  0  0  0  0  0  0  0  0
   -0.3579   -3.6013   -0.7962 C   0  0  0  0  0  0  0  0  0  0  0  0
   -0.3124   -3.4821   -2.1873 O   0  0  0  0  0  0  0  0  0  0  0  0
    0.9488   -2.9807   -2.5719 C   0  0  0  0  0  0  0  0  0  0  0  0
    5.4793    0.1984   -1.0228 S   0  0  0  0  0  6  0  0  0  0  0  0
    5.6226   -0.5971   -2.5973 C   0  0  0  0  0  0  0  0  0  0  0  0
    5.0509    1.6202   -1.2709 O   0  0  0  0  0  0  0  0  0  0  0  0
    6.7995    0.2637   -0.3089 O   0  0  0  0  0  0  0  0  0  0  0  0
    3.2932    1.2311    2.5947 H   0  0  0  0  0  0  0  0  0  0  0  0
    2.6214   -0.4813    2.4173 H   0  0  0  0  0  0  0  0  0  0  0  0
    3.2795    0.1077    3.9564 H   0  0  0  0  0  0  0  0  0  0  0  0
    5.0810   -1.0471    3.2479 H   0  0  0  0  0  0  0  0  0  0  0  0
    5.4886    0.4422    2.3918 H   0  0  0  0  0  0  0  0  0  0  0  0
    4.1196   -2.1330    1.4290 H   0  0  0  0  0  0  0  0  0  0  0  0
    5.8050   -1.5524    1.0225 H   0  0  0  0  0  0  0  0  0  0  0  0
    3.2315   -2.4454   -1.5748 H   0  0  0  0  0  0  0  0  0  0  0  0
   -0.7100   -0.5831   -2.1105 H   0  0  0  0  0  0  0  0  0  0  0  0
    2.4639    1.1862    0.3452 H   0  0  0  0  0  0  0  0  0  0  0  0
   -1.6861    2.2541   -1.3719 H   0  0  0  0  0  0  0  0  0  0  0  0
   -1.1252    3.4424    1.2904 H   0  0  0  0  0  0  0  0  0  0  0  0
   -1.0208    5.7393    1.3396 H   0  0  0  0  0  0  0  0  0  0  0  0
   -1.2285    7.9396    0.2173 H   0  0  0  0  0  0  0  0  0  0  0  0
   -2.1448    8.0625   -2.0195 H   0  0  0  0  0  0  0  0  0  0  0  0
   -2.8709    5.9711   -3.1780 H   0  0  0  0  0  0  0  0  0  0  0  0
   -2.6749    3.8386   -2.0982 H   0  0  0  0  0  0  0  0  0  0  0  0
   -3.4422    3.7483    1.4726 H   0  0  0  0  0  0  0  0  0  0  0  0
   -3.7954    2.7120    0.0039 H   0  0  0  0  0  0  0  0  0  0  0  0
   -3.7753    1.9679    2.5901 H   0  0  0  0  0  0  0  0  0  0  0  0
   -2.0550    1.7924    2.4227 H   0  0  0  0  0  0  0  0  0  0  0  0
   -4.0170    0.1791    3.4549 H   0  0  0  0  0  0  0  0  0  0  0  0
   -4.4820   -2.1942    3.4890 H   0  0  0  0  0  0  0  0  0  0  0  0
   -3.9279   -3.5096    1.5424 H   0  0  0  0  0  0  0  0  0  0  0  0
   -2.3544   -0.0308   -0.5763 H   0  0  0  0  0  0  0  0  0  0  0  0
   -2.8194   -2.7417   -1.7049 H   0  0  0  0  0  0  0  0  0  0  0  0
   -3.7905   -3.6569   -0.6082 H   0  0  0  0  0  0  0  0  0  0  0  0
   -0.8116   -5.1855    1.1381 H   0  0  0  0  0  0  0  0  0  0  0  0
   -2.5479   -5.3280    1.1359 H   0  0  0  0  0  0  0  0  0  0  0  0
   -1.6589   -3.8294    1.8316 H   0  0  0  0  0  0  0  0  0  0  0  0
   -2.1034   -4.8288   -2.1973 H   0  0  0  0  0  0  0  0  0  0  0  0
   -1.2794   -5.8348   -1.0305 H   0  0  0  0  0  0  0  0  0  0  0  0
    0.0653   -2.7065   -0.2942 H   0  0  0  0  0  0  0  0  0  0  0  0
    0.3530   -4.4245   -0.5502 H   0  0  0  0  0  0  0  0  0  0  0  0
    0.9979   -2.9280   -3.6249 H   0  0  0  0  0  0  0  0  0  0  0  0
    1.6398   -3.7854   -2.1776 H   0  0  0  0  0  0  0  0  0  0  0  0
    4.6667   -0.4053   -3.1493 H   0  0  0  0  0  0  0  0  0  0  0  0
    6.4436   -0.1226   -3.1395 H   0  0  0  0  0  0  0  0  0  0  0  0
    5.6934   -1.6960   -2.5200 H   0  0  0  0  0  0  0  0  0  0  0  0
  1  2  1  0
  2  3  1  0
  3  4  1  0
  4  5  1  0
  5  6  2  0
  6  7  1  0
  7  8  2  0
  8  9  1  0
  9 10  2  0
  9 11  1  0
 11 12  2  0
 11 13  1  0
 13 14  1  0
 14 15  1  0
 15 16  2  0
 16 17  1  0
 17 18  2  0
 18 19  1  0
 19 20  2  0
 14 21  1  0
 21 22  1  0
 22 23  1  0
 23 24  2  0
 24 25  1  0
 25 26  2  0
 26 27  1  0
 27 28  2  0
 27 29  1  0
 29 30  1  0
 30 31  1  0
 30 32  1  6
 30 33  1  0
 33 34  1  0
 34 35  1  0
  4 36  1  0
 36 37  1  0
 36 38  2  0
 36 39  2  0
 10  5  1  0
 20 15  1  0
 28 23  1  0
 35  7  1  0
  1 40  1  0
  1 41  1  0
  1 42  1  0
  2 43  1  0
  2 44  1  0
  3 45  1  0
  3 46  1  0
  6 47  1  0
  8 48  1  0
 10 49  1  0
 13 50  1  0
 14 51  1  1
 16 52  1  0
 17 53  1  0
 18 54  1  0
 19 55  1  0
 20 56  1  0
 21 57  1  0
 21 58  1  0
 22 59  1  0
 22 60  1  0
 24 61  1  0
 25 62  1  0
 26 63  1  0
 28 64  1  0
 29 65  1  0
 29 66  1  0
 31 67  1  0
 31 68  1  0
 31 69  1  0
 32 70  1  0
 32 71  1  0
 33 72  1  0
 33 73  1  0
 35 74  1  0
 35 75  1  0
 37 76  1  0
 37 77  1  0
 37 78  1  0
M  END
$$$$
