@<TRIPOS>MOLECULE
*****
 78 81 0 0 0
SMALL
GASTEIGER

@<TRIPOS>ATOM
      1 C           3.4096    0.1595    2.8353 C.3     1  UNL1       -0.0638
      2 C           4.7375   -0.3762    2.4043 C.3     1  UNL1       -0.0383
      3 C           4.7372   -1.2155    1.1820 C.3     1  UNL1        0.0343
      4 N           4.2951   -0.6221   -0.0286 N.pl3   1  UNL1       -0.2076
      5 C           2.9819   -0.6310   -0.5565 C.ar    1  UNL1        0.0519
      6 C           2.5068   -1.6393   -1.3599 C.ar    1  UNL1       -0.0337
      7 C           1.2104   -1.6535   -1.8770 C.ar    1  UNL1       -0.0194
      8 C           0.3293   -0.6506   -1.6159 C.ar    1  UNL1       -0.0442
      9 C           0.7643    0.3881   -0.7968 C.ar    1  UNL1        0.0388
     10 C           2.0787    0.3696   -0.2937 C.ar    1  UNL1       -0.0270
     11 C          -0.0303    1.4899   -0.1996 C.2     1  UNL1        0.2446
     12 O           0.3575    1.9141    0.9894 O.2     1  UNL1       -0.2702
     13 N          -1.1362    2.2725   -0.4979 N.am    1  UNL1       -0.3045
     14 C          -1.7259    3.2782    0.3628 C.3     1  UNL1        0.0489
     15 C          -1.8212    4.6159   -0.2693 C.ar    1  UNL1       -0.0272
     16 C          -1.4245    5.7774    0.3571 C.ar    1  UNL1       -0.0568
     17 C          -1.5385    7.0050   -0.2630 C.ar    1  UNL1       -0.0614
     18 C          -2.0596    7.0910   -1.5424 C.ar    1  UNL1       -0.0617
     19 C          -2.4597    5.9395   -2.1804 C.ar    1  UNL1       -0.0614
     20 C          -2.3347    4.7196   -1.5348 C.ar    1  UNL1       -0.0568
     21 C          -3.0819    2.8438    0.8751 C.3     1  UNL1       -0.0263
     22 C          -3.0326    1.6837    1.7562 C.3     1  UNL1       -0.0257
     23 C          -3.1492    0.2522    1.4243 C.ar    1  UNL1       -0.0470
     24 C          -3.7537   -0.4093    2.5572 C.ar    1  UNL1       -0.0586
     25 C          -4.0234   -1.7381    2.6123 C.ar    1  UNL1       -0.0612
     26 C          -3.6816   -2.4460    1.5040 C.ar    1  UNL1       -0.0585
     27 C          -3.0796   -1.8691    0.3482 C.ar    1  UNL1       -0.0453
     28 C          -2.8278   -0.5190    0.3399 C.ar    1  UNL1       -0.0553
     29 C          -2.8361   -2.9736   -0.6309 C.3     1  UNL1       -0.0076
     30 C          -1.7478   -3.9264   -0.3752 C.3     1  UNL1        0.0413
     31 C          -1.7654   -4.5666    1.0256 C.3     1  UNL1       -0.0445
     32 N          -2.0509   -5.1489   -1.2041 N.3     1  UNL1       -0.3228
     33 C          -0.3579   -3.6013   -0.7962 C.3     1  UNL1        0.0661
     34 O          -0.3124   -3.4821   -2.1873 O.3     1  UNL1       -0.3734
     35 C           0.9488   -2.9807   -2.5719 C.3     1  UNL1        0.0728
     36 S           5.4793    0.1984   -1.0228 S.O2    1  UNL1        0.0426
     37 C           5.6226   -0.5971   -2.5973 C.3     1  UNL1        0.0738
     38 O           5.0509    1.6202   -1.2709 O.2     1  UNL1       -0.1553
     39 O           6.7995    0.2637   -0.3089 O.2     1  UNL1       -0.1553
     40 H           3.2932    1.2311    2.5947 H       1  UNL1        0.0230
     41 H           2.6214   -0.4813    2.4173 H       1  UNL1        0.0230
     42 H           3.2795    0.1077    3.9564 H       1  UNL1        0.0230
     43 H           5.0810   -1.0471    3.2479 H       1  UNL1        0.0278
     44 H           5.4886    0.4422    2.3918 H       1  UNL1        0.0278
     45 H           4.1196   -2.1330    1.4290 H       1  UNL1        0.0482
     46 H           5.8050   -1.5524    1.0225 H       1  UNL1        0.0482
     47 H           3.2315   -2.4454   -1.5748 H       1  UNL1        0.0640
     48 H          -0.7100   -0.5831   -2.1105 H       1  UNL1        0.0628
     49 H           2.4639    1.1862    0.3452 H       1  UNL1        0.0644
     50 H          -1.6861    2.2541   -1.3719 H       1  UNL1        0.1496
     51 H          -1.1252    3.4424    1.2904 H       1  UNL1        0.0548
     52 H          -1.0208    5.7393    1.3396 H       1  UNL1        0.0621
     53 H          -1.2285    7.9396    0.2173 H       1  UNL1        0.0618
     54 H          -2.1448    8.0625   -2.0195 H       1  UNL1        0.0618
     55 H          -2.8709    5.9711   -3.1780 H       1  UNL1        0.0618
     56 H          -2.6749    3.8386   -2.0982 H       1  UNL1        0.0621
     57 H          -3.4422    3.7483    1.4726 H       1  UNL1        0.0289
     58 H          -3.7954    2.7120    0.0039 H       1  UNL1        0.0289
     59 H          -3.7753    1.9679    2.5901 H       1  UNL1        0.0314
     60 H          -2.0550    1.7924    2.4227 H       1  UNL1        0.0314
     61 H          -4.0170    0.1791    3.4549 H       1  UNL1        0.0620
     62 H          -4.4820   -2.1942    3.4890 H       1  UNL1        0.0618
     63 H          -3.9279   -3.5096    1.5424 H       1  UNL1        0.0620
     64 H          -2.3544   -0.0308   -0.5763 H       1  UNL1        0.0623
     65 H          -2.8194   -2.7417   -1.7049 H       1  UNL1        0.0332
     66 H          -3.7905   -3.6569   -0.6082 H       1  UNL1        0.0332
     67 H          -0.8116   -5.1855    1.1381 H       1  UNL1        0.0248
     68 H          -2.5479   -5.3280    1.1359 H       1  UNL1        0.0248
     69 H          -1.6589   -3.8294    1.8316 H       1  UNL1        0.0248
     70 H          -2.1034   -4.8288   -2.1973 H       1  UNL1        0.1188
     71 H          -1.2794   -5.8348   -1.0305 H       1  UNL1        0.1188
     72 H           0.0653   -2.7065   -0.2942 H       1  UNL1        0.0578
     73 H           0.3530   -4.4245   -0.5502 H       1  UNL1        0.0578
     74 H           0.9979   -2.9280   -3.6249 H       1  UNL1        0.0610
     75 H           1.6398   -3.7854   -2.1776 H       1  UNL1        0.0610
     76 H           4.6667   -0.4053   -3.1493 H       1  UNL1        0.0482
     77 H           6.4436   -0.1226   -3.1395 H       1  UNL1        0.0482
     78 H           5.6934   -1.6960   -2.5200 H       1  UNL1        0.0482
@<TRIPOS>BOND
     1     1     2    1
     2     2     3    1
     3     3     4    1
     4     4     5    1
     5     5     6   ar
     6     6     7   ar
     7     7     8   ar
     8     8     9   ar
     9     9    10   ar
    10     9    11    1
    11    11    12    2
    12    11    13   am
    13    13    14    1
    14    14    15    1
    15    15    16   ar
    16    16    17   ar
    17    17    18   ar
    18    18    19   ar
    19    19    20   ar
    20    14    21    1
    21    21    22    1
    22    22    23    1
    23    23    24   ar
    24    24    25   ar
    25    25    26   ar
    26    26    27   ar
    27    27    28   ar
    28    27    29    1
    29    29    30    1
    30    30    31    1
    31    30    32    1
    32    30    33    1
    33    33    34    1
    34    34    35    1
    35     4    36    1
    36    36    37    1
    37    36    38    2
    38    36    39    2
    39    10     5   ar
    40    20    15   ar
    41    28    23   ar
    42    35     7    1
    43     1    40    1
    44     1    41    1
    45     1    42    1
    46     2    43    1
    47     2    44    1
    48     3    45    1
    49     3    46    1
    50     6    47    1
    51     8    48    1
    52    10    49    1
    53    13    50    1
    54    14    51    1
    55    16    52    1
    56    17    53    1
    57    18    54    1
    58    19    55    1
    59    20    56    1
    60    21    57    1
    61    21    58    1
    62    22    59    1
    63    22    60    1
    64    24    61    1
    65    25    62    1
    66    26    63    1
    67    28    64    1
    68    29    65    1
    69    29    66    1
    70    31    67    1
    71    31    68    1
    72    31    69    1
    73    32    70    1
    74    32    71    1
    75    33    72    1
    76    33    73    1
    77    35    74    1
    78    35    75    1
    79    37    76    1
    80    37    77    1
    81    37    78    1
