@<TRIPOS>MOLECULE
*****
 102 102 0 0 0
SMALL
GASTEIGER

@<TRIPOS>ATOM
      1 C           5.3763   -0.2981   -4.6859 C.3     1  UNL1       -0.0650
      2 C           5.0141   -1.6269   -4.0893 C.3     1  UNL1       -0.0512
      3 C           3.8370   -1.5242   -3.1090 C.3     1  UNL1       -0.0170
      4 C           2.6610   -0.9762   -3.8758 C.3     1  UNL1       -0.0603
      5 C           4.1972   -0.7678   -1.8651 C.3     1  UNL1        0.1050
      6 N           5.3173   -1.4346   -1.1892 N.am    1  UNL1       -0.2696
      7 C           6.5595   -0.7548   -1.0279 C.2     1  UNL1        0.4012
      8 O           6.7196    0.3865   -1.4595 O.2     1  UNL1       -0.2265
      9 O           7.6188   -1.3962   -0.3622 O.3     1  UNL1       -0.4456
     10 C           8.8787   -0.7916   -0.1730 C.3     1  UNL1        0.1191
     11 C           9.6866   -1.7787    0.6211 C.ar    1  UNL1       -0.0103
     12 C          10.4228   -2.7879    0.0343 C.ar    1  UNL1       -0.0554
     13 C          11.1707   -3.6902    0.7829 C.ar    1  UNL1       -0.0614
     14 C          11.1969   -3.5990    2.1552 C.ar    1  UNL1       -0.0617
     15 C          10.4507   -2.5779    2.7419 C.ar    1  UNL1       -0.0614
     16 C           9.7154   -1.6912    2.0046 C.ar    1  UNL1       -0.0554
     17 C           3.0471   -0.7329   -0.9001 C.2     1  UNL1        0.2343
     18 O           3.1549   -1.3745    0.1901 O.2     1  UNL1       -0.2738
     19 N           1.8382   -0.0388   -1.0950 N.am    1  UNL1       -0.3025
     20 C           0.7705   -0.0870   -0.0805 C.3     1  UNL1        0.0999
     21 C           0.5163    1.2331    0.5592 C.3     1  UNL1       -0.0159
     22 C           0.0955    2.3330   -0.3567 C.3     1  UNL1        0.0471
     23 C          -0.1012    3.5586    0.4510 C.2     1  UNL1        0.3076
     24 O           0.0970    3.5417    1.6943 O.2     1  UNL1       -0.2508
     25 O          -0.5044    4.7876   -0.0541 O.3     1  UNL1       -0.4589
     26 C          -0.6777    5.9261    0.7615 C.3     1  UNL1        0.1052
     27 C          -1.1046    7.0749   -0.1245 C.3     1  UNL1       -0.0254
     28 C          -1.7272    5.7360    1.8154 C.3     1  UNL1       -0.0254
     29 C           0.6245    6.2919    1.4727 C.3     1  UNL1       -0.0254
     30 C          -0.4344   -0.7587   -0.6200 C.2     1  UNL1        0.2340
     31 O          -0.4976   -1.0895   -1.8400 O.2     1  UNL1       -0.2738
     32 N          -1.5613   -1.0684    0.1846 N.am    1  UNL1       -0.3027
     33 C          -2.7496   -1.7159   -0.2531 C.3     1  UNL1        0.0966
     34 C          -2.6040   -3.2479   -0.1826 C.3     1  UNL1       -0.0381
     35 C          -3.9245   -1.2720    0.4918 C.2     1  UNL1        0.2335
     36 O          -3.8154   -0.2882    1.2832 O.2     1  UNL1       -0.2738
     37 N          -5.1951   -1.8626    0.4101 N.am    1  UNL1       -0.3075
     38 C          -6.3320   -1.3684    1.2198 C.3     1  UNL1        0.0432
     39 C          -6.2384   -2.1107    2.5487 C.2     1  UNL1       -0.0464
     40 C          -6.4800   -1.6724    3.7176 C.2     1  UNL1        0.0495
     41 S          -6.9975   -0.0537    4.1009 S.O2    1  UNL1       -0.0127
     42 C          -8.7292    0.1538    3.7053 C.3     1  UNL1        0.0589
     43 O          -6.7864    0.2062    5.5859 O.2     1  UNL1       -0.1702
     44 O          -6.1339    0.9249    3.3871 O.2     1  UNL1       -0.1702
     45 C          -7.6285   -1.7674    0.6281 C.3     1  UNL1       -0.0285
     46 C          -7.9274   -1.2761   -0.7454 C.3     1  UNL1       -0.0448
     47 C          -7.9953    0.2004   -0.9159 C.3     1  UNL1       -0.0626
     48 C          -9.2290   -1.9288   -1.2213 C.3     1  UNL1       -0.0626
     49 H           4.5584    0.1065   -5.3303 H       1  UNL1        0.0230
     50 H           6.2299   -0.5096   -5.3921 H       1  UNL1        0.0230
     51 H           5.6266    0.4807   -3.9717 H       1  UNL1        0.0230
     52 H           4.6667   -2.2911   -4.9139 H       1  UNL1        0.0266
     53 H           5.8328   -2.1058   -3.5524 H       1  UNL1        0.0266
     54 H           3.5831   -2.6018   -2.8753 H       1  UNL1        0.0321
     55 H           2.7025   -1.3644   -4.9507 H       1  UNL1        0.0233
     56 H           2.7027    0.1433   -3.9781 H       1  UNL1        0.0233
     57 H           1.6858   -1.2529   -3.5036 H       1  UNL1        0.0233
     58 H           4.4852    0.2441   -2.1036 H       1  UNL1        0.0598
     59 H           5.2391   -2.4051   -0.8156 H       1  UNL1        0.1528
     60 H           8.7395    0.1194    0.4813 H       1  UNL1        0.0749
     61 H           9.3824   -0.5376   -1.1265 H       1  UNL1        0.0749
     62 H          10.4238   -2.8863   -1.0354 H       1  UNL1        0.0621
     63 H          11.7218   -4.4568    0.2766 H       1  UNL1        0.0618
     64 H          11.7658   -4.2772    2.7900 H       1  UNL1        0.0618
     65 H          10.4802   -2.5202    3.8336 H       1  UNL1        0.0618
     66 H           9.1328   -0.8854    2.4800 H       1  UNL1        0.0621
     67 H           1.6966    0.5215   -1.9442 H       1  UNL1        0.1495
     68 H           1.1308   -0.7655    0.7477 H       1  UNL1        0.0595
     69 H           1.4519    1.5473    1.0644 H       1  UNL1        0.0293
     70 H          -0.2714    1.0948    1.3234 H       1  UNL1        0.0293
     71 H          -0.9057    2.1338   -0.8380 H       1  UNL1        0.0378
     72 H           0.8005    2.4726   -1.2069 H       1  UNL1        0.0378
     73 H          -1.9657    7.6498    0.3311 H       1  UNL1        0.0268
     74 H          -1.5039    6.7366   -1.1078 H       1  UNL1        0.0268
     75 H          -0.2723    7.7732   -0.3627 H       1  UNL1        0.0268
     76 H          -2.0012    6.7687    2.1793 H       1  UNL1        0.0268
     77 H          -1.3872    5.1848    2.7140 H       1  UNL1        0.0268
     78 H          -2.6794    5.3338    1.4067 H       1  UNL1        0.0268
     79 H           0.5588    7.3707    1.7591 H       1  UNL1        0.0268
     80 H           0.7512    5.7186    2.4031 H       1  UNL1        0.0268
     81 H           1.4862    6.2173    0.7711 H       1  UNL1        0.0268
     82 H          -1.5326   -0.7941    1.2055 H       1  UNL1        0.1495
     83 H          -2.8761   -1.5224   -1.3338 H       1  UNL1        0.0592
     84 H          -1.6853   -3.5111   -0.7250 H       1  UNL1        0.0252
     85 H          -2.7020   -3.6328    0.8302 H       1  UNL1        0.0252
     86 H          -3.4480   -3.6450   -0.7828 H       1  UNL1        0.0252
     87 H          -5.3554   -2.6682   -0.2335 H       1  UNL1        0.1493
     88 H          -6.1953   -0.3206    1.4937 H       1  UNL1        0.0543
     89 H          -5.9146   -3.1765    2.4537 H       1  UNL1        0.0603
     90 H          -6.3581   -2.3488    4.5844 H       1  UNL1        0.0816
     91 H          -9.1890   -0.8653    3.7913 H       1  UNL1        0.0468
     92 H          -8.8799    0.5150    2.6698 H       1  UNL1        0.0468
     93 H          -9.2408    0.8416    4.3917 H       1  UNL1        0.0468
     94 H          -8.4722   -1.4121    1.2927 H       1  UNL1        0.0289
     95 H          -7.7187   -2.8834    0.6681 H       1  UNL1        0.0289
     96 H          -7.1017   -1.6687   -1.4068 H       1  UNL1        0.0296
     97 H          -7.2193    0.7280   -0.3588 H       1  UNL1        0.0232
     98 H          -9.0139    0.5887   -0.6853 H       1  UNL1        0.0232
     99 H          -7.8416    0.4336   -2.0051 H       1  UNL1        0.0232
    100 H          -9.9140   -1.9860   -0.3248 H       1  UNL1        0.0232
    101 H          -9.0395   -3.0032   -1.4812 H       1  UNL1        0.0232
    102 H          -9.7423   -1.3719   -1.9992 H       1  UNL1        0.0232
@<TRIPOS>BOND
     1     1     2    1
     2     2     3    1
     3     3     4    1
     4     3     5    1
     5     5     6    1
     6     6     7   am
     7     7     8    2
     8     7     9    1
     9     9    10    1
    10    10    11    1
    11    11    12   ar
    12    12    13   ar
    13    13    14   ar
    14    14    15   ar
    15    15    16   ar
    16     5    17    1
    17    17    18    2
    18    17    19   am
    19    19    20    1
    20    20    21    1
    21    21    22    1
    22    22    23    1
    23    23    24    2
    24    23    25    1
    25    25    26    1
    26    26    27    1
    27    26    28    1
    28    26    29    1
    29    20    30    1
    30    30    31    2
    31    30    32   am
    32    32    33    1
    33    33    34    1
    34    33    35    1
    35    35    36    2
    36    35    37   am
    37    37    38    1
    38    38    39    1
    39    39    40    2
    40    40    41    1
    41    41    42    1
    42    41    43    2
    43    41    44    2
    44    38    45    1
    45    45    46    1
    46    46    47    1
    47    46    48    1
    48    16    11   ar
    49     1    49    1
    50     1    50    1
    51     1    51    1
    52     2    52    1
    53     2    53    1
    54     3    54    1
    55     4    55    1
    56     4    56    1
    57     4    57    1
    58     5    58    1
    59     6    59    1
    60    10    60    1
    61    10    61    1
    62    12    62    1
    63    13    63    1
    64    14    64    1
    65    15    65    1
    66    16    66    1
    67    19    67    1
    68    20    68    1
    69    21    69    1
    70    21    70    1
    71    22    71    1
    72    22    72    1
    73    27    73    1
    74    27    74    1
    75    27    75    1
    76    28    76    1
    77    28    77    1
    78    28    78    1
    79    29    79    1
    80    29    80    1
    81    29    81    1
    82    32    82    1
    83    33    83    1
    84    34    84    1
    85    34    85    1
    86    34    86    1
    87    37    87    1
    88    38    88    1
    89    39    89    1
    90    40    90    1
    91    42    91    1
    92    42    92    1
    93    42    93    1
    94    45    94    1
    95    45    95    1
    96    46    96    1
    97    47    97    1
    98    47    98    1
    99    47    99    1
   100    48   100    1
   101    48   101    1
   102    48   102    1
