@<TRIPOS>MOLECULE
*****
 58 62 0 0 0
SMALL
GASTEIGER

@<TRIPOS>ATOM
      1 C          -7.0579    1.6083    0.0040 C.3     1  UNL1       -0.0396
      2 C          -5.5892    1.4561    0.0638 C.ar    1  UNL1       -0.0483
      3 C          -4.8296    2.2523   -0.7655 C.ar    1  UNL1       -0.0580
      4 C          -3.4700    2.1267   -0.7262 C.ar    1  UNL1       -0.0473
      5 C          -2.8102    1.2440    0.1000 C.ar    1  UNL1        0.0640
      6 C          -1.3472    1.1010    0.1393 C.2     1  UNL1        0.2491
      7 O          -0.6723    1.7904    0.9461 O.2     1  UNL1       -0.2699
      8 N          -0.6663    0.2042   -0.7098 N.am    1  UNL1       -0.2895
      9 C          -1.4733   -0.5945   -1.6443 C.3     1  UNL1        0.0414
     10 C          -1.0225   -2.0141   -1.4673 C.3     1  UNL1        0.0717
     11 C          -1.8337   -2.9750   -2.3154 C.3     1  UNL1       -0.0372
     12 O           0.2878   -2.1413   -1.8276 O.3     1  UNL1       -0.3734
     13 C           0.9950   -0.9387   -1.9480 C.3     1  UNL1        0.0669
     14 C           0.7510   -0.0300   -0.7742 C.3     1  UNL1        0.0538
     15 C           1.5714    1.1960   -0.8547 C.3     1  UNL1       -0.0040
     16 C           3.0376    0.8773   -0.9371 C.ar    1  UNL1       -0.0083
     17 C           3.7559    0.7681    0.2599 C.ar    1  UNL1       -0.0286
     18 C           5.0790    0.4249    0.2348 C.ar    1  UNL1        0.0866
     19 N           5.8107    0.3075    1.4764 N.ar    1  UNL1       -0.1503
     20 N           6.6807   -0.6162    1.8179 N.ar    1  UNL1       -0.1556
     21 C           7.1543   -0.3988    3.0480 C.ar    1  UNL1        0.0697
     22 C           6.5314    0.7389    3.4942 C.ar    1  UNL1        0.0697
     23 N           5.7160    1.1357    2.4937 N.ar    1  UNL1       -0.1556
     24 C           5.7317    0.1811   -0.9552 C.ar    1  UNL1       -0.0318
     25 C           5.0508    0.2830   -2.1323 C.ar    1  UNL1       -0.0241
     26 C           3.7068    0.6323   -2.1074 C.ar    1  UNL1        0.1267
     27 F           3.0297    0.7856   -3.2968 F       1  UNL1       -0.2052
     28 C          -3.5670    0.4462    0.9308 C.ar    1  UNL1        0.0985
     29 N          -2.9256   -0.4687    1.7954 N.ar    1  UNL1       -0.1496
     30 N          -1.9236   -0.2183    2.6128 N.ar    1  UNL1       -0.1556
     31 C          -1.5730   -1.3345    3.2840 C.ar    1  UNL1        0.0697
     32 C          -2.4235   -2.3236    2.8385 C.ar    1  UNL1        0.0697
     33 N          -3.2227   -1.7427    1.9366 N.ar    1  UNL1       -0.1556
     34 C          -4.9628    0.5671    0.8984 C.ar    1  UNL1       -0.0309
     35 H          -7.5695    0.7213    0.4119 H       1  UNL1        0.0278
     36 H          -7.3566    1.6989   -1.0723 H       1  UNL1        0.0278
     37 H          -7.3757    2.5563    0.4827 H       1  UNL1        0.0278
     38 H          -5.2810    2.9574   -1.4305 H       1  UNL1        0.0620
     39 H          -2.8697    2.7534   -1.3795 H       1  UNL1        0.0626
     40 H          -1.2630   -0.2264   -2.6461 H       1  UNL1        0.0490
     41 H          -2.5552   -0.5193   -1.4088 H       1  UNL1        0.0490
     42 H          -1.1982   -2.3221   -0.3964 H       1  UNL1        0.0609
     43 H          -1.1727   -3.8162   -2.5835 H       1  UNL1        0.0255
     44 H          -2.1602   -2.5176   -3.2733 H       1  UNL1        0.0255
     45 H          -2.6737   -3.3650   -1.7214 H       1  UNL1        0.0255
     46 H           2.0626   -1.2264   -1.9757 H       1  UNL1        0.0578
     47 H           0.7441   -0.4131   -2.8796 H       1  UNL1        0.0578
     48 H           1.0957   -0.5612    0.1842 H       1  UNL1        0.0526
     49 H           1.3546    1.7619   -1.7869 H       1  UNL1        0.0333
     50 H           1.4003    1.9074   -0.0127 H       1  UNL1        0.0333
     51 H           3.2541    0.9573    1.1966 H       1  UNL1        0.0643
     52 H           7.8752   -0.9785    3.6010 H       1  UNL1        0.0864
     53 H           6.6921    1.1937    4.4646 H       1  UNL1        0.0864
     54 H           6.7872   -0.0913   -0.9410 H       1  UNL1        0.0640
     55 H           5.5289    0.0997   -3.0900 H       1  UNL1        0.0647
     56 H          -0.8060   -1.5005    4.0241 H       1  UNL1        0.0864
     57 H          -2.4794   -3.3570    3.1190 H       1  UNL1        0.0864
     58 H          -5.5533   -0.0427    1.5343 H       1  UNL1        0.0642
@<TRIPOS>BOND
     1     1     2    1
     2     2     3   ar
     3     3     4   ar
     4     4     5   ar
     5     5     6    1
     6     6     7    2
     7     6     8   am
     8     8     9    1
     9     9    10    1
    10    10    11    1
    11    10    12    1
    12    12    13    1
    13    13    14    1
    14    14    15    1
    15    15    16    1
    16    16    17   ar
    17    17    18   ar
    18    18    19    1
    19    19    20   ar
    20    20    21   ar
    21    21    22   ar
    22    22    23   ar
    23    18    24   ar
    24    24    25   ar
    25    25    26   ar
    26    26    27    1
    27     5    28   ar
    28    28    29    1
    29    29    30   ar
    30    30    31   ar
    31    31    32   ar
    32    32    33   ar
    33    28    34   ar
    34    34     2   ar
    35    14     8    1
    36    26    16   ar
    37    33    29   ar
    38    23    19   ar
    39     1    35    1
    40     1    36    1
    41     1    37    1
    42     3    38    1
    43     4    39    1
    44     9    40    1
    45     9    41    1
    46    10    42    1
    47    11    43    1
    48    11    44    1
    49    11    45    1
    50    13    46    1
    51    13    47    1
    52    14    48    1
    53    15    49    1
    54    15    50    1
    55    17    51    1
    56    21    52    1
    57    22    53    1
    58    24    54    1
    59    25    55    1
    60    31    56    1
    61    32    57    1
    62    34    58    1
