
     RDKit          3D

 58 62  0  0  0  0  0  0  0  0999 V2000
   -7.0579    1.6083    0.0040 C   0  0  0  0  0  0  0  0  0  0  0  0
   -5.5892    1.4561    0.0638 C   0  0  0  0  0  0  0  0  0  0  0  0
   -4.8296    2.2523   -0.7655 C   0  0  0  0  0  0  0  0  0  0  0  0
   -3.4700    2.1267   -0.7262 C   0  0  0  0  0  0  0  0  0  0  0  0
   -2.8102    1.2440    0.1000 C   0  0  0  0  0  0  0  0  0  0  0  0
   -1.3472    1.1010    0.1393 C   0  0  0  0  0  0  0  0  0  0  0  0
   -0.6723    1.7904    0.9461 O   0  0  0  0  0  0  0  0  0  0  0  0
   -0.6663    0.2042   -0.7098 N   0  0  0  0  0  0  0  0  0  0  0  0
   -1.4733   -0.5945   -1.6443 C   0  0  0  0  0  0  0  0  0  0  0  0
   -1.0225   -2.0141   -1.4673 C   0  0  1  0  0  0  0  0  0  0  0  0
   -1.8337   -2.9750   -2.3154 C   0  0  0  0  0  0  0  0  0  0  0  0
    0.2878   -2.1413   -1.8276 O   0  0  0  0  0  0  0  0  0  0  0  0
    0.9950   -0.9387   -1.9480 C   0  0  0  0  0  0  0  0  0  0  0  0
    0.7510   -0.0300   -0.7742 C   0  0  1  0  0  0  0  0  0  0  0  0
    1.5714    1.1960   -0.8547 C   0  0  0  0  0  0  0  0  0  0  0  0
    3.0376    0.8773   -0.9371 C   0  0  0  0  0  0  0  0  0  0  0  0
    3.7559    0.7681    0.2599 C   0  0  0  0  0  0  0  0  0  0  0  0
    5.0790    0.4249    0.2348 C   0  0  0  0  0  0  0  0  0  0  0  0
    5.8107    0.3075    1.4764 N   0  0  0  0  0  0  0  0  0  0  0  0
    6.6807   -0.6162    1.8179 N   0  0  0  0  0  0  0  0  0  0  0  0
    7.1543   -0.3988    3.0480 C   0  0  0  0  0  0  0  0  0  0  0  0
    6.5314    0.7389    3.4942 C   0  0  0  0  0  0  0  0  0  0  0  0
    5.7160    1.1357    2.4937 N   0  0  0  0  0  0  0  0  0  0  0  0
    5.7317    0.1811   -0.9552 C   0  0  0  0  0  0  0  0  0  0  0  0
    5.0508    0.2830   -2.1323 C   0  0  0  0  0  0  0  0  0  0  0  0
    3.7068    0.6323   -2.1074 C   0  0  0  0  0  0  0  0  0  0  0  0
    3.0297    0.7856   -3.2968 F   0  0  0  0  0  0  0  0  0  0  0  0
   -3.5670    0.4462    0.9308 C   0  0  0  0  0  0  0  0  0  0  0  0
   -2.9256   -0.4687    1.7954 N   0  0  0  0  0  0  0  0  0  0  0  0
   -1.9236   -0.2183    2.6128 N   0  0  0  0  0  0  0  0  0  0  0  0
   -1.5730   -1.3345    3.2840 C   0  0  0  0  0  0  0  0  0  0  0  0
   -2.4235   -2.3236    2.8385 C   0  0  0  0  0  0  0  0  0  0  0  0
   -3.2227   -1.7427    1.9366 N   0  0  0  0  0  0  0  0  0  0  0  0
   -4.9628    0.5671    0.8984 C   0  0  0  0  0  0  0  0  0  0  0  0
   -7.5695    0.7213    0.4119 H   0  0  0  0  0  0  0  0  0  0  0  0
   -7.3566    1.6989   -1.0723 H   0  0  0  0  0  0  0  0  0  0  0  0
   -7.3757    2.5563    0.4827 H   0  0  0  0  0  0  0  0  0  0  0  0
   -5.2810    2.9574   -1.4305 H   0  0  0  0  0  0  0  0  0  0  0  0
   -2.8697    2.7534   -1.3795 H   0  0  0  0  0  0  0  0  0  0  0  0
   -1.2630   -0.2264   -2.6461 H   0  0  0  0  0  0  0  0  0  0  0  0
   -2.5552   -0.5193   -1.4088 H   0  0  0  0  0  0  0  0  0  0  0  0
   -1.1982   -2.3221   -0.3964 H   0  0  0  0  0  0  0  0  0  0  0  0
   -1.1727   -3.8162   -2.5835 H   0  0  0  0  0  0  0  0  0  0  0  0
   -2.1602   -2.5176   -3.2733 H   0  0  0  0  0  0  0  0  0  0  0  0
   -2.6737   -3.3650   -1.7214 H   0  0  0  0  0  0  0  0  0  0  0  0
    2.0626   -1.2264   -1.9757 H   0  0  0  0  0  0  0  0  0  0  0  0
    0.7441   -0.4131   -2.8796 H   0  0  0  0  0  0  0  0  0  0  0  0
    1.0957   -0.5612    0.1842 H   0  0  0  0  0  0  0  0  0  0  0  0
    1.3546    1.7619   -1.7869 H   0  0  0  0  0  0  0  0  0  0  0  0
    1.4003    1.9074   -0.0127 H   0  0  0  0  0  0  0  0  0  0  0  0
    3.2541    0.9573    1.1966 H   0  0  0  0  0  0  0  0  0  0  0  0
    7.8752   -0.9785    3.6010 H   0  0  0  0  0  0  0  0  0  0  0  0
    6.6921    1.1937    4.4646 H   0  0  0  0  0  0  0  0  0  0  0  0
    6.7872   -0.0913   -0.9410 H   0  0  0  0  0  0  0  0  0  0  0  0
    5.5289    0.0997   -3.0900 H   0  0  0  0  0  0  0  0  0  0  0  0
   -0.8060   -1.5005    4.0241 H   0  0  0  0  0  0  0  0  0  0  0  0
   -2.4794   -3.3570    3.1190 H   0  0  0  0  0  0  0  0  0  0  0  0
   -5.5533   -0.0427    1.5343 H   0  0  0  0  0  0  0  0  0  0  0  0
  1  2  1  0
  2  3  2  0
  3  4  1  0
  4  5  2  0
  5  6  1  0
  6  7  2  0
  6  8  1  0
  8  9  1  0
  9 10  1  0
 10 11  1  0
 10 12  1  0
 12 13  1  0
 13 14  1  0
 14 15  1  0
 15 16  1  0
 16 17  2  0
 17 18  1  0
 18 19  1  0
 19 20  1  0
 20 21  2  0
 21 22  1  0
 22 23  2  0
 18 24  2  0
 24 25  1  0
 25 26  2  0
 26 27  1  0
  5 28  1  0
 28 29  1  0
 29 30  1  0
 30 31  2  0
 31 32  1  0
 32 33  2  0
 28 34  2  0
 34  2  1  0
 14  8  1  0
 26 16  1  0
 33 29  1  0
 23 19  1  0
  1 35  1  0
  1 36  1  0
  1 37  1  0
  3 38  1  0
  4 39  1  0
  9 40  1  0
  9 41  1  0
 10 42  1  1
 11 43  1  0
 11 44  1  0
 11 45  1  0
 13 46  1  0
 13 47  1  0
 14 48  1  1
 15 49  1  0
 15 50  1  0
 17 51  1  0
 21 52  1  0
 22 53  1  0
 24 54  1  0
 25 55  1  0
 31 56  1  0
 32 57  1  0
 34 58  1  0
M  END
$$$$
