
     RDKit          3D

 58 62  0  0  0  0  0  0  0  0999 V2000
    6.7194    3.9984    1.7188 C   0  0  0  0  0  0  0  0  0  0  0  0
    6.0314    3.4651    0.6258 O   0  0  0  0  0  0  0  0  0  0  0  0
    5.0262    2.5113    0.7802 C   0  0  0  0  0  0  0  0  0  0  0  0
    4.3567    1.9967   -0.3266 C   0  0  0  0  0  0  0  0  0  0  0  0
    3.3727    1.0569   -0.1139 C   0  0  0  0  0  0  0  0  0  0  0  0
    3.0682    0.6458    1.1587 C   0  0  0  0  0  0  0  0  0  0  0  0
    2.1654   -0.2457    1.6474 C   0  0  0  0  0  0  0  0  0  0  0  0
    1.2206   -1.0585    0.9538 N   0  0  0  0  0  0  0  0  0  0  0  0
   -0.0917   -1.1251    1.1556 C   0  0  0  0  0  0  0  0  0  0  0  0
   -0.7025   -0.4518    2.0218 O   0  0  0  0  0  0  0  0  0  0  0  0
   -0.6834   -1.9981    0.3222 N   0  0  0  0  0  0  0  0  0  0  0  0
   -2.0918   -2.3400    0.2421 C   0  0  0  0  0  0  0  0  0  0  0  0
   -2.8463   -1.4971   -0.6844 C   0  0  0  0  0  0  0  0  0  0  0  0
   -3.0472   -1.7354   -2.0190 C   0  0  0  0  0  0  0  0  0  0  0  0
   -3.7754   -0.8803   -2.8149 C   0  0  0  0  0  0  0  0  0  0  0  0
   -4.3220    0.2487   -2.2671 C   0  0  0  0  0  0  0  0  0  0  0  0
   -5.2518    1.3572   -3.2448 Cl  0  0  0  0  0  0  0  0  0  0  0  0
   -4.1541    0.5493   -0.9133 C   0  0  0  0  0  0  0  0  0  0  0  0
   -4.7440    1.7074   -0.4643 O   0  0  0  0  0  0  0  0  0  0  0  0
   -4.6610    2.1316    0.8533 C   0  0  1  0  0  0  0  0  0  0  0  0
   -4.0274    3.5369    0.8038 C   0  0  0  0  0  0  0  0  0  0  0  0
   -6.0130    2.3270    1.4661 C   0  0  0  0  0  0  0  0  0  0  0  0
   -7.0361    2.1032    0.7748 O   0  0  0  0  0  0  0  0  0  0  0  0
   -6.1447    2.7462    2.7692 O   0  0  0  0  0  0  0  0  0  0  0  0
   -3.4195   -0.3321   -0.1545 C   0  0  0  0  0  0  0  0  0  0  0  0
    0.3133   -2.5007   -0.4377 C   0  0  0  0  0  0  0  0  0  0  0  0
    0.2400   -3.4385   -1.4507 C   0  0  0  0  0  0  0  0  0  0  0  0
    1.4190   -3.7996   -2.0935 C   0  0  0  0  0  0  0  0  0  0  0  0
    1.4373   -4.7977   -3.1919 C   0  0  0  0  0  0  0  0  0  0  0  0
    0.2136   -4.7528   -3.8503 F   0  0  0  0  0  0  0  0  0  0  0  0
    1.6268   -6.0438   -2.6551 F   0  0  0  0  0  0  0  0  0  0  0  0
    2.4797   -4.5421   -4.0676 F   0  0  0  0  0  0  0  0  0  0  0  0
    2.6068   -3.2211   -1.7079 C   0  0  0  0  0  0  0  0  0  0  0  0
    2.6767   -2.2861   -0.6973 C   0  0  0  0  0  0  0  0  0  0  0  0
    1.5101   -1.9222   -0.0539 C   0  0  0  0  0  0  0  0  0  0  0  0
    2.3339   -0.2230    2.9978 N   0  0  0  0  0  0  0  0  0  0  0  0
    3.2531    0.6012    3.3374 O   0  0  0  0  0  0  0  0  0  0  0  0
    3.7322    1.1554    2.2642 C   0  0  0  0  0  0  0  0  0  0  0  0
    4.7201    2.0993    2.0459 C   0  0  0  0  0  0  0  0  0  0  0  0
    6.0156    4.6544    2.2897 H   0  0  0  0  0  0  0  0  0  0  0  0
    7.5102    4.6709    1.3318 H   0  0  0  0  0  0  0  0  0  0  0  0
    7.1419    3.2264    2.3995 H   0  0  0  0  0  0  0  0  0  0  0  0
    4.6399    2.3576   -1.2947 H   0  0  0  0  0  0  0  0  0  0  0  0
    2.8385    0.6397   -0.9314 H   0  0  0  0  0  0  0  0  0  0  0  0
   -2.5853   -2.3012    1.2345 H   0  0  0  0  0  0  0  0  0  0  0  0
   -2.2242   -3.4060   -0.1026 H   0  0  0  0  0  0  0  0  0  0  0  0
   -2.6112   -2.6269   -2.4343 H   0  0  0  0  0  0  0  0  0  0  0  0
   -3.9177   -1.1058   -3.8936 H   0  0  0  0  0  0  0  0  0  0  0  0
   -4.1040    1.5169    1.5558 H   0  0  0  0  0  0  0  0  0  0  0  0
   -3.9625    3.9799    1.8091 H   0  0  0  0  0  0  0  0  0  0  0  0
   -3.0159    3.4509    0.3986 H   0  0  0  0  0  0  0  0  0  0  0  0
   -4.6446    4.1827    0.1528 H   0  0  0  0  0  0  0  0  0  0  0  0
   -6.9940    2.5490    3.3057 H   0  0  0  0  0  0  0  0  0  0  0  0
   -3.2836   -0.1062    0.9005 H   0  0  0  0  0  0  0  0  0  0  0  0
   -0.6673   -3.8977   -1.7642 H   0  0  0  0  0  0  0  0  0  0  0  0
    3.5113   -3.5161   -2.2208 H   0  0  0  0  0  0  0  0  0  0  0  0
    3.5878   -1.8250   -0.3824 H   0  0  0  0  0  0  0  0  0  0  0  0
    5.2536    2.5106    2.9159 H   0  0  0  0  0  0  0  0  0  0  0  0
  1  2  1  0
  2  3  1  0
  3  4  2  0
  4  5  1  0
  5  6  2  0
  6  7  1  0
  7  8  1  0
  8  9  1  0
  9 10  2  0
  9 11  1  0
 11 12  1  0
 12 13  1  0
 13 14  2  0
 14 15  1  0
 15 16  2  0
 16 17  1  0
 16 18  1  0
 18 19  1  0
 19 20  1  0
 20 21  1  0
 20 22  1  0
 22 23  2  0
 22 24  1  0
 18 25  2  0
 11 26  1  0
 26 27  2  0
 27 28  1  0
 28 29  1  0
 29 30  1  0
 29 31  1  0
 29 32  1  0
 28 33  2  0
 33 34  1  0
 34 35  2  0
  7 36  2  0
 36 37  1  0
 37 38  1  0
 38 39  2  0
 39  3  1  0
 38  6  1  0
 35  8  1  0
 25 13  1  0
 35 26  1  0
  1 40  1  0
  1 41  1  0
  1 42  1  0
  4 43  1  0
  5 44  1  0
 12 45  1  0
 12 46  1  0
 14 47  1  0
 15 48  1  0
 20 49  1  1
 21 50  1  0
 21 51  1  0
 21 52  1  0
 24 53  1  0
 25 54  1  0
 27 55  1  0
 33 56  1  0
 34 57  1  0
 39 58  1  0
M  END
$$$$
