
     RDKit          3D

 60 63  0  0  0  0  0  0  0  0999 V2000
    0.9872   -3.5619   -0.8623 C   0  0  0  0  0  0  0  0  0  0  0  0
    1.0346   -2.6647    0.3688 C   0  0  0  0  0  0  0  0  0  0  0  0
    1.3918   -3.4773    1.5927 C   0  0  0  0  0  0  0  0  0  0  0  0
   -0.2948   -2.0808    0.6549 C   0  0  0  0  0  0  0  0  0  0  0  0
   -1.2431   -2.8073    1.0495 O   0  0  0  0  0  0  0  0  0  0  0  0
   -0.2955   -0.6928    0.4259 N   0  0  0  0  0  0  0  0  0  0  0  0
   -1.3378    0.1467    0.0197 C   0  0  1  0  0  0  0  0  0  0  0  0
   -1.6856    0.0315   -1.4613 C   0  0  0  0  0  0  0  0  0  0  0  0
   -2.1942   -1.3405   -1.7020 C   0  0  0  0  0  0  0  0  0  0  0  0
   -3.4477   -1.5828   -0.9541 C   0  0  0  0  0  0  0  0  0  0  0  0
   -3.6230   -0.8962    0.3298 C   0  0  0  0  0  0  0  0  0  0  0  0
   -2.6141    0.1190    0.7357 C   0  0  0  0  0  0  0  0  0  0  0  0
   -3.2568    1.4907    0.5253 C   0  0  0  0  0  0  0  0  0  0  0  0
   -3.5848    1.6221   -0.9255 C   0  0  1  0  0  0  0  0  0  0  0  0
   -3.9458    3.0356   -1.2046 C   0  0  0  0  0  0  0  0  0  0  0  0
   -4.9904    3.7700   -0.6824 N   0  0  0  0  0  0  0  0  0  0  0  0
   -3.1772    3.6276   -2.0382 O   0  0  0  0  0  0  0  0  0  0  0  0
   -2.6325    1.0834   -1.8944 C   0  0  0  0  0  0  0  0  0  0  0  0
    1.1243   -0.3338    0.6896 C   0  0  0  0  0  0  0  0  0  0  0  0
    1.9005   -1.4781    0.1492 C   0  0  0  0  0  0  0  0  0  0  0  0
    3.2862   -1.6449    0.6997 C   0  0  0  0  0  0  0  0  0  0  0  0
    4.0986   -0.6268    0.5139 O   0  0  0  0  0  0  0  0  0  0  0  0
    4.4443    0.6288    0.6797 C   0  0  0  0  0  0  0  0  0  0  0  0
    5.6241    1.1305    0.1108 C   0  0  0  0  0  0  0  0  0  0  0  0
    5.9763    2.4458    0.2930 C   0  0  0  0  0  0  0  0  0  0  0  0
    5.1922    3.3080    1.0321 C   0  0  0  0  0  0  0  0  0  0  0  0
    5.6063    4.6743    1.1974 C   0  0  0  0  0  0  0  0  0  0  0  0
    5.9425    5.7665    1.3115 N   0  0  0  0  0  0  0  0  0  0  0  0
    4.0449    2.7884    1.5756 C   0  0  0  0  0  0  0  0  0  0  0  0
    3.7008    1.5038    1.3979 N   0  0  0  0  0  0  0  0  0  0  0  0
    1.7650   -4.3155   -0.7321 H   0  0  0  0  0  0  0  0  0  0  0  0
    1.1316   -2.9179   -1.7607 H   0  0  0  0  0  0  0  0  0  0  0  0
   -0.0118   -4.0544   -0.8694 H   0  0  0  0  0  0  0  0  0  0  0  0
    0.7493   -4.4040    1.5519 H   0  0  0  0  0  0  0  0  0  0  0  0
    2.4259   -3.8220    1.6212 H   0  0  0  0  0  0  0  0  0  0  0  0
    1.1238   -2.9267    2.5221 H   0  0  0  0  0  0  0  0  0  0  0  0
   -0.9075    1.2103    0.0273 H   0  0  0  0  0  0  0  0  0  0  0  0
   -0.6961    0.1125   -2.0019 H   0  0  0  0  0  0  0  0  0  0  0  0
   -1.3849   -2.0784   -1.5606 H   0  0  0  0  0  0  0  0  0  0  0  0
   -2.3928   -1.3963   -2.8246 H   0  0  0  0  0  0  0  0  0  0  0  0
   -3.4941   -2.6986   -0.7675 H   0  0  0  0  0  0  0  0  0  0  0  0
   -4.3102   -1.4236   -1.6678 H   0  0  0  0  0  0  0  0  0  0  0  0
   -3.7068   -1.6266    1.1953 H   0  0  0  0  0  0  0  0  0  0  0  0
   -4.6650   -0.4474    0.3223 H   0  0  0  0  0  0  0  0  0  0  0  0
   -2.3848    0.0665    1.8442 H   0  0  0  0  0  0  0  0  0  0  0  0
   -4.1720    1.5122    1.1589 H   0  0  0  0  0  0  0  0  0  0  0  0
   -2.5190    2.2411    0.8390 H   0  0  0  0  0  0  0  0  0  0  0  0
   -4.5792    1.0770   -1.0361 H   0  0  0  0  0  0  0  0  0  0  0  0
   -4.9218    4.2322    0.2401 H   0  0  0  0  0  0  0  0  0  0  0  0
   -5.8803    3.8818   -1.2092 H   0  0  0  0  0  0  0  0  0  0  0  0
   -2.0310    1.9149   -2.3471 H   0  0  0  0  0  0  0  0  0  0  0  0
   -3.1989    0.6641   -2.7805 H   0  0  0  0  0  0  0  0  0  0  0  0
    1.3446    0.6495    0.2670 H   0  0  0  0  0  0  0  0  0  0  0  0
    1.2102   -0.3364    1.7937 H   0  0  0  0  0  0  0  0  0  0  0  0
    1.9995   -1.3375   -0.9519 H   0  0  0  0  0  0  0  0  0  0  0  0
    3.6909   -2.5662    0.1530 H   0  0  0  0  0  0  0  0  0  0  0  0
    3.2657   -1.9455    1.7832 H   0  0  0  0  0  0  0  0  0  0  0  0
    6.2095    0.4480   -0.4551 H   0  0  0  0  0  0  0  0  0  0  0  0
    6.9010    2.8433   -0.1481 H   0  0  0  0  0  0  0  0  0  0  0  0
    3.4077    3.4588    2.1652 H   0  0  0  0  0  0  0  0  0  0  0  0
  1  2  1  0
  2  3  1  0
  2  4  1  0
  4  5  2  0
  4  6  1  0
  6  7  1  0
  7  8  1  0
  8  9  1  0
  9 10  1  0
 10 11  1  0
 11 12  1  0
 12 13  1  0
 13 14  1  0
 14 15  1  0
 15 16  1  0
 15 17  2  0
 14 18  1  0
  6 19  1  0
 19 20  1  0
 20 21  1  0
 21 22  1  0
 22 23  1  0
 23 24  2  0
 24 25  1  0
 25 26  2  0
 26 27  1  0
 27 28  3  0
 26 29  1  0
 29 30  2  0
 20  2  1  0
 30 23  1  0
 12  7  1  0
 18  8  1  0
  1 31  1  0
  1 32  1  0
  1 33  1  0
  3 34  1  0
  3 35  1  0
  3 36  1  0
  7 37  1  6
  8 38  1  0
  9 39  1  0
  9 40  1  0
 10 41  1  0
 10 42  1  0
 11 43  1  0
 11 44  1  0
 12 45  1  0
 13 46  1  0
 13 47  1  0
 14 48  1  1
 16 49  1  0
 16 50  1  0
 18 51  1  0
 18 52  1  0
 19 53  1  0
 19 54  1  0
 20 55  1  0
 21 56  1  0
 21 57  1  0
 24 58  1  0
 25 59  1  0
 29 60  1  0
M  END
$$$$
