@<TRIPOS>MOLECULE
*****
 60 63 0 0 0
SMALL
GASTEIGER

@<TRIPOS>ATOM
      1 C           0.9872   -3.5619   -0.8623 C.3     1  UNL1       -0.0511
      2 C           1.0346   -2.6647    0.3688 C.3     1  UNL1        0.0489
      3 C           1.3918   -3.4773    1.5927 C.3     1  UNL1       -0.0511
      4 C          -0.2948   -2.0808    0.6549 C.2     1  UNL1        0.2219
      5 O          -1.2431   -2.8073    1.0495 O.2     1  UNL1       -0.2750
      6 N          -0.2955   -0.6928    0.4259 N.am    1  UNL1       -0.2970
      7 C          -1.3378    0.1467    0.0197 C.3     1  UNL1        0.0317
      8 C          -1.6856    0.0315   -1.4613 C.3     1  UNL1       -0.0214
      9 C          -2.1942   -1.3405   -1.7020 C.3     1  UNL1       -0.0485
     10 C          -3.4477   -1.5828   -0.9541 C.3     1  UNL1       -0.0524
     11 C          -3.6230   -0.8962    0.3298 C.3     1  UNL1       -0.0485
     12 C          -2.6141    0.1190    0.7357 C.3     1  UNL1       -0.0214
     13 C          -3.2568    1.4907    0.5253 C.3     1  UNL1       -0.0374
     14 C          -3.5848    1.6221   -0.9255 C.3     1  UNL1        0.0360
     15 C          -3.9458    3.0356   -1.2046 C.2     1  UNL1        0.2136
     16 N          -4.9904    3.7700   -0.6824 N.am    1  UNL1       -0.3291
     17 O          -3.1772    3.6276   -2.0382 O.2     1  UNL1       -0.2757
     18 C          -2.6325    1.0834   -1.8944 C.3     1  UNL1       -0.0374
     19 C           1.1243   -0.3338    0.6896 C.3     1  UNL1        0.0219
     20 C           1.9005   -1.4781    0.1492 C.3     1  UNL1        0.0224
     21 C           3.2862   -1.6449    0.6997 C.3     1  UNL1        0.0964
     22 O           4.0986   -0.6268    0.5139 O.3     1  UNL1       -0.4760
     23 C           4.4443    0.6288    0.6797 C.ar    1  UNL1        0.2147
     24 C           5.6241    1.1305    0.1108 C.ar    1  UNL1        0.0012
     25 C           5.9763    2.4458    0.2930 C.ar    1  UNL1       -0.0379
     26 C           5.1922    3.3080    1.0321 C.ar    1  UNL1        0.0701
     27 C           5.6063    4.6743    1.1974 C.1     1  UNL1        0.1007
     28 N           5.9425    5.7665    1.3115 N.1     1  UNL1       -0.1908
     29 C           4.0449    2.7884    1.5756 C.ar    1  UNL1        0.0487
     30 N           3.7008    1.5038    1.3979 N.ar    1  UNL1       -0.2200
     31 H           1.7650   -4.3155   -0.7321 H       1  UNL1        0.0240
     32 H           1.1316   -2.9179   -1.7607 H       1  UNL1        0.0240
     33 H          -0.0118   -4.0544   -0.8694 H       1  UNL1        0.0240
     34 H           0.7493   -4.4040    1.5519 H       1  UNL1        0.0240
     35 H           2.4259   -3.8220    1.6212 H       1  UNL1        0.0240
     36 H           1.1238   -2.9267    2.5221 H       1  UNL1        0.0240
     37 H          -0.9075    1.2103    0.0273 H       1  UNL1        0.0506
     38 H          -0.6961    0.1125   -2.0019 H       1  UNL1        0.0319
     39 H          -1.3849   -2.0784   -1.5606 H       1  UNL1        0.0269
     40 H          -2.3928   -1.3963   -2.8246 H       1  UNL1        0.0269
     41 H          -3.4941   -2.6986   -0.7675 H       1  UNL1        0.0265
     42 H          -4.3102   -1.4236   -1.6678 H       1  UNL1        0.0265
     43 H          -3.7068   -1.6266    1.1953 H       1  UNL1        0.0269
     44 H          -4.6650   -0.4474    0.3223 H       1  UNL1        0.0269
     45 H          -2.3848    0.0665    1.8442 H       1  UNL1        0.0319
     46 H          -4.1720    1.5122    1.1589 H       1  UNL1        0.0276
     47 H          -2.5190    2.2411    0.8390 H       1  UNL1        0.0276
     48 H          -4.5792    1.0770   -1.0361 H       1  UNL1        0.0394
     49 H          -4.9218    4.2322    0.2401 H       1  UNL1        0.1449
     50 H          -5.8803    3.8818   -1.2092 H       1  UNL1        0.1449
     51 H          -2.0310    1.9149   -2.3471 H       1  UNL1        0.0276
     52 H          -3.1989    0.6641   -2.7805 H       1  UNL1        0.0276
     53 H           1.3446    0.6495    0.2670 H       1  UNL1        0.0469
     54 H           1.2102   -0.3364    1.7937 H       1  UNL1        0.0469
     55 H           1.9995   -1.3375   -0.9519 H       1  UNL1        0.0359
     56 H           3.6909   -2.5662    0.1530 H       1  UNL1        0.0700
     57 H           3.2657   -1.9455    1.7832 H       1  UNL1        0.0700
     58 H           6.2095    0.4480   -0.4551 H       1  UNL1        0.0671
     59 H           6.9010    2.8433   -0.1481 H       1  UNL1        0.0632
     60 H           3.4077    3.4588    2.1652 H       1  UNL1        0.0844
@<TRIPOS>BOND
     1     1     2    1
     2     2     3    1
     3     2     4    1
     4     4     5    2
     5     4     6   am
     6     6     7    1
     7     7     8    1
     8     8     9    1
     9     9    10    1
    10    10    11    1
    11    11    12    1
    12    12    13    1
    13    13    14    1
    14    14    15    1
    15    15    16   am
    16    15    17    2
    17    14    18    1
    18     6    19    1
    19    19    20    1
    20    20    21    1
    21    21    22    1
    22    22    23    1
    23    23    24   ar
    24    24    25   ar
    25    25    26   ar
    26    26    27    1
    27    27    28    3
    28    26    29   ar
    29    29    30   ar
    30    20     2    1
    31    30    23   ar
    32    12     7    1
    33    18     8    1
    34     1    31    1
    35     1    32    1
    36     1    33    1
    37     3    34    1
    38     3    35    1
    39     3    36    1
    40     7    37    1
    41     8    38    1
    42     9    39    1
    43     9    40    1
    44    10    41    1
    45    10    42    1
    46    11    43    1
    47    11    44    1
    48    12    45    1
    49    13    46    1
    50    13    47    1
    51    14    48    1
    52    16    49    1
    53    16    50    1
    54    18    51    1
    55    18    52    1
    56    19    53    1
    57    19    54    1
    58    20    55    1
    59    21    56    1
    60    21    57    1
    61    24    58    1
    62    25    59    1
    63    29    60    1
