@<TRIPOS>MOLECULE
*****
 40 42 0 0 0
SMALL
GASTEIGER

@<TRIPOS>ATOM
      1 C           4.0056    1.5077   -1.4839 C.3     1  UNL1       -0.0158
      2 N           3.9305    1.4444   -0.0271 N.3     1  UNL1       -0.3187
      3 C           2.5718    1.7620    0.4260 C.3     1  UNL1       -0.0012
      4 C           1.5992    0.6637    0.0188 C.3     1  UNL1       -0.0237
      5 C           2.0102   -0.6427    0.6276 C.3     1  UNL1       -0.0234
      6 C           0.9649   -1.6480    0.2183 C.ar    1  UNL1       -0.0433
      7 C           1.3822   -2.8963   -0.1923 C.ar    1  UNL1       -0.0583
      8 C           0.4676   -3.8558   -0.5809 C.ar    1  UNL1       -0.0615
      9 C          -0.8640   -3.5012   -0.5356 C.ar    1  UNL1       -0.0615
     10 C          -1.2844   -2.2441   -0.1223 C.ar    1  UNL1       -0.0577
     11 C          -0.3653   -1.2867    0.2657 C.ar    1  UNL1       -0.0368
     12 C          -0.7552    0.0512    0.7126 C.3     1  UNL1        0.0098
     13 C          -2.1110    0.4447    0.2846 C.ar    1  UNL1       -0.0385
     14 C          -3.1420    0.3193    1.1848 C.ar    1  UNL1       -0.0565
     15 C          -4.4521    0.6597    0.8910 C.ar    1  UNL1       -0.0417
     16 C          -4.7361    1.1474   -0.3630 C.ar    1  UNL1        0.0593
     17 CL         -6.3722    1.6065   -0.8231 Cl      1  UNL1       -0.0820
     18 C          -3.7099    1.2790   -1.2789 C.ar    1  UNL1        0.0595
     19 CL         -4.0828    1.9025   -2.8824 Cl      1  UNL1       -0.0820
     20 C          -2.4000    0.9344   -0.9732 C.ar    1  UNL1       -0.0382
     21 C           0.2268    1.1116    0.3783 C.3     1  UNL1       -0.0379
     22 H           4.9676    1.9407   -1.8282 H       1  UNL1        0.0388
     23 H           3.9534    0.4776   -1.9370 H       1  UNL1        0.0388
     24 H           3.1470    2.1425   -1.8031 H       1  UNL1        0.0388
     25 H           4.5731    2.1612    0.3871 H       1  UNL1        0.1216
     26 H           2.5866    1.9319    1.5196 H       1  UNL1        0.0427
     27 H           2.2971    2.7289   -0.0425 H       1  UNL1        0.0427
     28 H           1.6990    0.5560   -1.0898 H       1  UNL1        0.0316
     29 H           2.0391   -0.5632    1.7202 H       1  UNL1        0.0316
     30 H           2.9629   -0.9633    0.1721 H       1  UNL1        0.0316
     31 H           2.4413   -3.1690   -0.2239 H       1  UNL1        0.0620
     32 H           0.7912   -4.8353   -0.9044 H       1  UNL1        0.0618
     33 H          -1.5767   -4.2778   -0.8499 H       1  UNL1        0.0618
     34 H          -2.3361   -2.0036   -0.1018 H       1  UNL1        0.0621
     35 H          -0.7748   -0.0043    1.8461 H       1  UNL1        0.0397
     36 H          -2.9786   -0.0648    2.2035 H       1  UNL1        0.0621
     37 H          -5.2297    0.5439    1.6312 H       1  UNL1        0.0633
     38 H          -1.6047    1.0358   -1.6961 H       1  UNL1        0.0635
     39 H          -0.1454    1.7194   -0.4995 H       1  UNL1        0.0277
     40 H           0.3038    1.8842    1.2011 H       1  UNL1        0.0277
@<TRIPOS>BOND
     1     1     2    1
     2     2     3    1
     3     3     4    1
     4     4     5    1
     5     5     6    1
     6     6     7   ar
     7     7     8   ar
     8     8     9   ar
     9     9    10   ar
    10    10    11   ar
    11    11    12    1
    12    12    13    1
    13    13    14   ar
    14    14    15   ar
    15    15    16   ar
    16    16    17    1
    17    16    18   ar
    18    18    19    1
    19    18    20   ar
    20    12    21    1
    21    21     4    1
    22    11     6   ar
    23    20    13   ar
    24     1    22    1
    25     1    23    1
    26     1    24    1
    27     2    25    1
    28     3    26    1
    29     3    27    1
    30     4    28    1
    31     5    29    1
    32     5    30    1
    33     7    31    1
    34     8    32    1
    35     9    33    1
    36    10    34    1
    37    12    35    1
    38    14    36    1
    39    15    37    1
    40    20    38    1
    41    21    39    1
    42    21    40    1
