@<TRIPOS>MOLECULE
*****
 71 75 0 0 0
SMALL
GASTEIGER

@<TRIPOS>ATOM
      1 C           3.1264    0.1244    1.6679 C.3     1  UNL1        0.1134
      2 C           2.6414   -1.3032    1.5231 C.3     1  UNL1        0.0879
      3 O           1.3123   -1.4073    1.1687 O.3     1  UNL1       -0.2837
      4 P           0.8787   -3.0355    1.0340 P.3     1  UNL1        0.4835
      5 O           0.2348   -3.4852    2.5462 O.3     1  UNL1       -0.3022
      6 O           2.0748   -3.8970    0.6925 O.2     1  UNL1       -0.2269
      7 O          -0.3810   -3.2075   -0.0799 O.3     1  UNL1       -0.1861
      8 P          -0.0007   -2.3413   -1.4590 P.3     1  UNL1        0.4835
      9 O           1.2011   -1.1942   -1.2097 O.3     1  UNL1       -0.3022
     10 O           0.5458   -3.3536   -2.4697 O.2     1  UNL1       -0.2269
     11 O          -1.3579   -1.6304   -2.1693 O.3     1  UNL1       -0.2837
     12 C          -2.4711   -1.6833   -1.3603 C.3     1  UNL1        0.0878
     13 C          -3.6230   -1.0309   -2.0708 C.3     1  UNL1        0.1116
     14 O          -4.8036   -1.0353   -1.3257 O.3     1  UNL1       -0.3611
     15 C          -5.5595   -0.0580   -2.0065 C.3     1  UNL1        0.1139
     16 C          -6.8477    0.1929   -1.3340 C.ar    1  UNL1        0.0025
     17 C          -6.8975    0.3413    0.0219 C.ar    1  UNL1       -0.0409
     18 C          -8.1441    0.5728    0.5645 C.ar    1  UNL1        0.0542
     19 C          -9.2541    0.6435   -0.2509 C.ar    1  UNL1        0.0398
     20 N          -9.1846    0.4935   -1.5951 N.ar    1  UNL1       -0.2621
     21 C          -7.9882    0.2688   -2.1400 C.ar    1  UNL1        0.0333
     22 C          -8.2614    0.7400    2.0091 C.2     1  UNL1        0.2138
     23 O          -9.5227    0.9754    2.5673 O.2     1  UNL1       -0.4923
     24 N          -7.1989    0.6665    2.7350 N.2     1  UNL1       -0.2667
     25 C          -4.5925    1.1049   -1.9210 C.3     1  UNL1        0.1137
     26 O          -4.9248    2.1596   -2.7419 O.3     1  UNL1       -0.3862
     27 C          -3.2942    0.4093   -2.3494 C.3     1  UNL1        0.1120
     28 O          -3.1588    0.5488   -3.7421 O.3     1  UNL1       -0.3865
     29 O           4.4717    0.0583    2.0243 O.3     1  UNL1       -0.3456
     30 C           4.9938    1.3310    1.8013 C.3     1  UNL1        0.1667
     31 N           6.3877    1.2510    1.4218 N.ar    1  UNL1       -0.2855
     32 C           7.2422    2.2658    1.6447 C.ar    1  UNL1        0.1004
     33 N           8.4714    1.9571    1.2081 N.ar    1  UNL1       -0.2306
     34 C           8.4044    0.7200    0.6949 C.ar    1  UNL1        0.1473
     35 C           9.2696   -0.1714    0.0989 C.ar    1  UNL1        0.1472
     36 N          10.6122    0.2416   -0.0568 N.pl3   1  UNL1       -0.3413
     37 N           8.8611   -1.3754   -0.3155 N.ar    1  UNL1       -0.2188
     38 C           7.5804   -1.7616   -0.1637 C.ar    1  UNL1        0.1205
     39 N           6.6860   -0.9248    0.4161 N.ar    1  UNL1       -0.2159
     40 C           7.0920    0.2823    0.8325 C.ar    1  UNL1        0.1674
     41 C           4.2004    1.9584    0.6811 C.3     1  UNL1        0.1285
     42 O           3.5320    3.0858    1.1492 O.3     1  UNL1       -0.3847
     43 C           3.1603    0.8817    0.3734 C.3     1  UNL1        0.1135
     44 O           1.9754    1.5231    0.0835 O.3     1  UNL1       -0.3864
     45 H           2.5241    0.6836    2.4066 H       1  UNL1        0.0647
     46 H           2.7848   -1.7575    2.5467 H       1  UNL1        0.0592
     47 H           3.3111   -1.8959    0.8690 H       1  UNL1        0.0592
     48 H           0.1128   -2.7327    3.1554 H       1  UNL1        0.2220
     49 H           1.0343   -0.3959   -1.7354 H       1  UNL1        0.2220
     50 H          -2.7146   -2.6851   -0.9682 H       1  UNL1        0.0592
     51 H          -2.2532   -1.0548   -0.4504 H       1  UNL1        0.0592
     52 H          -3.8639   -1.5964   -3.0105 H       1  UNL1        0.0646
     53 H          -5.6512   -0.3819   -3.0458 H       1  UNL1        0.0674
     54 H          -6.0149    0.2833    0.6534 H       1  UNL1        0.0630
     55 H         -10.2093    0.8278    0.2314 H       1  UNL1        0.0837
     56 H          -7.8890    0.1423   -3.2192 H       1  UNL1        0.0833
     57 H          -9.5996    1.2926    3.5448 H       1  UNL1        0.2937
     58 H          -7.2725    0.7856    3.7770 H       1  UNL1        0.1899
     59 H          -4.4219    1.3969   -0.8606 H       1  UNL1        0.0649
     60 H          -5.3667    2.8492   -2.1644 H       1  UNL1        0.2100
     61 H          -2.4269    0.7971   -1.8024 H       1  UNL1        0.0647
     62 H          -3.9105    1.0594   -4.1352 H       1  UNL1        0.2100
     63 H           4.8622    1.9348    2.7402 H       1  UNL1        0.0866
     64 H           7.0227    3.2233    2.1091 H       1  UNL1        0.1030
     65 H          11.0506    0.9761    0.5467 H       1  UNL1        0.1438
     66 H          11.3467   -0.0589   -0.7164 H       1  UNL1        0.1438
     67 H           7.3365   -2.7615   -0.5314 H       1  UNL1        0.1048
     68 H           4.8130    2.2072   -0.1877 H       1  UNL1        0.0665
     69 H           3.2664    2.9825    2.1122 H       1  UNL1        0.2101
     70 H           3.4735    0.2530   -0.4848 H       1  UNL1        0.0647
     71 H           1.1662    1.0481    0.4213 H       1  UNL1        0.2100
@<TRIPOS>BOND
     1     1     2    1
     2     2     3    1
     3     3     4    1
     4     4     5    1
     5     4     6    2
     6     4     7    1
     7     7     8    1
     8     8     9    1
     9     8    10    2
    10     8    11    1
    11    11    12    1
    12    12    13    1
    13    13    14    1
    14    14    15    1
    15    15    16    1
    16    16    17   ar
    17    17    18   ar
    18    18    19   ar
    19    19    20   ar
    20    20    21   ar
    21    18    22    1
    22    22    23    1
    23    22    24    2
    24    15    25    1
    25    25    26    1
    26    25    27    1
    27    27    28    1
    28     1    29    1
    29    29    30    1
    30    30    31    1
    31    31    32   ar
    32    32    33   ar
    33    33    34   ar
    34    34    35   ar
    35    35    36    1
    36    35    37   ar
    37    37    38   ar
    38    38    39   ar
    39    39    40   ar
    40    30    41    1
    41    41    42    1
    42    41    43    1
    43    43    44    1
    44    43     1    1
    45    27    13    1
    46    40    31   ar
    47    21    16   ar
    48    40    34   ar
    49     1    45    1
    50     2    46    1
    51     2    47    1
    52     5    48    1
    53     9    49    1
    54    12    50    1
    55    12    51    1
    56    13    52    1
    57    15    53    1
    58    17    54    1
    59    19    55    1
    60    21    56    1
    61    23    57    1
    62    24    58    1
    63    25    59    1
    64    26    60    1
    65    27    61    1
    66    28    62    1
    67    30    63    1
    68    32    64    1
    69    36    65    1
    70    36    66    1
    71    38    67    1
    72    41    68    1
    73    42    69    1
    74    43    70    1
    75    44    71    1
