
     RDKit          3D

 45 49  0  0  0  0  0  0  0  0999 V2000
    5.3957   -0.2012    1.7306 N   0  0  0  0  0  0  0  0  0  0  0  0
    4.0154   -0.1355    1.3704 C   0  0  0  0  0  0  0  0  0  0  0  0
    3.1561    0.3916    2.1166 O   0  0  0  0  0  0  0  0  0  0  0  0
    3.5715   -0.6940    0.0988 C   0  0  0  0  0  0  0  0  0  0  0  0
    4.3890   -1.2990   -0.8450 C   0  0  0  0  0  0  0  0  0  0  0  0
    3.5914   -1.6711   -1.8563 N   0  0  0  0  0  0  0  0  0  0  0  0
    2.2963   -1.3247   -1.5894 C   0  0  0  0  0  0  0  0  0  0  0  0
    1.1401   -1.5033   -2.3271 C   0  0  0  0  0  0  0  0  0  0  0  0
   -0.0301   -1.0159   -1.7322 C   0  0  0  0  0  0  0  0  0  0  0  0
   -0.0028   -0.4072   -0.5019 C   0  0  0  0  0  0  0  0  0  0  0  0
   -1.2024    0.0963    0.1323 C   0  0  0  0  0  0  0  0  0  0  0  0
   -1.5247    1.4108    0.3983 C   0  0  0  0  0  0  0  0  0  0  0  0
   -0.7200    2.6116    0.1010 C   0  0  0  0  0  0  0  0  0  0  0  0
    0.4707    2.8089    0.7673 C   0  0  0  0  0  0  0  0  0  0  0  0
    1.2513    3.9303    0.5039 C   0  0  0  0  0  0  0  0  0  0  0  0
    0.7836    4.8173   -0.4383 C   0  0  0  0  0  0  0  0  0  0  0  0
    1.5148    5.9226   -0.7223 F   0  0  0  0  0  0  0  0  0  0  0  0
   -0.3969    4.6459   -1.1157 C   0  0  0  0  0  0  0  0  0  0  0  0
   -0.9068    5.8316   -2.2968 Cl  0  0  0  0  0  0  0  0  0  0  0  0
   -1.1521    3.5277   -0.8377 C   0  0  0  0  0  0  0  0  0  0  0  0
   -2.7299    1.4108    0.9928 N   0  0  0  0  0  0  0  0  0  0  0  0
   -3.1308    0.1373    1.0874 C   0  0  0  0  0  0  0  0  0  0  0  0
   -2.2203   -0.6949    0.5705 N   0  0  0  0  0  0  0  0  0  0  0  0
   -2.2351   -2.1395    0.4625 C   0  0  0  0  0  0  0  0  0  0  0  0
   -3.1196   -2.8124    1.4886 C   0  0  0  0  0  0  0  0  0  0  0  0
   -4.0198   -3.3219    0.4089 C   0  0  0  0  0  0  0  0  0  0  0  0
   -4.0282   -4.7103    0.2671 F   0  0  0  0  0  0  0  0  0  0  0  0
   -5.2734   -2.7688    0.3644 F   0  0  0  0  0  0  0  0  0  0  0  0
   -3.1116   -2.6995   -0.6143 C   0  0  0  0  0  0  0  0  0  0  0  0
    1.1725   -0.2871    0.1239 N   0  0  0  0  0  0  0  0  0  0  0  0
    2.3107   -0.7294   -0.3898 N   0  0  0  0  0  0  0  0  0  0  0  0
    6.0399   -0.9250    1.3602 H   0  0  0  0  0  0  0  0  0  0  0  0
    5.7241    0.5419    2.4051 H   0  0  0  0  0  0  0  0  0  0  0  0
    5.4687   -1.4295   -0.7484 H   0  0  0  0  0  0  0  0  0  0  0  0
    1.1197   -1.9830   -3.2958 H   0  0  0  0  0  0  0  0  0  0  0  0
   -0.9933   -1.1112   -2.2387 H   0  0  0  0  0  0  0  0  0  0  0  0
    0.8185    2.1115    1.4996 H   0  0  0  0  0  0  0  0  0  0  0  0
    2.1746    4.0417    1.0515 H   0  0  0  0  0  0  0  0  0  0  0  0
   -2.0881    3.3710   -1.3609 H   0  0  0  0  0  0  0  0  0  0  0  0
   -4.0639   -0.2006    1.5204 H   0  0  0  0  0  0  0  0  0  0  0  0
   -1.1942   -2.5269    0.4406 H   0  0  0  0  0  0  0  0  0  0  0  0
   -3.5450   -2.0649    2.1700 H   0  0  0  0  0  0  0  0  0  0  0  0
   -2.5592   -3.6406    1.9776 H   0  0  0  0  0  0  0  0  0  0  0  0
   -3.5532   -1.8781   -1.2171 H   0  0  0  0  0  0  0  0  0  0  0  0
   -2.6031   -3.4333   -1.2829 H   0  0  0  0  0  0  0  0  0  0  0  0
  1  2  1  0
  2  3  2  0
  2  4  1  0
  4  5  2  0
  5  6  1  0
  6  7  2  0
  7  8  1  0
  8  9  2  0
  9 10  1  0
 10 11  1  0
 11 12  2  0
 12 13  1  0
 13 14  2  0
 14 15  1  0
 15 16  2  0
 16 17  1  0
 16 18  1  0
 18 19  1  0
 18 20  2  0
 12 21  1  0
 21 22  2  0
 22 23  1  0
 23 24  1  0
 24 25  1  0
 25 26  1  0
 26 27  1  0
 26 28  1  0
 26 29  1  0
 10 30  2  0
 30 31  1  0
 31  4  1  0
 31  7  1  0
 23 11  1  0
 29 24  1  0
 20 13  1  0
  1 32  1  0
  1 33  1  0
  5 34  1  0
  8 35  1  0
  9 36  1  0
 14 37  1  0
 15 38  1  0
 20 39  1  0
 22 40  1  0
 24 41  1  0
 25 42  1  0
 25 43  1  0
 29 44  1  0
 29 45  1  0
M  END
$$$$
