@<TRIPOS>MOLECULE
*****
 45 49 0 0 0
SMALL
GASTEIGER

@<TRIPOS>ATOM
      1 N           5.3957   -0.2012    1.7306 N.am    1  UNL1       -0.3240
      2 C           4.0154   -0.1355    1.3704 C.2     1  UNL1        0.2615
      3 O           3.1561    0.3916    2.1166 O.2     1  UNL1       -0.2687
      4 C           3.5715   -0.6940    0.0988 C.ar    1  UNL1        0.1470
      5 C           4.3890   -1.2990   -0.8450 C.ar    1  UNL1        0.0605
      6 N           3.5914   -1.6711   -1.8563 N.ar    1  UNL1       -0.2339
      7 C           2.2963   -1.3247   -1.5894 C.ar    1  UNL1        0.1549
      8 C           1.1401   -1.5033   -2.3271 C.ar    1  UNL1       -0.0153
      9 C          -0.0301   -1.0159   -1.7322 C.ar    1  UNL1       -0.0290
     10 C          -0.0028   -0.4072   -0.5019 C.ar    1  UNL1        0.1103
     11 C          -1.2024    0.0963    0.1323 C.ar    1  UNL1        0.0969
     12 C          -1.5247    1.4108    0.3983 C.ar    1  UNL1        0.0983
     13 C          -0.7200    2.6116    0.1010 C.ar    1  UNL1        0.0040
     14 C           0.4707    2.8089    0.7673 C.ar    1  UNL1       -0.0497
     15 C           1.2513    3.9303    0.5039 C.ar    1  UNL1       -0.0244
     16 C           0.7836    4.8173   -0.4383 C.ar    1  UNL1        0.1417
     17 F           1.5148    5.9226   -0.7223 F       1  UNL1       -0.2040
     18 C          -0.3969    4.6459   -1.1157 C.ar    1  UNL1        0.0767
     19 CL         -0.9068    5.8316   -2.2968 Cl      1  UNL1       -0.0806
     20 C          -1.1521    3.5277   -0.8377 C.ar    1  UNL1       -0.0313
     21 N          -2.7299    1.4108    0.9928 N.ar    1  UNL1       -0.2351
     22 C          -3.1308    0.1373    1.0874 C.ar    1  UNL1        0.0974
     23 N          -2.2203   -0.6949    0.5705 N.ar    1  UNL1       -0.3249
     24 C          -2.2351   -2.1395    0.4625 C.3     1  UNL1        0.0468
     25 C          -3.1196   -2.8124    1.4886 C.3     1  UNL1        0.0319
     26 C          -4.0198   -3.3219    0.4089 C.3     1  UNL1        0.2527
     27 F          -4.0282   -4.7103    0.2671 F       1  UNL1       -0.2055
     28 F          -5.2734   -2.7688    0.3644 F       1  UNL1       -0.2055
     29 C          -3.1116   -2.6995   -0.6143 C.3     1  UNL1        0.0319
     30 N           1.1725   -0.2871    0.1239 N.ar    1  UNL1       -0.1628
     31 N           2.3107   -0.7294   -0.3898 N.ar    1  UNL1       -0.2076
     32 H           6.0399   -0.9250    1.3602 H       1  UNL1        0.1453
     33 H           5.7241    0.5419    2.4051 H       1  UNL1        0.1453
     34 H           5.4687   -1.4295   -0.7484 H       1  UNL1        0.0854
     35 H           1.1197   -1.9830   -3.2958 H       1  UNL1        0.0655
     36 H          -0.9933   -1.1112   -2.2387 H       1  UNL1        0.0641
     37 H           0.8185    2.1115    1.4996 H       1  UNL1        0.0625
     38 H           2.1746    4.0417    1.0515 H       1  UNL1        0.0647
     39 H          -2.0881    3.3710   -1.3609 H       1  UNL1        0.0640
     40 H          -4.0639   -0.2006    1.5204 H       1  UNL1        0.1029
     41 H          -1.1942   -2.5269    0.4406 H       1  UNL1        0.0532
     42 H          -3.5450   -2.0649    2.1700 H       1  UNL1        0.0343
     43 H          -2.5592   -3.6406    1.9776 H       1  UNL1        0.0343
     44 H          -3.5532   -1.8781   -1.2171 H       1  UNL1        0.0343
     45 H          -2.6031   -3.4333   -1.2829 H       1  UNL1        0.0343
@<TRIPOS>BOND
     1     1     2   am
     2     2     3    2
     3     2     4    1
     4     4     5   ar
     5     5     6   ar
     6     6     7   ar
     7     7     8   ar
     8     8     9   ar
     9     9    10   ar
    10    10    11    1
    11    11    12   ar
    12    12    13    1
    13    13    14   ar
    14    14    15   ar
    15    15    16   ar
    16    16    17    1
    17    16    18   ar
    18    18    19    1
    19    18    20   ar
    20    12    21   ar
    21    21    22   ar
    22    22    23   ar
    23    23    24    1
    24    24    25    1
    25    25    26    1
    26    26    27    1
    27    26    28    1
    28    26    29    1
    29    10    30   ar
    30    30    31   ar
    31    31     4   ar
    32    31     7   ar
    33    23    11   ar
    34    29    24    1
    35    20    13   ar
    36     1    32    1
    37     1    33    1
    38     5    34    1
    39     8    35    1
    40     9    36    1
    41    14    37    1
    42    15    38    1
    43    20    39    1
    44    22    40    1
    45    24    41    1
    46    25    42    1
    47    25    43    1
    48    29    44    1
    49    29    45    1
