@<TRIPOS>MOLECULE
*****
 68 72 0 0 0
SMALL
GASTEIGER

@<TRIPOS>ATOM
      1 O           4.0909   -2.0352    3.0463 O.2     1  UNL1       -0.2706
      2 C           4.0203   -1.7765    1.7452 C.2     1  UNL1        0.2394
      3 C           5.2934   -1.5011    1.1857 C.2     1  UNL1        0.0009
      4 C           5.5274   -1.1630   -0.0488 C.2     1  UNL1       -0.0495
      5 C           6.8847   -0.8968   -0.5628 C.ar    1  UNL1       -0.0195
      6 C           7.0402   -0.5055   -1.8579 C.ar    1  UNL1       -0.0191
      7 C           8.2675   -0.2540   -2.4248 C.ar    1  UNL1        0.1267
      8 F           8.4044    0.1258   -3.7062 F       1  UNL1       -0.2054
      9 C           9.3903   -0.4056   -1.6425 C.ar    1  UNL1        0.0088
     10 C           9.2627   -0.7971   -0.3362 C.ar    1  UNL1        0.1267
     11 F          10.3478   -0.9528    0.4576 F       1  UNL1       -0.2054
     12 C           8.0048   -1.0481    0.2200 C.ar    1  UNL1       -0.0191
     13 N           2.7233   -1.8380    1.2559 N.am    1  UNL1       -0.2980
     14 C           1.6195   -2.0516    2.2042 C.3     1  UNL1        0.0153
     15 C           0.4067   -1.1872    1.8422 C.3     1  UNL1       -0.0328
     16 C          -0.0484   -1.4625    0.4411 C.3     1  UNL1       -0.0204
     17 C          -0.3600   -0.2328   -0.3177 C.3     1  UNL1        0.0364
     18 C          -0.7568   -0.5281   -1.7493 C.3     1  UNL1        0.0600
     19 O          -0.7618    0.6070   -2.5286 O.3     1  UNL1       -0.3935
     20 N          -1.2806    0.6088    0.2741 N.3     1  UNL1       -0.2969
     21 C          -1.6306    1.8600   -0.2859 C.3     1  UNL1       -0.0002
     22 C          -3.0252    1.8618   -0.7971 C.3     1  UNL1       -0.0332
     23 C          -3.8660    0.8894    0.0062 C.3     1  UNL1       -0.0115
     24 C          -5.2500    1.0194   -0.3399 C.ar    1  UNL1       -0.0176
     25 C          -5.8717    0.2382   -1.3253 C.ar    1  UNL1        0.0076
     26 N          -7.1558    0.5698   -1.3983 N.ar    1  UNL1       -0.3456
     27 C          -7.4346    1.5387   -0.5173 C.ar    1  UNL1        0.1383
     28 N          -8.5240    2.2498   -0.1496 N.ar    1  UNL1       -0.2375
     29 C          -8.5274    3.1918    0.7971 C.ar    1  UNL1        0.0299
     30 C          -7.3483    3.4887    1.4717 C.ar    1  UNL1       -0.0429
     31 C          -6.1928    2.7949    1.1444 C.ar    1  UNL1       -0.0494
     32 C          -6.2520    1.8443    0.1679 C.ar    1  UNL1        0.0221
     33 C          -3.4245    0.9563    1.4117 C.3     1  UNL1       -0.0332
     34 C          -2.0293    0.2405    1.4226 C.3     1  UNL1       -0.0002
     35 C           0.9340   -2.3705   -0.2030 C.3     1  UNL1       -0.0328
     36 C           2.3361   -1.7776   -0.1163 C.3     1  UNL1        0.0153
     37 H           6.1823   -1.5791    1.8646 H       1  UNL1        0.0670
     38 H           4.7035   -1.0470   -0.7334 H       1  UNL1        0.0625
     39 H           6.1631   -0.3812   -2.5020 H       1  UNL1        0.0652
     40 H          10.3820   -0.2093   -2.0744 H       1  UNL1        0.0675
     41 H           7.9793   -1.3567    1.2520 H       1  UNL1        0.0652
     42 H           1.3632   -3.0906    2.3671 H       1  UNL1        0.0465
     43 H           1.9695   -1.6481    3.1839 H       1  UNL1        0.0465
     44 H          -0.3260   -1.4462    2.6338 H       1  UNL1        0.0284
     45 H           0.7264   -0.1440    2.0132 H       1  UNL1        0.0284
     46 H          -0.9884   -2.1137    0.5745 H       1  UNL1        0.0318
     47 H           0.6121    0.3433   -0.4151 H       1  UNL1        0.0488
     48 H          -1.7880   -0.9373   -1.7817 H       1  UNL1        0.0573
     49 H          -0.0929   -1.2478   -2.2597 H       1  UNL1        0.0573
     50 H           0.1411    0.9452   -2.7739 H       1  UNL1        0.2095
     51 H          -1.5900    2.6551    0.5431 H       1  UNL1        0.0427
     52 H          -0.9026    2.2072   -1.0124 H       1  UNL1        0.0427
     53 H          -3.4674    2.8954   -0.7426 H       1  UNL1        0.0283
     54 H          -3.0974    1.5433   -1.8623 H       1  UNL1        0.0283
     55 H          -3.5151   -0.1354   -0.3726 H       1  UNL1        0.0350
     56 H          -5.3947   -0.5104   -1.9265 H       1  UNL1        0.0810
     57 H          -7.8565    0.1452   -2.0449 H       1  UNL1        0.1668
     58 H          -9.4487    3.7351    1.0418 H       1  UNL1        0.0830
     59 H          -7.3771    4.2434    2.2285 H       1  UNL1        0.0633
     60 H          -5.2890    3.0352    1.6674 H       1  UNL1        0.0625
     61 H          -4.0449    0.3186    2.0292 H       1  UNL1        0.0283
     62 H          -3.1974    1.9588    1.7397 H       1  UNL1        0.0283
     63 H          -2.1981   -0.8418    1.4413 H       1  UNL1        0.0427
     64 H          -1.4910    0.5401    2.3295 H       1  UNL1        0.0427
     65 H           0.6854   -2.7345   -1.2075 H       1  UNL1        0.0284
     66 H           0.9778   -3.3107    0.4182 H       1  UNL1        0.0284
     67 H           2.9978   -2.3961   -0.7810 H       1  UNL1        0.0465
     68 H           2.3675   -0.7371   -0.4606 H       1  UNL1        0.0465
@<TRIPOS>BOND
     1     1     2    2
     2     2     3    1
     3     3     4    2
     4     4     5    1
     5     5     6   ar
     6     6     7   ar
     7     7     8    1
     8     7     9   ar
     9     9    10   ar
    10    10    11    1
    11    10    12   ar
    12     2    13   am
    13    13    14    1
    14    14    15    1
    15    15    16    1
    16    16    17    1
    17    17    18    1
    18    18    19    1
    19    17    20    1
    20    20    21    1
    21    21    22    1
    22    22    23    1
    23    23    24    1
    24    24    25   ar
    25    25    26   ar
    26    26    27   ar
    27    27    28   ar
    28    28    29   ar
    29    29    30   ar
    30    30    31   ar
    31    31    32   ar
    32    23    33    1
    33    33    34    1
    34    16    35    1
    35    35    36    1
    36    12     5   ar
    37    36    13    1
    38    34    20    1
    39    32    24   ar
    40    32    27   ar
    41     3    37    1
    42     4    38    1
    43     6    39    1
    44     9    40    1
    45    12    41    1
    46    14    42    1
    47    14    43    1
    48    15    44    1
    49    15    45    1
    50    16    46    1
    51    17    47    1
    52    18    48    1
    53    18    49    1
    54    19    50    1
    55    21    51    1
    56    21    52    1
    57    22    53    1
    58    22    54    1
    59    23    55    1
    60    25    56    1
    61    26    57    1
    62    29    58    1
    63    30    59    1
    64    31    60    1
    65    33    61    1
    66    33    62    1
    67    34    63    1
    68    34    64    1
    69    35    65    1
    70    35    66    1
    71    36    67    1
    72    36    68    1
