
     RDKit          3D

 68 72  0  0  0  0  0  0  0  0999 V2000
    4.0909   -2.0352    3.0463 O   0  0  0  0  0  0  0  0  0  0  0  0
    4.0203   -1.7765    1.7452 C   0  0  0  0  0  0  0  0  0  0  0  0
    5.2934   -1.5011    1.1857 C   0  0  0  0  0  0  0  0  0  0  0  0
    5.5274   -1.1630   -0.0488 C   0  0  0  0  0  0  0  0  0  0  0  0
    6.8847   -0.8968   -0.5628 C   0  0  0  0  0  0  0  0  0  0  0  0
    7.0402   -0.5055   -1.8579 C   0  0  0  0  0  0  0  0  0  0  0  0
    8.2675   -0.2540   -2.4248 C   0  0  0  0  0  0  0  0  0  0  0  0
    8.4044    0.1258   -3.7062 F   0  0  0  0  0  0  0  0  0  0  0  0
    9.3903   -0.4056   -1.6425 C   0  0  0  0  0  0  0  0  0  0  0  0
    9.2627   -0.7971   -0.3362 C   0  0  0  0  0  0  0  0  0  0  0  0
   10.3478   -0.9528    0.4576 F   0  0  0  0  0  0  0  0  0  0  0  0
    8.0048   -1.0481    0.2200 C   0  0  0  0  0  0  0  0  0  0  0  0
    2.7233   -1.8380    1.2559 N   0  0  0  0  0  0  0  0  0  0  0  0
    1.6195   -2.0516    2.2042 C   0  0  0  0  0  0  0  0  0  0  0  0
    0.4067   -1.1872    1.8422 C   0  0  0  0  0  0  0  0  0  0  0  0
   -0.0484   -1.4625    0.4411 C   0  0  0  0  0  0  0  0  0  0  0  0
   -0.3600   -0.2328   -0.3177 C   0  0  1  0  0  0  0  0  0  0  0  0
   -0.7568   -0.5281   -1.7493 C   0  0  0  0  0  0  0  0  0  0  0  0
   -0.7618    0.6070   -2.5286 O   0  0  0  0  0  0  0  0  0  0  0  0
   -1.2806    0.6088    0.2741 N   0  0  0  0  0  0  0  0  0  0  0  0
   -1.6306    1.8600   -0.2859 C   0  0  0  0  0  0  0  0  0  0  0  0
   -3.0252    1.8618   -0.7971 C   0  0  0  0  0  0  0  0  0  0  0  0
   -3.8660    0.8894    0.0062 C   0  0  0  0  0  0  0  0  0  0  0  0
   -5.2500    1.0194   -0.3399 C   0  0  0  0  0  0  0  0  0  0  0  0
   -5.8717    0.2382   -1.3253 C   0  0  0  0  0  0  0  0  0  0  0  0
   -7.1558    0.5698   -1.3983 N   0  0  0  0  0  0  0  0  0  0  0  0
   -7.4346    1.5387   -0.5173 C   0  0  0  0  0  0  0  0  0  0  0  0
   -8.5240    2.2498   -0.1496 N   0  0  0  0  0  0  0  0  0  0  0  0
   -8.5274    3.1918    0.7971 C   0  0  0  0  0  0  0  0  0  0  0  0
   -7.3483    3.4887    1.4717 C   0  0  0  0  0  0  0  0  0  0  0  0
   -6.1928    2.7949    1.1444 C   0  0  0  0  0  0  0  0  0  0  0  0
   -6.2520    1.8443    0.1679 C   0  0  0  0  0  0  0  0  0  0  0  0
   -3.4245    0.9563    1.4117 C   0  0  0  0  0  0  0  0  0  0  0  0
   -2.0293    0.2405    1.4226 C   0  0  0  0  0  0  0  0  0  0  0  0
    0.9340   -2.3705   -0.2030 C   0  0  0  0  0  0  0  0  0  0  0  0
    2.3361   -1.7776   -0.1163 C   0  0  0  0  0  0  0  0  0  0  0  0
    6.1823   -1.5791    1.8646 H   0  0  0  0  0  0  0  0  0  0  0  0
    4.7035   -1.0470   -0.7334 H   0  0  0  0  0  0  0  0  0  0  0  0
    6.1631   -0.3812   -2.5020 H   0  0  0  0  0  0  0  0  0  0  0  0
   10.3820   -0.2093   -2.0744 H   0  0  0  0  0  0  0  0  0  0  0  0
    7.9793   -1.3567    1.2520 H   0  0  0  0  0  0  0  0  0  0  0  0
    1.3632   -3.0906    2.3671 H   0  0  0  0  0  0  0  0  0  0  0  0
    1.9695   -1.6481    3.1839 H   0  0  0  0  0  0  0  0  0  0  0  0
   -0.3260   -1.4462    2.6338 H   0  0  0  0  0  0  0  0  0  0  0  0
    0.7264   -0.1440    2.0132 H   0  0  0  0  0  0  0  0  0  0  0  0
   -0.9884   -2.1137    0.5745 H   0  0  0  0  0  0  0  0  0  0  0  0
    0.6121    0.3433   -0.4151 H   0  0  0  0  0  0  0  0  0  0  0  0
   -1.7880   -0.9373   -1.7817 H   0  0  0  0  0  0  0  0  0  0  0  0
   -0.0929   -1.2478   -2.2597 H   0  0  0  0  0  0  0  0  0  0  0  0
    0.1411    0.9452   -2.7739 H   0  0  0  0  0  0  0  0  0  0  0  0
   -1.5900    2.6551    0.5431 H   0  0  0  0  0  0  0  0  0  0  0  0
   -0.9026    2.2072   -1.0124 H   0  0  0  0  0  0  0  0  0  0  0  0
   -3.4674    2.8954   -0.7426 H   0  0  0  0  0  0  0  0  0  0  0  0
   -3.0974    1.5433   -1.8623 H   0  0  0  0  0  0  0  0  0  0  0  0
   -3.5151   -0.1354   -0.3726 H   0  0  0  0  0  0  0  0  0  0  0  0
   -5.3947   -0.5104   -1.9265 H   0  0  0  0  0  0  0  0  0  0  0  0
   -7.8565    0.1452   -2.0449 H   0  0  0  0  0  0  0  0  0  0  0  0
   -9.4487    3.7351    1.0418 H   0  0  0  0  0  0  0  0  0  0  0  0
   -7.3771    4.2434    2.2285 H   0  0  0  0  0  0  0  0  0  0  0  0
   -5.2890    3.0352    1.6674 H   0  0  0  0  0  0  0  0  0  0  0  0
   -4.0449    0.3186    2.0292 H   0  0  0  0  0  0  0  0  0  0  0  0
   -3.1974    1.9588    1.7397 H   0  0  0  0  0  0  0  0  0  0  0  0
   -2.1981   -0.8418    1.4413 H   0  0  0  0  0  0  0  0  0  0  0  0
   -1.4910    0.5401    2.3295 H   0  0  0  0  0  0  0  0  0  0  0  0
    0.6854   -2.7345   -1.2075 H   0  0  0  0  0  0  0  0  0  0  0  0
    0.9778   -3.3107    0.4182 H   0  0  0  0  0  0  0  0  0  0  0  0
    2.9978   -2.3961   -0.7810 H   0  0  0  0  0  0  0  0  0  0  0  0
    2.3675   -0.7371   -0.4606 H   0  0  0  0  0  0  0  0  0  0  0  0
  1  2  2  0
  2  3  1  0
  3  4  2  3
  4  5  1  0
  5  6  2  0
  6  7  1  0
  7  8  1  0
  7  9  2  0
  9 10  1  0
 10 11  1  0
 10 12  2  0
  2 13  1  0
 13 14  1  0
 14 15  1  0
 15 16  1  0
 16 17  1  0
 17 18  1  0
 18 19  1  0
 17 20  1  0
 20 21  1  0
 21 22  1  0
 22 23  1  0
 23 24  1  0
 24 25  2  0
 25 26  1  0
 26 27  1  0
 27 28  2  0
 28 29  1  0
 29 30  2  0
 30 31  1  0
 31 32  2  0
 23 33  1  0
 33 34  1  0
 16 35  1  0
 35 36  1  0
 12  5  1  0
 36 13  1  0
 34 20  1  0
 32 24  1  0
 32 27  1  0
  3 37  1  0
  4 38  1  0
  6 39  1  0
  9 40  1  0
 12 41  1  0
 14 42  1  0
 14 43  1  0
 15 44  1  0
 15 45  1  0
 16 46  1  0
 17 47  1  6
 18 48  1  0
 18 49  1  0
 19 50  1  0
 21 51  1  0
 21 52  1  0
 22 53  1  0
 22 54  1  0
 23 55  1  0
 25 56  1  0
 26 57  1  0
 29 58  1  0
 30 59  1  0
 31 60  1  0
 33 61  1  0
 33 62  1  0
 34 63  1  0
 34 64  1  0
 35 65  1  0
 35 66  1  0
 36 67  1  0
 36 68  1  0
M  END
$$$$
