
     RDKit          3D

 45 47  0  0  0  0  0  0  0  0999 V2000
   -0.1332    5.4103    0.5376 C   0  0  0  0  0  0  0  0  0  0  0  0
   -1.2382    4.5621    0.6598 O   0  0  0  0  0  0  0  0  0  0  0  0
   -1.2133    3.2062    0.4943 C   0  0  0  0  0  0  0  0  0  0  0  0
   -2.3711    2.4869    0.6388 C   0  0  0  0  0  0  0  0  0  0  0  0
   -2.4174    1.1043    0.4819 C   0  0  0  0  0  0  0  0  0  0  0  0
   -1.2540    0.4394    0.1670 C   0  0  0  0  0  0  0  0  0  0  0  0
   -0.0785    1.1404    0.0205 C   0  0  0  0  0  0  0  0  0  0  0  0
   -0.0692    2.5145    0.1853 C   0  0  0  0  0  0  0  0  0  0  0  0
    0.9535    0.2653   -0.2635 C   0  0  0  0  0  0  0  0  0  0  0  0
    2.3591    0.6443   -0.5188 C   0  0  0  0  0  0  0  0  0  0  0  0
    3.3419   -0.4261   -0.3433 C   0  0  0  0  0  0  0  0  0  0  0  0
    3.0342   -1.5465    0.1058 O   0  0  0  0  0  0  0  0  0  0  0  0
    4.7059   -0.2219   -0.6920 N   0  0  0  0  0  0  0  0  0  0  0  0
    5.8525   -1.4957   -0.4819 S   0  0  0  0  0  6  0  0  0  0  0  0
    6.7611   -1.5700   -1.6542 O   0  0  0  0  0  0  0  0  0  0  0  0
    5.1346   -2.8261   -0.3493 O   0  0  0  0  0  0  0  0  0  0  0  0
    6.7990   -1.2212    1.0023 C   0  0  0  0  0  0  0  0  0  0  0  0
    7.4902   -0.0028    0.8660 F   0  0  0  0  0  0  0  0  0  0  0  0
    6.0363   -1.1243    2.1242 F   0  0  0  0  0  0  0  0  0  0  0  0
    7.7702   -2.1889    1.1711 F   0  0  0  0  0  0  0  0  0  0  0  0
    0.3573   -0.9678   -0.2811 C   0  0  0  0  0  0  0  0  0  0  0  0
   -0.9908   -0.8731   -0.0231 N   0  0  0  0  0  0  0  0  0  0  0  0
   -1.7862   -1.9938    0.0551 C   0  0  0  0  0  0  0  0  0  0  0  0
   -1.1831   -3.1565    0.0049 O   0  0  0  0  0  0  0  0  0  0  0  0
   -3.2288   -2.1374    0.1796 C   0  0  0  0  0  0  0  0  0  0  0  0
   -3.7250   -3.1101    1.0460 C   0  0  0  0  0  0  0  0  0  0  0  0
   -5.0737   -3.3576    1.0879 C   0  0  0  0  0  0  0  0  0  0  0  0
   -5.9884   -2.6802    0.2990 C   0  0  0  0  0  0  0  0  0  0  0  0
   -7.6840   -3.0572    0.4096 Cl  0  0  0  0  0  0  0  0  0  0  0  0
   -5.4689   -1.7181   -0.5537 C   0  0  0  0  0  0  0  0  0  0  0  0
   -4.1213   -1.4685   -0.5966 C   0  0  0  0  0  0  0  0  0  0  0  0
    0.0981    5.6315   -0.5263 H   0  0  0  0  0  0  0  0  0  0  0  0
    0.7680    4.9793    1.0208 H   0  0  0  0  0  0  0  0  0  0  0  0
   -0.3534    6.3824    1.0131 H   0  0  0  0  0  0  0  0  0  0  0  0
   -3.2720    3.0145    0.8809 H   0  0  0  0  0  0  0  0  0  0  0  0
   -3.3357    0.5870    0.6419 H   0  0  0  0  0  0  0  0  0  0  0  0
    0.8842    3.0193    0.0555 H   0  0  0  0  0  0  0  0  0  0  0  0
    2.6292    1.5510    0.1070 H   0  0  0  0  0  0  0  0  0  0  0  0
    2.4298    1.0378   -1.5730 H   0  0  0  0  0  0  0  0  0  0  0  0
    5.0027    0.7152   -1.0755 H   0  0  0  0  0  0  0  0  0  0  0  0
    0.8968   -1.8783   -0.4857 H   0  0  0  0  0  0  0  0  0  0  0  0
   -3.0139   -3.6633    1.6901 H   0  0  0  0  0  0  0  0  0  0  0  0
   -5.3948   -4.1315    1.7859 H   0  0  0  0  0  0  0  0  0  0  0  0
   -6.1736   -1.1630   -1.1936 H   0  0  0  0  0  0  0  0  0  0  0  0
   -3.7363   -0.7119   -1.2896 H   0  0  0  0  0  0  0  0  0  0  0  0
  1  2  1  0
  2  3  1  0
  3  4  2  0
  4  5  1  0
  5  6  2  0
  6  7  1  0
  7  8  2  0
  7  9  1  0
  9 10  1  0
 10 11  1  0
 11 12  2  0
 11 13  1  0
 13 14  1  0
 14 15  2  0
 14 16  2  0
 14 17  1  0
 17 18  1  0
 17 19  1  0
 17 20  1  0
  9 21  2  0
 21 22  1  0
 22 23  1  0
 23 24  2  0
 23 25  1  0
 25 26  2  0
 26 27  1  0
 27 28  2  0
 28 29  1  0
 28 30  1  0
 30 31  2  0
  8  3  1  0
 31 25  1  0
 22  6  1  0
  1 32  1  0
  1 33  1  0
  1 34  1  0
  4 35  1  0
  5 36  1  0
  8 37  1  0
 10 38  1  0
 10 39  1  0
 13 40  1  0
 21 41  1  0
 26 42  1  0
 27 43  1  0
 30 44  1  0
 31 45  1  0
M  END
$$$$
