@<TRIPOS>MOLECULE
*****
 45 47 0 0 0
SMALL
GASTEIGER

@<TRIPOS>ATOM
      1 C          -0.1332    5.4103    0.5376 C.3     1  UNL1        0.0788
      2 O          -1.2382    4.5621    0.6598 O.3     1  UNL1       -0.4951
      3 C          -1.2133    3.2062    0.4943 C.ar    1  UNL1        0.1208
      4 C          -2.3711    2.4869    0.6388 C.ar    1  UNL1       -0.0180
      5 C          -2.4174    1.1043    0.4819 C.ar    1  UNL1       -0.0337
      6 C          -1.2540    0.4394    0.1670 C.ar    1  UNL1        0.0571
      7 C          -0.0785    1.1404    0.0205 C.ar    1  UNL1        0.0074
      8 C          -0.0692    2.5145    0.1853 C.ar    1  UNL1       -0.0105
      9 C           0.9535    0.2653   -0.2635 C.ar    1  UNL1       -0.0128
     10 C           2.3591    0.6443   -0.5188 C.3     1  UNL1        0.0526
     11 C           3.3419   -0.4261   -0.3433 C.2     1  UNL1        0.2363
     12 O           3.0342   -1.5465    0.1058 O.2     1  UNL1       -0.2739
     13 N           4.7059   -0.2219   -0.6920 N.am    1  UNL1       -0.1819
     14 S           5.8525   -1.4957   -0.4819 S.O2    1  UNL1        0.1431
     15 O           6.7611   -1.5700   -1.6542 O.2     1  UNL1       -0.1466
     16 O           5.1346   -2.8261   -0.3493 O.2     1  UNL1       -0.1466
     17 C           6.7990   -1.2212    1.0023 C.3     1  UNL1        0.5385
     18 F           7.4902   -0.0028    0.8660 F       1  UNL1       -0.1491
     19 F           6.0363   -1.1243    2.1242 F       1  UNL1       -0.1491
     20 F           7.7702   -2.1889    1.1711 F       1  UNL1       -0.1491
     21 C           0.3573   -0.9678   -0.2811 C.ar    1  UNL1        0.0175
     22 N          -0.9908   -0.8731   -0.0231 N.ar    1  UNL1       -0.2828
     23 C          -1.7862   -1.9938    0.0551 C.2     1  UNL1        0.2629
     24 O          -1.1831   -3.1565    0.0049 O.2     1  UNL1       -0.2667
     25 C          -3.2288   -2.1374    0.1796 C.ar    1  UNL1        0.0399
     26 C          -3.7250   -3.1101    1.0460 C.ar    1  UNL1       -0.0480
     27 C          -5.0737   -3.3576    1.0879 C.ar    1  UNL1       -0.0427
     28 C          -5.9884   -2.6802    0.2990 C.ar    1  UNL1        0.0410
     29 CL         -7.6840   -3.0572    0.4096 Cl      1  UNL1       -0.0835
     30 C          -5.4689   -1.7181   -0.5537 C.ar    1  UNL1       -0.0427
     31 C          -4.1213   -1.4685   -0.5966 C.ar    1  UNL1       -0.0480
     32 H           0.0981    5.6315   -0.5263 H       1  UNL1        0.0660
     33 H           0.7680    4.9793    1.0208 H       1  UNL1        0.0660
     34 H          -0.3534    6.3824    1.0131 H       1  UNL1        0.0660
     35 H          -3.2720    3.0145    0.8809 H       1  UNL1        0.0655
     36 H          -3.3357    0.5870    0.6419 H       1  UNL1        0.0640
     37 H           0.8842    3.0193    0.0555 H       1  UNL1        0.0661
     38 H           2.6292    1.5510    0.1070 H       1  UNL1        0.0408
     39 H           2.4298    1.0378   -1.5730 H       1  UNL1        0.0408
     40 H           5.0027    0.7152   -1.0755 H       1  UNL1        0.1764
     41 H           0.8968   -1.8783   -0.4857 H       1  UNL1        0.0817
     42 H          -3.0139   -3.6633    1.6901 H       1  UNL1        0.0626
     43 H          -5.3948   -4.1315    1.7859 H       1  UNL1        0.0632
     44 H          -6.1736   -1.1630   -1.1936 H       1  UNL1        0.0632
     45 H          -3.7363   -0.7119   -1.2896 H       1  UNL1        0.0626
@<TRIPOS>BOND
     1     1     2    1
     2     2     3    1
     3     3     4   ar
     4     4     5   ar
     5     5     6   ar
     6     6     7   ar
     7     7     8   ar
     8     7     9   ar
     9     9    10    1
    10    10    11    1
    11    11    12    2
    12    11    13   am
    13    13    14    1
    14    14    15    2
    15    14    16    2
    16    14    17    1
    17    17    18    1
    18    17    19    1
    19    17    20    1
    20     9    21   ar
    21    21    22   ar
    22    22    23   am
    23    23    24    2
    24    23    25    1
    25    25    26   ar
    26    26    27   ar
    27    27    28   ar
    28    28    29    1
    29    28    30   ar
    30    30    31   ar
    31     8     3   ar
    32    31    25   ar
    33    22     6   ar
    34     1    32    1
    35     1    33    1
    36     1    34    1
    37     4    35    1
    38     5    36    1
    39     8    37    1
    40    10    38    1
    41    10    39    1
    42    13    40    1
    43    21    41    1
    44    26    42    1
    45    27    43    1
    46    30    44    1
    47    31    45    1
