@<TRIPOS>MOLECULE
*****
 62 66 0 0 0
SMALL
GASTEIGER

@<TRIPOS>ATOM
      1 C          -3.1156    4.8877   -0.0377 C.3     1  UNL1       -0.0374
      2 C          -3.3235    3.4315   -0.1717 C.ar    1  UNL1       -0.0164
      3 C          -2.2519    2.5838   -0.4720 C.ar    1  UNL1       -0.0161
      4 C          -2.3919    1.2223   -0.6075 C.ar    1  UNL1        0.1313
      5 N          -1.3056    0.3543   -0.9129 N.am    1  UNL1       -0.2387
      6 C           0.0498    0.6769   -1.1272 C.2     1  UNL1        0.2563
      7 O           0.5886    1.8176   -1.0923 O.2     1  UNL1       -0.2694
      8 C           0.8192   -0.5309   -1.4139 C.ar    1  UNL1        0.0814
      9 C           2.0932   -0.9882   -1.7055 C.ar    1  UNL1        0.0664
     10 N           3.2756   -0.2142   -1.8341 N.am    1  UNL1       -0.2490
     11 C           4.0748    0.0166   -0.6801 C.2     1  UNL1        0.4051
     12 O           3.7089   -0.4683    0.4017 O.2     1  UNL1       -0.2261
     13 O           5.2420    0.7583   -0.7125 O.3     1  UNL1       -0.4444
     14 C           6.0499    0.9979    0.4278 C.3     1  UNL1        0.1068
     15 C           7.2262    1.8409   -0.0107 C.3     1  UNL1       -0.0253
     16 C           6.5334   -0.2557    1.0741 C.3     1  UNL1       -0.0253
     17 C           5.1822    1.8124    1.3954 C.3     1  UNL1       -0.0253
     18 C           1.9575   -2.3535   -1.8422 C.ar    1  UNL1        0.0267
     19 N           0.6527   -2.6898   -1.6389 N.ar    1  UNL1       -0.3492
     20 C           0.1639   -4.0537   -1.7096 C.3     1  UNL1        0.0117
     21 C          -0.0689   -1.5662   -1.3712 C.ar    1  UNL1        0.0581
     22 C          -1.4377   -1.0826   -1.0588 C.3     1  UNL1        0.0986
     23 C          -1.8936   -1.7402    0.1670 C.ar    1  UNL1       -0.0207
     24 C          -2.8786   -2.7008    0.1070 C.ar    1  UNL1       -0.0550
     25 C          -3.3465   -3.3522    1.2329 C.ar    1  UNL1       -0.0431
     26 C          -2.8293   -3.0540    2.4835 C.ar    1  UNL1        0.0410
     27 CL         -3.4270   -3.8858    3.9191 Cl      1  UNL1       -0.0835
     28 C          -1.8470   -2.0978    2.5540 C.ar    1  UNL1       -0.0431
     29 C          -1.3921   -1.4584    1.4235 C.ar    1  UNL1       -0.0550
     30 N          -3.6405    0.6866   -0.4384 N.ar    1  UNL1       -0.2108
     31 C          -4.6887    1.4674   -0.1504 C.ar    1  UNL1        0.1803
     32 C          -4.5483    2.8275   -0.0151 C.ar    1  UNL1        0.1345
     33 N          -5.7537    3.3187    0.2678 N.ar    1  UNL1       -0.1276
     34 N          -6.5979    2.3028    0.3046 N.ar    1  UNL1       -0.0635
     35 N          -5.9992    1.1592    0.0573 N.ar    1  UNL1       -0.2297
     36 C          -6.5888   -0.1795    0.0083 C.3     1  UNL1        0.0341
     37 H          -4.0221    5.3988   -0.4285 H       1  UNL1        0.0278
     38 H          -2.9395    5.0928    1.0392 H       1  UNL1        0.0278
     39 H          -2.2612    5.1675   -0.6818 H       1  UNL1        0.0278
     40 H          -1.2614    3.0122   -0.6058 H       1  UNL1        0.0655
     41 H           3.5764    0.1939   -2.7638 H       1  UNL1        0.1582
     42 H           7.4958    2.5933    0.7652 H       1  UNL1        0.0268
     43 H           6.9788    2.3642   -0.9550 H       1  UNL1        0.0268
     44 H           8.1116    1.1713   -0.1048 H       1  UNL1        0.0268
     45 H           7.6095   -0.1435    1.3203 H       1  UNL1        0.0268
     46 H           6.4266   -1.1568    0.4377 H       1  UNL1        0.0268
     47 H           6.0094   -0.3660    2.0483 H       1  UNL1        0.0268
     48 H           5.8270    2.3466    2.1213 H       1  UNL1        0.0268
     49 H           4.5348    1.0944    1.9392 H       1  UNL1        0.0268
     50 H           4.5714    2.4807    0.7780 H       1  UNL1        0.0268
     51 H           2.7878   -3.0092   -2.0746 H       1  UNL1        0.0828
     52 H           0.3154   -4.6029   -0.7426 H       1  UNL1        0.0456
     53 H          -0.9094   -4.0734   -2.0261 H       1  UNL1        0.0456
     54 H           0.7101   -4.6513   -2.4760 H       1  UNL1        0.0456
     55 H          -2.0919   -1.2885   -1.9321 H       1  UNL1        0.0620
     56 H          -3.3056   -2.9575   -0.8637 H       1  UNL1        0.0621
     57 H          -4.1166   -4.1028    1.1828 H       1  UNL1        0.0632
     58 H          -1.4314   -1.8499    3.5095 H       1  UNL1        0.0632
     59 H          -0.6087   -0.6923    1.4586 H       1  UNL1        0.0621
     60 H          -6.8536   -0.4581   -1.0347 H       1  UNL1        0.0474
     61 H          -7.5497   -0.1635    0.5680 H       1  UNL1        0.0474
     62 H          -5.8954   -0.8905    0.4802 H       1  UNL1        0.0474
@<TRIPOS>BOND
     1     1     2    1
     2     2     3   ar
     3     3     4   ar
     4     4     5    1
     5     5     6   am
     6     6     7    2
     7     6     8    1
     8     8     9   ar
     9     9    10    1
    10    10    11   am
    11    11    12    2
    12    11    13    1
    13    13    14    1
    14    14    15    1
    15    14    16    1
    16    14    17    1
    17     9    18   ar
    18    18    19   ar
    19    19    20    1
    20    19    21   ar
    21    21    22    1
    22    22    23    1
    23    23    24   ar
    24    24    25   ar
    25    25    26   ar
    26    26    27    1
    27    26    28   ar
    28    28    29   ar
    29     4    30   ar
    30    30    31   ar
    31    31    32   ar
    32    32    33   ar
    33    33    34   ar
    34    34    35   ar
    35    35    36    1
    36    32     2   ar
    37    22     5    1
    38    29    23   ar
    39    35    31   ar
    40    21     8   ar
    41     1    37    1
    42     1    38    1
    43     1    39    1
    44     3    40    1
    45    10    41    1
    46    15    42    1
    47    15    43    1
    48    15    44    1
    49    16    45    1
    50    16    46    1
    51    16    47    1
    52    17    48    1
    53    17    49    1
    54    17    50    1
    55    18    51    1
    56    20    52    1
    57    20    53    1
    58    20    54    1
    59    22    55    1
    60    24    56    1
    61    25    57    1
    62    28    58    1
    63    29    59    1
    64    36    60    1
    65    36    61    1
    66    36    62    1
