
     RDKit          3D

 62 66  0  0  0  0  0  0  0  0999 V2000
   -3.1156    4.8877   -0.0377 C   0  0  0  0  0  0  0  0  0  0  0  0
   -3.3235    3.4315   -0.1717 C   0  0  0  0  0  0  0  0  0  0  0  0
   -2.2519    2.5838   -0.4720 C   0  0  0  0  0  0  0  0  0  0  0  0
   -2.3919    1.2223   -0.6075 C   0  0  0  0  0  0  0  0  0  0  0  0
   -1.3056    0.3543   -0.9129 N   0  0  0  0  0  0  0  0  0  0  0  0
    0.0498    0.6769   -1.1272 C   0  0  0  0  0  0  0  0  0  0  0  0
    0.5886    1.8176   -1.0923 O   0  0  0  0  0  0  0  0  0  0  0  0
    0.8192   -0.5309   -1.4139 C   0  0  0  0  0  0  0  0  0  0  0  0
    2.0932   -0.9882   -1.7055 C   0  0  0  0  0  0  0  0  0  0  0  0
    3.2756   -0.2142   -1.8341 N   0  0  0  0  0  0  0  0  0  0  0  0
    4.0748    0.0166   -0.6801 C   0  0  0  0  0  0  0  0  0  0  0  0
    3.7089   -0.4683    0.4017 O   0  0  0  0  0  0  0  0  0  0  0  0
    5.2420    0.7583   -0.7125 O   0  0  0  0  0  0  0  0  0  0  0  0
    6.0499    0.9979    0.4278 C   0  0  0  0  0  0  0  0  0  0  0  0
    7.2262    1.8409   -0.0107 C   0  0  0  0  0  0  0  0  0  0  0  0
    6.5334   -0.2557    1.0741 C   0  0  0  0  0  0  0  0  0  0  0  0
    5.1822    1.8124    1.3954 C   0  0  0  0  0  0  0  0  0  0  0  0
    1.9575   -2.3535   -1.8422 C   0  0  0  0  0  0  0  0  0  0  0  0
    0.6527   -2.6898   -1.6389 N   0  0  0  0  0  0  0  0  0  0  0  0
    0.1639   -4.0537   -1.7096 C   0  0  0  0  0  0  0  0  0  0  0  0
   -0.0689   -1.5662   -1.3712 C   0  0  0  0  0  0  0  0  0  0  0  0
   -1.4377   -1.0826   -1.0588 C   0  0  0  0  0  0  0  0  0  0  0  0
   -1.8936   -1.7402    0.1670 C   0  0  0  0  0  0  0  0  0  0  0  0
   -2.8786   -2.7008    0.1070 C   0  0  0  0  0  0  0  0  0  0  0  0
   -3.3465   -3.3522    1.2329 C   0  0  0  0  0  0  0  0  0  0  0  0
   -2.8293   -3.0540    2.4835 C   0  0  0  0  0  0  0  0  0  0  0  0
   -3.4270   -3.8858    3.9191 Cl  0  0  0  0  0  0  0  0  0  0  0  0
   -1.8470   -2.0978    2.5540 C   0  0  0  0  0  0  0  0  0  0  0  0
   -1.3921   -1.4584    1.4235 C   0  0  0  0  0  0  0  0  0  0  0  0
   -3.6405    0.6866   -0.4384 N   0  0  0  0  0  0  0  0  0  0  0  0
   -4.6887    1.4674   -0.1504 C   0  0  0  0  0  0  0  0  0  0  0  0
   -4.5483    2.8275   -0.0151 C   0  0  0  0  0  0  0  0  0  0  0  0
   -5.7537    3.3187    0.2678 N   0  0  0  0  0  0  0  0  0  0  0  0
   -6.5979    2.3028    0.3046 N   0  0  0  0  0  0  0  0  0  0  0  0
   -5.9992    1.1592    0.0573 N   0  0  0  0  0  0  0  0  0  0  0  0
   -6.5888   -0.1795    0.0083 C   0  0  0  0  0  0  0  0  0  0  0  0
   -4.0221    5.3988   -0.4285 H   0  0  0  0  0  0  0  0  0  0  0  0
   -2.9395    5.0928    1.0392 H   0  0  0  0  0  0  0  0  0  0  0  0
   -2.2612    5.1675   -0.6818 H   0  0  0  0  0  0  0  0  0  0  0  0
   -1.2614    3.0122   -0.6058 H   0  0  0  0  0  0  0  0  0  0  0  0
    3.5764    0.1939   -2.7638 H   0  0  0  0  0  0  0  0  0  0  0  0
    7.4958    2.5933    0.7652 H   0  0  0  0  0  0  0  0  0  0  0  0
    6.9788    2.3642   -0.9550 H   0  0  0  0  0  0  0  0  0  0  0  0
    8.1116    1.1713   -0.1048 H   0  0  0  0  0  0  0  0  0  0  0  0
    7.6095   -0.1435    1.3203 H   0  0  0  0  0  0  0  0  0  0  0  0
    6.4266   -1.1568    0.4377 H   0  0  0  0  0  0  0  0  0  0  0  0
    6.0094   -0.3660    2.0483 H   0  0  0  0  0  0  0  0  0  0  0  0
    5.8270    2.3466    2.1213 H   0  0  0  0  0  0  0  0  0  0  0  0
    4.5348    1.0944    1.9392 H   0  0  0  0  0  0  0  0  0  0  0  0
    4.5714    2.4807    0.7780 H   0  0  0  0  0  0  0  0  0  0  0  0
    2.7878   -3.0092   -2.0746 H   0  0  0  0  0  0  0  0  0  0  0  0
    0.3154   -4.6029   -0.7426 H   0  0  0  0  0  0  0  0  0  0  0  0
   -0.9094   -4.0734   -2.0261 H   0  0  0  0  0  0  0  0  0  0  0  0
    0.7101   -4.6513   -2.4760 H   0  0  0  0  0  0  0  0  0  0  0  0
   -2.0919   -1.2885   -1.9321 H   0  0  0  0  0  0  0  0  0  0  0  0
   -3.3056   -2.9575   -0.8637 H   0  0  0  0  0  0  0  0  0  0  0  0
   -4.1166   -4.1028    1.1828 H   0  0  0  0  0  0  0  0  0  0  0  0
   -1.4314   -1.8499    3.5095 H   0  0  0  0  0  0  0  0  0  0  0  0
   -0.6087   -0.6923    1.4586 H   0  0  0  0  0  0  0  0  0  0  0  0
   -6.8536   -0.4581   -1.0347 H   0  0  0  0  0  0  0  0  0  0  0  0
   -7.5497   -0.1635    0.5680 H   0  0  0  0  0  0  0  0  0  0  0  0
   -5.8954   -0.8905    0.4802 H   0  0  0  0  0  0  0  0  0  0  0  0
  1  2  1  0
  2  3  2  0
  3  4  1  0
  4  5  1  0
  5  6  1  0
  6  7  2  0
  6  8  1  0
  8  9  1  0
  9 10  1  0
 10 11  1  0
 11 12  2  0
 11 13  1  0
 13 14  1  0
 14 15  1  0
 14 16  1  0
 14 17  1  0
  9 18  2  0
 18 19  1  0
 19 20  1  0
 19 21  1  0
 21 22  1  0
 22 23  1  0
 23 24  2  0
 24 25  1  0
 25 26  2  0
 26 27  1  0
 26 28  1  0
 28 29  2  0
  4 30  2  0
 30 31  1  0
 31 32  2  0
 32 33  1  0
 33 34  2  0
 34 35  1  0
 35 36  1  0
 32  2  1  0
 22  5  1  0
 29 23  1  0
 35 31  1  0
 21  8  2  0
  1 37  1  0
  1 38  1  0
  1 39  1  0
  3 40  1  0
 10 41  1  0
 15 42  1  0
 15 43  1  0
 15 44  1  0
 16 45  1  0
 16 46  1  0
 16 47  1  0
 17 48  1  0
 17 49  1  0
 17 50  1  0
 18 51  1  0
 20 52  1  0
 20 53  1  0
 20 54  1  0
 22 55  1  0
 24 56  1  0
 25 57  1  0
 28 58  1  0
 29 59  1  0
 36 60  1  0
 36 61  1  0
 36 62  1  0
M  END
$$$$
