@<TRIPOS>MOLECULE
*****
 67 70 0 0 0
SMALL
GASTEIGER

@<TRIPOS>ATOM
      1 C          -2.6897    1.3927   -3.9625 C.3     1  UNL1        0.0789
      2 O          -1.9087    0.8743   -2.9101 O.3     1  UNL1       -0.4932
      3 C          -2.4368    0.4033   -1.7452 C.ar    1  UNL1        0.1415
      4 C          -3.7893    0.4104   -1.5334 C.ar    1  UNL1       -0.0147
      5 C          -4.3790   -0.0489   -0.3853 C.ar    1  UNL1       -0.0406
      6 C          -5.8397   -0.0071   -0.2235 C.3     1  UNL1       -0.0134
      7 C          -6.4603   -1.3706   -0.0390 C.3     1  UNL1       -0.0333
      8 C          -7.9458   -1.2435   -0.0496 C.3     1  UNL1       -0.0009
      9 N          -8.4731   -0.0322    0.4863 N.3     1  UNL1       -0.3053
     10 C          -9.7408   -0.3002    1.1396 C.3     1  UNL1       -0.0128
     11 C          -7.6302    0.6519    1.4153 C.3     1  UNL1       -0.0009
     12 C          -6.2435    0.8989    0.9203 C.3     1  UNL1       -0.0333
     13 C          -3.5468   -0.5363    0.5864 C.ar    1  UNL1       -0.0563
     14 C          -2.1517   -0.5592    0.4035 C.ar    1  UNL1       -0.0366
     15 C          -1.5911   -0.0957   -0.7485 C.ar    1  UNL1        0.0758
     16 N          -0.2093   -0.0893   -0.9722 N.pl3   1  UNL1       -0.2807
     17 C           0.7506   -0.5860   -0.0623 C.ar    1  UNL1        0.2198
     18 N           0.5267   -1.1629    1.1053 N.ar    1  UNL1       -0.2221
     19 C           1.4880   -1.5994    1.9040 C.ar    1  UNL1        0.0446
     20 C           2.8296   -1.4505    1.5067 C.ar    1  UNL1        0.0942
     21 C           3.9038   -1.9913    2.3501 C.3     1  UNL1        0.4205
     22 F           3.3006   -2.5627    3.4869 F       1  UNL1       -0.1658
     23 F           4.5449   -3.0715    1.7257 F       1  UNL1       -0.1658
     24 F           4.8572   -1.1323    2.7695 F       1  UNL1       -0.1658
     25 C           3.0872   -0.8520    0.2993 C.ar    1  UNL1        0.0583
     26 C           4.4551   -0.5722   -0.1886 C.3     1  UNL1       -0.0057
     27 C           4.9110    0.7627    0.2766 C.3     1  UNL1       -0.0222
     28 C           6.3010    1.0733   -0.1627 C.ar    1  UNL1       -0.0463
     29 C           6.4701    1.6989   -1.3707 C.ar    1  UNL1       -0.0585
     30 C           7.7336    2.0282   -1.8587 C.ar    1  UNL1       -0.0608
     31 C           8.8168    1.7010   -1.0796 C.ar    1  UNL1       -0.0496
     32 C           8.6637    1.0767    0.1277 C.ar    1  UNL1        0.0367
     33 C           9.8290    0.7436    0.9277 C.2     1  UNL1        0.2415
     34 N          11.1321    1.0630    0.4629 N.am    1  UNL1       -0.3253
     35 O           9.6815    0.1784    2.0196 O.2     1  UNL1       -0.2704
     36 C           7.3870    0.7609    0.5875 C.ar    1  UNL1       -0.0464
     37 N           2.0508   -0.4271   -0.4736 N.ar    1  UNL1       -0.2187
     38 H          -2.0504    1.7189   -4.8171 H       1  UNL1        0.0660
     39 H          -3.4100    0.6366   -4.3624 H       1  UNL1        0.0660
     40 H          -3.2575    2.2565   -3.5683 H       1  UNL1        0.0660
     41 H          -4.4118    0.8057   -2.3297 H       1  UNL1        0.0657
     42 H          -6.3017    0.4382   -1.1419 H       1  UNL1        0.0350
     43 H          -6.1596   -1.9838   -0.9144 H       1  UNL1        0.0283
     44 H          -6.1468   -1.8567    0.9003 H       1  UNL1        0.0283
     45 H          -8.3496   -1.4025   -1.0910 H       1  UNL1        0.0427
     46 H          -8.3533   -2.1240    0.5296 H       1  UNL1        0.0427
     47 H          -9.8678    0.3939    1.9999 H       1  UNL1        0.0391
     48 H          -9.8024   -1.3312    1.5341 H       1  UNL1        0.0391
     49 H         -10.6000   -0.1629    0.4538 H       1  UNL1        0.0391
     50 H          -8.1055    1.6559    1.6023 H       1  UNL1        0.0427
     51 H          -7.6455    0.1402    2.4146 H       1  UNL1        0.0427
     52 H          -5.5416    0.6920    1.7668 H       1  UNL1        0.0283
     53 H          -6.0864    1.9732    0.6582 H       1  UNL1        0.0283
     54 H          -3.9609   -0.9077    1.5038 H       1  UNL1        0.0621
     55 H          -1.5984   -0.9561    1.2219 H       1  UNL1        0.0637
     56 H           0.1362    0.3277   -1.9098 H       1  UNL1        0.1551
     57 H           1.3056   -2.0653    2.8472 H       1  UNL1        0.0837
     58 H           5.1545   -1.3504    0.2150 H       1  UNL1        0.0331
     59 H           4.5262   -0.6621   -1.3036 H       1  UNL1        0.0331
     60 H           4.2113    1.5418   -0.2087 H       1  UNL1        0.0317
     61 H           4.7675    0.9049    1.3426 H       1  UNL1        0.0317
     62 H           5.6395    1.9744   -2.0178 H       1  UNL1        0.0620
     63 H           7.8982    2.5136   -2.7915 H       1  UNL1        0.0618
     64 H           9.8297    1.9265   -1.3956 H       1  UNL1        0.0625
     65 H          11.6625    0.3461   -0.0780 H       1  UNL1        0.1453
     66 H          11.5477    2.0097    0.6650 H       1  UNL1        0.1453
     67 H           7.2854    0.2704    1.5393 H       1  UNL1        0.0628
@<TRIPOS>BOND
     1     1     2    1
     2     2     3    1
     3     3     4   ar
     4     4     5   ar
     5     5     6    1
     6     6     7    1
     7     7     8    1
     8     8     9    1
     9     9    10    1
    10     9    11    1
    11    11    12    1
    12     5    13   ar
    13    13    14   ar
    14    14    15   ar
    15    15    16    1
    16    16    17    1
    17    17    18   ar
    18    18    19   ar
    19    19    20   ar
    20    20    21    1
    21    21    22    1
    22    21    23    1
    23    21    24    1
    24    20    25   ar
    25    25    26    1
    26    26    27    1
    27    27    28    1
    28    28    29   ar
    29    29    30   ar
    30    30    31   ar
    31    31    32   ar
    32    32    33    1
    33    33    34   am
    34    33    35    2
    35    32    36   ar
    36    25    37   ar
    37    15     3   ar
    38    37    17   ar
    39    12     6    1
    40    36    28   ar
    41     1    38    1
    42     1    39    1
    43     1    40    1
    44     4    41    1
    45     6    42    1
    46     7    43    1
    47     7    44    1
    48     8    45    1
    49     8    46    1
    50    10    47    1
    51    10    48    1
    52    10    49    1
    53    11    50    1
    54    11    51    1
    55    12    52    1
    56    12    53    1
    57    13    54    1
    58    14    55    1
    59    16    56    1
    60    19    57    1
    61    26    58    1
    62    26    59    1
    63    27    60    1
    64    27    61    1
    65    29    62    1
    66    30    63    1
    67    31    64    1
    68    34    65    1
    69    34    66    1
    70    36    67    1
