
     RDKit          3D

 67 70  0  0  0  0  0  0  0  0999 V2000
   -2.6897    1.3927   -3.9625 C   0  0  0  0  0  0  0  0  0  0  0  0
   -1.9087    0.8743   -2.9101 O   0  0  0  0  0  0  0  0  0  0  0  0
   -2.4368    0.4033   -1.7452 C   0  0  0  0  0  0  0  0  0  0  0  0
   -3.7893    0.4104   -1.5334 C   0  0  0  0  0  0  0  0  0  0  0  0
   -4.3790   -0.0489   -0.3853 C   0  0  0  0  0  0  0  0  0  0  0  0
   -5.8397   -0.0071   -0.2235 C   0  0  0  0  0  0  0  0  0  0  0  0
   -6.4603   -1.3706   -0.0390 C   0  0  0  0  0  0  0  0  0  0  0  0
   -7.9458   -1.2435   -0.0496 C   0  0  0  0  0  0  0  0  0  0  0  0
   -8.4731   -0.0322    0.4863 N   0  0  0  0  0  0  0  0  0  0  0  0
   -9.7408   -0.3002    1.1396 C   0  0  0  0  0  0  0  0  0  0  0  0
   -7.6302    0.6519    1.4153 C   0  0  0  0  0  0  0  0  0  0  0  0
   -6.2435    0.8989    0.9203 C   0  0  0  0  0  0  0  0  0  0  0  0
   -3.5468   -0.5363    0.5864 C   0  0  0  0  0  0  0  0  0  0  0  0
   -2.1517   -0.5592    0.4035 C   0  0  0  0  0  0  0  0  0  0  0  0
   -1.5911   -0.0957   -0.7485 C   0  0  0  0  0  0  0  0  0  0  0  0
   -0.2093   -0.0893   -0.9722 N   0  0  0  0  0  0  0  0  0  0  0  0
    0.7506   -0.5860   -0.0623 C   0  0  0  0  0  0  0  0  0  0  0  0
    0.5267   -1.1629    1.1053 N   0  0  0  0  0  0  0  0  0  0  0  0
    1.4880   -1.5994    1.9040 C   0  0  0  0  0  0  0  0  0  0  0  0
    2.8296   -1.4505    1.5067 C   0  0  0  0  0  0  0  0  0  0  0  0
    3.9038   -1.9913    2.3501 C   0  0  0  0  0  0  0  0  0  0  0  0
    3.3006   -2.5627    3.4869 F   0  0  0  0  0  0  0  0  0  0  0  0
    4.5449   -3.0715    1.7257 F   0  0  0  0  0  0  0  0  0  0  0  0
    4.8572   -1.1323    2.7695 F   0  0  0  0  0  0  0  0  0  0  0  0
    3.0872   -0.8520    0.2993 C   0  0  0  0  0  0  0  0  0  0  0  0
    4.4551   -0.5722   -0.1886 C   0  0  0  0  0  0  0  0  0  0  0  0
    4.9110    0.7627    0.2766 C   0  0  0  0  0  0  0  0  0  0  0  0
    6.3010    1.0733   -0.1627 C   0  0  0  0  0  0  0  0  0  0  0  0
    6.4701    1.6989   -1.3707 C   0  0  0  0  0  0  0  0  0  0  0  0
    7.7336    2.0282   -1.8587 C   0  0  0  0  0  0  0  0  0  0  0  0
    8.8168    1.7010   -1.0796 C   0  0  0  0  0  0  0  0  0  0  0  0
    8.6637    1.0767    0.1277 C   0  0  0  0  0  0  0  0  0  0  0  0
    9.8290    0.7436    0.9277 C   0  0  0  0  0  0  0  0  0  0  0  0
   11.1321    1.0630    0.4629 N   0  0  0  0  0  0  0  0  0  0  0  0
    9.6815    0.1784    2.0196 O   0  0  0  0  0  0  0  0  0  0  0  0
    7.3870    0.7609    0.5875 C   0  0  0  0  0  0  0  0  0  0  0  0
    2.0508   -0.4271   -0.4736 N   0  0  0  0  0  0  0  0  0  0  0  0
   -2.0504    1.7189   -4.8171 H   0  0  0  0  0  0  0  0  0  0  0  0
   -3.4100    0.6366   -4.3624 H   0  0  0  0  0  0  0  0  0  0  0  0
   -3.2575    2.2565   -3.5683 H   0  0  0  0  0  0  0  0  0  0  0  0
   -4.4118    0.8057   -2.3297 H   0  0  0  0  0  0  0  0  0  0  0  0
   -6.3017    0.4382   -1.1419 H   0  0  0  0  0  0  0  0  0  0  0  0
   -6.1596   -1.9838   -0.9144 H   0  0  0  0  0  0  0  0  0  0  0  0
   -6.1468   -1.8567    0.9003 H   0  0  0  0  0  0  0  0  0  0  0  0
   -8.3496   -1.4025   -1.0910 H   0  0  0  0  0  0  0  0  0  0  0  0
   -8.3533   -2.1240    0.5296 H   0  0  0  0  0  0  0  0  0  0  0  0
   -9.8678    0.3939    1.9999 H   0  0  0  0  0  0  0  0  0  0  0  0
   -9.8024   -1.3312    1.5341 H   0  0  0  0  0  0  0  0  0  0  0  0
  -10.6000   -0.1629    0.4538 H   0  0  0  0  0  0  0  0  0  0  0  0
   -8.1055    1.6559    1.6023 H   0  0  0  0  0  0  0  0  0  0  0  0
   -7.6455    0.1402    2.4146 H   0  0  0  0  0  0  0  0  0  0  0  0
   -5.5416    0.6920    1.7668 H   0  0  0  0  0  0  0  0  0  0  0  0
   -6.0864    1.9732    0.6582 H   0  0  0  0  0  0  0  0  0  0  0  0
   -3.9609   -0.9077    1.5038 H   0  0  0  0  0  0  0  0  0  0  0  0
   -1.5984   -0.9561    1.2219 H   0  0  0  0  0  0  0  0  0  0  0  0
    0.1362    0.3277   -1.9098 H   0  0  0  0  0  0  0  0  0  0  0  0
    1.3056   -2.0653    2.8472 H   0  0  0  0  0  0  0  0  0  0  0  0
    5.1545   -1.3504    0.2150 H   0  0  0  0  0  0  0  0  0  0  0  0
    4.5262   -0.6621   -1.3036 H   0  0  0  0  0  0  0  0  0  0  0  0
    4.2113    1.5418   -0.2087 H   0  0  0  0  0  0  0  0  0  0  0  0
    4.7675    0.9049    1.3426 H   0  0  0  0  0  0  0  0  0  0  0  0
    5.6395    1.9744   -2.0178 H   0  0  0  0  0  0  0  0  0  0  0  0
    7.8982    2.5136   -2.7915 H   0  0  0  0  0  0  0  0  0  0  0  0
    9.8297    1.9265   -1.3956 H   0  0  0  0  0  0  0  0  0  0  0  0
   11.6625    0.3461   -0.0780 H   0  0  0  0  0  0  0  0  0  0  0  0
   11.5477    2.0097    0.6650 H   0  0  0  0  0  0  0  0  0  0  0  0
    7.2854    0.2704    1.5393 H   0  0  0  0  0  0  0  0  0  0  0  0
  1  2  1  0
  2  3  1  0
  3  4  2  0
  4  5  1  0
  5  6  1  0
  6  7  1  0
  7  8  1  0
  8  9  1  0
  9 10  1  0
  9 11  1  0
 11 12  1  0
  5 13  2  0
 13 14  1  0
 14 15  2  0
 15 16  1  0
 16 17  1  0
 17 18  2  0
 18 19  1  0
 19 20  2  0
 20 21  1  0
 21 22  1  0
 21 23  1  0
 21 24  1  0
 20 25  1  0
 25 26  1  0
 26 27  1  0
 27 28  1  0
 28 29  2  0
 29 30  1  0
 30 31  2  0
 31 32  1  0
 32 33  1  0
 33 34  1  0
 33 35  2  0
 32 36  2  0
 25 37  2  0
 15  3  1  0
 37 17  1  0
 12  6  1  0
 36 28  1  0
  1 38  1  0
  1 39  1  0
  1 40  1  0
  4 41  1  0
  6 42  1  0
  7 43  1  0
  7 44  1  0
  8 45  1  0
  8 46  1  0
 10 47  1  0
 10 48  1  0
 10 49  1  0
 11 50  1  0
 11 51  1  0
 12 52  1  0
 12 53  1  0
 13 54  1  0
 14 55  1  0
 16 56  1  0
 19 57  1  0
 26 58  1  0
 26 59  1  0
 27 60  1  0
 27 61  1  0
 29 62  1  0
 30 63  1  0
 31 64  1  0
 34 65  1  0
 34 66  1  0
 36 67  1  0
M  END
$$$$
