
     RDKit          3D

 52 54  0  0  0  0  0  0  0  0999 V2000
   -5.9662    2.0739   -1.4204 C   0  0  0  0  0  0  0  0  0  0  0  0
   -6.1952    1.4428   -0.2230 O   0  0  0  0  0  0  0  0  0  0  0  0
   -5.5916    2.0342    0.8655 C   0  0  0  0  0  0  0  0  0  0  0  0
   -4.0930    2.1111    0.7776 C   0  0  0  0  0  0  0  0  0  0  0  0
   -3.5080    0.8328    0.6666 O   0  0  0  0  0  0  0  0  0  0  0  0
   -2.1304    0.7391    0.5759 C   0  0  0  0  0  0  0  0  0  0  0  0
   -1.4313    1.9536    0.6032 C   0  0  0  0  0  0  0  0  0  0  0  0
   -0.0491    1.9543    0.5179 C   0  0  0  0  0  0  0  0  0  0  0  0
    0.6852    0.8115    0.4065 C   0  0  0  0  0  0  0  0  0  0  0  0
   -0.0609   -0.3395    0.3862 C   0  0  0  0  0  0  0  0  0  0  0  0
   -1.4254   -0.4736    0.4619 C   0  0  0  0  0  0  0  0  0  0  0  0
   -2.2923   -1.5062    0.4524 O   0  0  0  0  0  0  0  0  0  0  0  0
   -1.9917   -2.8418    0.3264 C   0  0  0  0  0  0  0  0  0  0  0  0
   -1.3540   -3.2735   -0.9512 C   0  0  0  0  0  0  0  0  0  0  0  0
   -2.1158   -3.0179   -2.0808 O   0  0  0  0  0  0  0  0  0  0  0  0
   -3.3198   -3.6682   -2.0257 C   0  0  0  0  0  0  0  0  0  0  0  0
    2.0580    0.7957    0.3218 C   0  0  0  0  0  0  0  0  0  0  0  0
    2.7840   -0.3945    0.2014 N   0  0  0  0  0  0  0  0  0  0  0  0
    4.1708   -0.5770    0.1341 C   0  0  0  0  0  0  0  0  0  0  0  0
    5.0806    0.4423    0.3026 C   0  0  0  0  0  0  0  0  0  0  0  0
    6.4507    0.3120    0.2402 C   0  0  0  0  0  0  0  0  0  0  0  0
    6.9996   -0.9255   -0.0100 C   0  0  0  0  0  0  0  0  0  0  0  0
    6.1473   -1.9880   -0.1882 C   0  0  0  0  0  0  0  0  0  0  0  0
    4.7957   -1.7805   -0.1116 C   0  0  0  0  0  0  0  0  0  0  0  0
    7.3770    1.3911    0.4201 C   0  0  0  0  0  0  0  0  0  0  0  0
    8.1522    2.2983    0.5921 C   0  0  0  0  0  0  0  0  0  0  0  0
    2.5887    2.0217    0.3611 N   0  0  0  0  0  0  0  0  0  0  0  0
    1.9527    3.1758    0.4672 C   0  0  0  0  0  0  0  0  0  0  0  0
    0.6181    3.1397    0.5464 N   0  0  0  0  0  0  0  0  0  0  0  0
   -6.4870    1.5439   -2.2695 H   0  0  0  0  0  0  0  0  0  0  0  0
   -4.8619    2.0664   -1.6330 H   0  0  0  0  0  0  0  0  0  0  0  0
   -6.3866    3.0900   -1.3801 H   0  0  0  0  0  0  0  0  0  0  0  0
   -5.9527    3.0728    1.0585 H   0  0  0  0  0  0  0  0  0  0  0  0
   -5.8716    1.4058    1.7555 H   0  0  0  0  0  0  0  0  0  0  0  0
   -3.7435    2.5226    1.7571 H   0  0  0  0  0  0  0  0  0  0  0  0
   -3.8321    2.8048   -0.0396 H   0  0  0  0  0  0  0  0  0  0  0  0
   -1.9060    2.9204    0.6888 H   0  0  0  0  0  0  0  0  0  0  0  0
    0.4196   -1.2967    0.3205 H   0  0  0  0  0  0  0  0  0  0  0  0
   -2.9151   -3.4622    0.5031 H   0  0  0  0  0  0  0  0  0  0  0  0
   -1.3080   -3.1959    1.1579 H   0  0  0  0  0  0  0  0  0  0  0  0
   -0.3693   -2.8620   -1.1345 H   0  0  0  0  0  0  0  0  0  0  0  0
   -1.2354   -4.3893   -0.8754 H   0  0  0  0  0  0  0  0  0  0  0  0
   -3.1960   -4.7793   -1.9391 H   0  0  0  0  0  0  0  0  0  0  0  0
   -3.9129   -3.5476   -2.9665 H   0  0  0  0  0  0  0  0  0  0  0  0
   -3.9389   -3.2896   -1.2024 H   0  0  0  0  0  0  0  0  0  0  0  0
    2.3087   -1.2995    0.1488 H   0  0  0  0  0  0  0  0  0  0  0  0
    4.8050    1.4641    0.5069 H   0  0  0  0  0  0  0  0  0  0  0  0
    8.0527   -1.1250   -0.0769 H   0  0  0  0  0  0  0  0  0  0  0  0
    6.5484   -2.9670   -0.3851 H   0  0  0  0  0  0  0  0  0  0  0  0
    4.1691   -2.6754   -0.2643 H   0  0  0  0  0  0  0  0  0  0  0  0
    8.8310    3.1155    0.7551 H   0  0  0  0  0  0  0  0  0  0  0  0
    2.4467    4.1395    0.4933 H   0  0  0  0  0  0  0  0  0  0  0  0
  1  2  1  0
  2  3  1  0
  3  4  1  0
  4  5  1  0
  5  6  1  0
  6  7  2  0
  7  8  1  0
  8  9  2  0
  9 10  1  0
 10 11  2  0
 11 12  1  0
 12 13  1  0
 13 14  1  0
 14 15  1  0
 15 16  1  0
  9 17  1  0
 17 18  1  0
 18 19  1  0
 19 20  2  0
 20 21  1  0
 21 22  2  0
 22 23  1  0
 23 24  2  0
 21 25  1  0
 25 26  3  0
 17 27  2  0
 27 28  1  0
 28 29  2  0
 11  6  1  0
 24 19  1  0
 29  8  1  0
  1 30  1  0
  1 31  1  0
  1 32  1  0
  3 33  1  0
  3 34  1  0
  4 35  1  0
  4 36  1  0
  7 37  1  0
 10 38  1  0
 13 39  1  0
 13 40  1  0
 14 41  1  0
 14 42  1  0
 16 43  1  0
 16 44  1  0
 16 45  1  0
 18 46  1  0
 20 47  1  0
 22 48  1  0
 23 49  1  0
 24 50  1  0
 26 51  1  0
 28 52  1  0
M  END
$$$$
