@<TRIPOS>MOLECULE
*****
 57 60 0 0 0
SMALL
GASTEIGER

@<TRIPOS>ATOM
      1 O           4.1553    1.3781   -0.9436 O.2     1  UNL1       -0.2702
      2 C           5.0165    0.5439   -0.5462 C.2     1  UNL1        0.2442
      3 N           4.6624   -0.8187   -0.4897 N.am    1  UNL1       -0.3086
      4 C           3.4144   -1.4232   -0.8057 C.3     1  UNL1        0.0408
      5 C           2.2383   -1.1429    0.0440 C.3     1  UNL1        0.0843
      6 O           2.4850   -1.5236    1.3969 O.3     1  UNL1       -0.3869
      7 C           1.6696    0.2045    0.0702 C.3     1  UNL1       -0.0066
      8 C           0.2573    0.3363    0.5995 C.3     1  UNL1        0.0175
      9 N          -0.5107   -0.8626    0.6131 N.pl3   1  UNL1       -0.2994
     10 C          -1.9132   -0.8168    0.4760 C.ar    1  UNL1        0.2214
     11 N          -2.5489    0.3620    0.3298 N.ar    1  UNL1       -0.1790
     12 C          -3.8796    0.4929    0.1933 C.ar    1  UNL1        0.2254
     13 O          -4.5023    1.7254    0.0444 O.3     1  UNL1       -0.4378
     14 C          -5.8800    1.7475   -0.0887 C.ar    1  UNL1        0.1331
     15 C          -6.7570    1.8418    0.9708 C.ar    1  UNL1       -0.0191
     16 C          -8.1248    1.8600    0.7857 C.ar    1  UNL1       -0.0556
     17 C          -8.6766    1.7842   -0.4728 C.ar    1  UNL1       -0.0262
     18 C          -7.8132    1.6894   -1.5434 C.ar    1  UNL1        0.1269
     19 F          -8.3558    1.6140   -2.7927 F       1  UNL1       -0.2054
     20 C          -6.4326    1.6716   -1.3478 C.ar    1  UNL1        0.0160
     21 C          -4.6054   -0.7031    0.2109 C.ar    1  UNL1        0.0305
     22 C          -3.9893   -1.9180    0.3579 C.ar    1  UNL1        0.1522
     23 C          -4.7490   -3.1822    0.3773 C.3     1  UNL1        0.4345
     24 F          -5.2911   -3.3099    1.6635 F       1  UNL1       -0.1644
     25 F          -3.9628   -4.2778    0.1728 F       1  UNL1       -0.1644
     26 F          -5.8193   -3.1291   -0.5076 F       1  UNL1       -0.1644
     27 N          -2.6612   -1.9537    0.4872 N.ar    1  UNL1       -0.2101
     28 C           0.1378   -2.1373    0.7673 C.3     1  UNL1        0.0175
     29 C           1.1499   -2.1993   -0.3580 C.3     1  UNL1       -0.0066
     30 C           6.3445    1.0434   -0.1637 C.ar    1  UNL1        0.0367
     31 C           6.5701    2.4208   -0.2774 C.ar    1  UNL1       -0.0496
     32 C           7.7962    2.9380    0.0689 C.ar    1  UNL1       -0.0610
     33 C           8.8326    2.1760    0.5275 C.ar    1  UNL1       -0.0617
     34 C           8.6020    0.8229    0.6361 C.ar    1  UNL1       -0.0610
     35 C           7.3661    0.2583    0.2931 C.ar    1  UNL1       -0.0496
     36 H           5.4829   -1.4620   -0.1543 H       1  UNL1        0.1491
     37 H           3.5828   -2.5328   -0.9462 H       1  UNL1        0.0490
     38 H           3.1706   -1.0534   -1.8623 H       1  UNL1        0.0490
     39 H           3.3798   -1.2480    1.6722 H       1  UNL1        0.2102
     40 H           1.6222    0.6063   -0.9663 H       1  UNL1        0.0309
     41 H           2.2621    0.9227    0.6966 H       1  UNL1        0.0309
     42 H          -0.2626    1.1907    0.1079 H       1  UNL1        0.0465
     43 H           0.3452    0.6596    1.6793 H       1  UNL1        0.0465
     44 H          -6.3029    1.9013    1.9652 H       1  UNL1        0.0654
     45 H          -8.7673    1.9351    1.6480 H       1  UNL1        0.0620
     46 H          -9.7619    1.7977   -0.6326 H       1  UNL1        0.0646
     47 H          -5.8128    1.5960   -2.2241 H       1  UNL1        0.0683
     48 H          -5.6791   -0.6156    0.1021 H       1  UNL1        0.0692
     49 H           0.7166   -2.2122    1.7191 H       1  UNL1        0.0465
     50 H          -0.5930   -2.9861    0.6881 H       1  UNL1        0.0465
     51 H           0.6616   -1.8792   -1.2839 H       1  UNL1        0.0309
     52 H           1.6311   -3.1732   -0.4606 H       1  UNL1        0.0309
     53 H           5.7698    3.0844   -0.6419 H       1  UNL1        0.0625
     54 H           7.9486    4.0176   -0.0285 H       1  UNL1        0.0618
     55 H           9.7986    2.6041    0.7974 H       1  UNL1        0.0618
     56 H           9.3693    0.1393    0.9922 H       1  UNL1        0.0618
     57 H           7.2130   -0.8052    0.3886 H       1  UNL1        0.0625
@<TRIPOS>BOND
     1     1     2    2
     2     2     3   am
     3     3     4    1
     4     4     5    1
     5     5     6    1
     6     5     7    1
     7     7     8    1
     8     8     9    1
     9     9    10    1
    10    10    11   ar
    11    11    12   ar
    12    12    13    1
    13    13    14    1
    14    14    15   ar
    15    15    16   ar
    16    16    17   ar
    17    17    18   ar
    18    18    19    1
    19    18    20   ar
    20    12    21   ar
    21    21    22   ar
    22    22    23    1
    23    23    24    1
    24    23    25    1
    25    23    26    1
    26    22    27   ar
    27     9    28    1
    28    28    29    1
    29     2    30    1
    30    30    31   ar
    31    31    32   ar
    32    32    33   ar
    33    33    34   ar
    34    34    35   ar
    35    29     5    1
    36    35    30   ar
    37    27    10   ar
    38    20    14   ar
    39     3    36    1
    40     4    37    1
    41     4    38    1
    42     6    39    1
    43     7    40    1
    44     7    41    1
    45     8    42    1
    46     8    43    1
    47    15    44    1
    48    16    45    1
    49    17    46    1
    50    20    47    1
    51    21    48    1
    52    28    49    1
    53    28    50    1
    54    29    51    1
    55    29    52    1
    56    31    53    1
    57    32    54    1
    58    33    55    1
    59    34    56    1
    60    35    57    1
