@<TRIPOS>MOLECULE
*****
 60 62 0 0 0
SMALL
GASTEIGER

@<TRIPOS>ATOM
      1 O           0.4585    2.2398   -0.9966 O.2     1  UNL1       -0.2737
      2 C          -0.1341    2.8405   -0.0699 C.2     1  UNL1        0.2362
      3 C          -0.8022    2.0634    0.9923 C.3     1  UNL1        0.0372
      4 C          -0.7263    0.5911    0.8727 C.3     1  UNL1        0.0464
      5 C          -1.3213   -0.0060   -0.3609 C.3     1  UNL1       -0.0413
      6 C          -2.7719    0.2724   -0.5414 C.3     1  UNL1       -0.0521
      7 C          -3.6387   -0.2341    0.5568 C.3     1  UNL1       -0.0502
      8 C          -5.1006    0.0514    0.3607 C.3     1  UNL1       -0.0410
      9 C          -5.8453   -0.5265    1.5618 C.3     1  UNL1       -0.0502
     10 C          -7.2977   -0.7606    1.2458 C.3     1  UNL1       -0.0528
     11 C          -7.3654   -1.9326    0.2788 C.3     1  UNL1       -0.0530
     12 C          -6.1065   -1.9946   -0.5641 C.3     1  UNL1       -0.0528
     13 C          -5.6882   -0.5698   -0.8616 C.3     1  UNL1       -0.0502
     14 C           0.6522    0.1019    1.1356 C.ar    1  UNL1        0.2313
     15 N           1.7433    0.3439    0.3500 N.ar    1  UNL1       -0.1872
     16 C           2.8158   -0.2493    0.8901 C.ar    1  UNL1        0.2585
     17 C           4.1763   -0.2424    0.3744 C.2     1  UNL1        0.3036
     18 O           5.0800   -0.8623    1.0227 O.2     1  UNL1       -0.2651
     19 N           4.5377    0.4274   -0.8225 N.am    1  UNL1       -0.1788
     20 S           6.1373    0.4506   -1.4532 S.O2    1  UNL1        0.0747
     21 O           6.6222    1.8878   -1.4246 O.2     1  UNL1       -0.1499
     22 O           6.2024   -0.0641   -2.8605 O.2     1  UNL1       -0.1499
     23 C           7.2127   -0.4589   -0.4170 C.ar    1  UNL1        0.1086
     24 C           7.3948   -1.8155   -0.6602 C.ar    1  UNL1       -0.0351
     25 C           8.2417   -2.5151    0.1600 C.ar    1  UNL1       -0.0599
     26 C           8.9230   -1.9278    1.2199 C.ar    1  UNL1       -0.0616
     27 C           8.7416   -0.5861    1.4588 C.ar    1  UNL1       -0.0599
     28 C           7.8907    0.1163    0.6346 C.ar    1  UNL1       -0.0351
     29 N           2.3692   -0.8486    2.0015 N.ar    1  UNL1       -0.0512
     30 O           1.0872   -0.6333    2.1358 O.2     1  UNL1       -0.3373
     31 N          -0.1250    4.2544   -0.1010 N.am    1  UNL1       -0.1975
     32 O           0.5067    4.8802   -1.1039 O.3     1  UNL1       -0.2952
     33 H          -0.2494    2.3347    1.9427 H       1  UNL1        0.0366
     34 H          -1.8320    2.4389    1.1794 H       1  UNL1        0.0366
     35 H          -1.3439    0.1752    1.7300 H       1  UNL1        0.0401
     36 H          -0.7501    0.3051   -1.2538 H       1  UNL1        0.0273
     37 H          -1.2219   -1.1344   -0.3594 H       1  UNL1        0.0273
     38 H          -2.8986    1.3385   -0.7697 H       1  UNL1        0.0266
     39 H          -3.0858   -0.2690   -1.4826 H       1  UNL1        0.0266
     40 H          -3.4901   -1.3164    0.6944 H       1  UNL1        0.0268
     41 H          -3.3596    0.2669    1.5203 H       1  UNL1        0.0268
     42 H          -5.2381    1.1426    0.3167 H       1  UNL1        0.0301
     43 H          -5.6941    0.1376    2.4489 H       1  UNL1        0.0268
     44 H          -5.3895   -1.5172    1.7771 H       1  UNL1        0.0268
     45 H          -7.8116   -1.0523    2.1664 H       1  UNL1        0.0265
     46 H          -7.7993    0.1378    0.8382 H       1  UNL1        0.0265
     47 H          -7.4466   -2.8594    0.8640 H       1  UNL1        0.0265
     48 H          -8.2214   -1.8531   -0.4107 H       1  UNL1        0.0265
     49 H          -6.3208   -2.5173   -1.5216 H       1  UNL1        0.0265
     50 H          -5.2868   -2.4951   -0.0129 H       1  UNL1        0.0265
     51 H          -6.6496   -0.0164   -1.0785 H       1  UNL1        0.0268
     52 H          -5.0915   -0.4853   -1.7700 H       1  UNL1        0.0268
     53 H           3.7653    0.9234   -1.3232 H       1  UNL1        0.1769
     54 H           6.8883   -2.3157   -1.4709 H       1  UNL1        0.0637
     55 H           8.4042   -3.5876   -0.0098 H       1  UNL1        0.0618
     56 H           9.5900   -2.4767    1.8666 H       1  UNL1        0.0618
     57 H           9.2701   -0.1284    2.2813 H       1  UNL1        0.0618
     58 H           7.7512    1.1677    0.8253 H       1  UNL1        0.0637
     59 H          -0.5935    4.8132    0.6306 H       1  UNL1        0.1822
     60 H           0.2350    4.5489   -2.0067 H       1  UNL1        0.2414
@<TRIPOS>BOND
     1     1     2    2
     2     2     3    1
     3     3     4    1
     4     4     5    1
     5     5     6    1
     6     6     7    1
     7     7     8    1
     8     8     9    1
     9     9    10    1
    10    10    11    1
    11    11    12    1
    12    12    13    1
    13     4    14    1
    14    14    15   ar
    15    15    16   ar
    16    16    17    1
    17    17    18    2
    18    17    19   am
    19    19    20    1
    20    20    21    2
    21    20    22    2
    22    20    23    1
    23    23    24   ar
    24    24    25   ar
    25    25    26   ar
    26    26    27   ar
    27    27    28   ar
    28    16    29   ar
    29    29    30   ar
    30     2    31   am
    31    31    32    1
    32    13     8    1
    33    30    14   ar
    34    28    23   ar
    35     3    33    1
    36     3    34    1
    37     4    35    1
    38     5    36    1
    39     5    37    1
    40     6    38    1
    41     6    39    1
    42     7    40    1
    43     7    41    1
    44     8    42    1
    45     9    43    1
    46     9    44    1
    47    10    45    1
    48    10    46    1
    49    11    47    1
    50    11    48    1
    51    12    49    1
    52    12    50    1
    53    13    51    1
    54    13    52    1
    55    19    53    1
    56    24    54    1
    57    25    55    1
    58    26    56    1
    59    27    57    1
    60    28    58    1
    61    31    59    1
    62    32    60    1
