
     RDKit          3D

 47 50  0  0  0  0  0  0  0  0999 V2000
    3.2208    3.5160   -0.1770 C   0  0  0  0  0  0  0  0  0  0  0  0
    3.5285    2.2753    0.3936 O   0  0  0  0  0  0  0  0  0  0  0  0
    2.8011    1.1122    0.1421 C   0  0  0  0  0  0  0  0  0  0  0  0
    1.7152    1.1047   -0.6966 C   0  0  0  0  0  0  0  0  0  0  0  0
    0.9768   -0.0581   -0.9567 C   0  0  0  0  0  0  0  0  0  0  0  0
   -0.1404    0.0024   -1.9040 C   0  0  0  0  0  0  0  0  0  0  0  0
   -1.3993   -0.2860   -1.6942 C   0  0  0  0  0  0  0  0  0  0  0  0
   -2.0443   -0.7436   -0.4577 C   0  0  0  0  0  0  0  0  0  0  0  0
   -1.8589   -1.8285    0.3409 C   0  0  0  0  0  0  0  0  0  0  0  0
   -2.6873   -1.7909    1.4176 N   0  0  0  0  0  0  0  0  0  0  0  0
   -3.4277   -0.6761    1.3346 C   0  0  0  0  0  0  0  0  0  0  0  0
   -4.3955   -0.2082    2.1923 C   0  0  0  0  0  0  0  0  0  0  0  0
   -5.0338    0.9812    1.9126 C   0  0  0  0  0  0  0  0  0  0  0  0
   -4.6806    1.6533    0.7915 C   0  0  0  0  0  0  0  0  0  0  0  0
   -3.6991    1.1741   -0.0739 C   0  0  0  0  0  0  0  0  0  0  0  0
   -3.0541   -0.0088    0.1888 C   0  0  0  0  0  0  0  0  0  0  0  0
   -2.1254   -0.1322   -3.0086 C   0  0  0  0  0  0  0  0  0  0  0  0
   -1.1879    0.4266   -3.9257 N   0  0  0  0  0  0  0  0  0  0  0  0
    0.0653    0.4616   -3.3055 C   0  0  0  0  0  0  0  0  0  0  0  0
    1.1841    0.7940   -3.7502 O   0  0  0  0  0  0  0  0  0  0  0  0
    1.3864   -1.1978   -0.3359 C   0  0  0  0  0  0  0  0  0  0  0  0
    2.4987   -1.1902    0.5237 C   0  0  0  0  0  0  0  0  0  0  0  0
    2.9201   -2.3353    1.1560 O   0  0  0  0  0  0  0  0  0  0  0  0
    2.3313   -3.6019    1.0364 C   0  0  0  0  0  0  0  0  0  0  0  0
    3.2154   -0.0403    0.7712 C   0  0  0  0  0  0  0  0  0  0  0  0
    4.3216   -0.0358    1.6273 O   0  0  0  0  0  0  0  0  0  0  0  0
    4.2625    0.1969    3.0005 C   0  0  0  0  0  0  0  0  0  0  0  0
    4.1127    4.1779   -0.2610 H   0  0  0  0  0  0  0  0  0  0  0  0
    2.8276    3.4274   -1.2177 H   0  0  0  0  0  0  0  0  0  0  0  0
    2.4671    4.0596    0.4320 H   0  0  0  0  0  0  0  0  0  0  0  0
    1.3793    1.9967   -1.1953 H   0  0  0  0  0  0  0  0  0  0  0  0
   -1.1876   -2.6541    0.2083 H   0  0  0  0  0  0  0  0  0  0  0  0
   -2.7475   -2.4971    2.1811 H   0  0  0  0  0  0  0  0  0  0  0  0
   -4.7042   -0.7189    3.0988 H   0  0  0  0  0  0  0  0  0  0  0  0
   -5.8135    1.3914    2.5719 H   0  0  0  0  0  0  0  0  0  0  0  0
   -5.1618    2.5926    0.5406 H   0  0  0  0  0  0  0  0  0  0  0  0
   -3.4342    1.7369   -0.9524 H   0  0  0  0  0  0  0  0  0  0  0  0
   -2.4303   -1.1767   -3.2942 H   0  0  0  0  0  0  0  0  0  0  0  0
   -3.0098    0.5151   -2.8746 H   0  0  0  0  0  0  0  0  0  0  0  0
   -1.3590    0.7737   -4.9204 H   0  0  0  0  0  0  0  0  0  0  0  0
    0.8620   -2.1190   -0.5321 H   0  0  0  0  0  0  0  0  0  0  0  0
    3.1754   -4.3413    1.1734 H   0  0  0  0  0  0  0  0  0  0  0  0
    1.8799   -3.7716    0.0442 H   0  0  0  0  0  0  0  0  0  0  0  0
    1.5861   -3.8270    1.8270 H   0  0  0  0  0  0  0  0  0  0  0  0
    4.5674   -0.6781    3.6176 H   0  0  0  0  0  0  0  0  0  0  0  0
    3.2683    0.5568    3.3434 H   0  0  0  0  0  0  0  0  0  0  0  0
    5.0283    0.9913    3.2229 H   0  0  0  0  0  0  0  0  0  0  0  0
  1  2  1  0
  2  3  1  0
  3  4  2  0
  4  5  1  0
  5  6  1  0
  6  7  2  0
  7  8  1  0
  8  9  2  0
  9 10  1  0
 10 11  1  0
 11 12  2  0
 12 13  1  0
 13 14  2  0
 14 15  1  0
 15 16  2  0
  7 17  1  0
 17 18  1  0
 18 19  1  0
 19 20  2  0
  5 21  2  0
 21 22  1  0
 22 23  1  0
 23 24  1  0
 22 25  2  0
 25 26  1  0
 26 27  1  0
 25  3  1  0
 19  6  1  0
 16  8  1  0
 16 11  1  0
  1 28  1  0
  1 29  1  0
  1 30  1  0
  4 31  1  0
  9 32  1  0
 10 33  1  0
 12 34  1  0
 13 35  1  0
 14 36  1  0
 15 37  1  0
 17 38  1  0
 17 39  1  0
 18 40  1  0
 21 41  1  0
 24 42  1  0
 24 43  1  0
 24 44  1  0
 27 45  1  0
 27 46  1  0
 27 47  1  0
M  END
$$$$
