@<TRIPOS>MOLECULE
*****
 47 50 0 0 0
SMALL
GASTEIGER

@<TRIPOS>ATOM
      1 C           3.2208    3.5160   -0.1770 C.3     1  UNL1        0.0790
      2 O           3.5285    2.2753    0.3936 O.3     1  UNL1       -0.4913
      3 C           2.8011    1.1122    0.1421 C.ar    1  UNL1        0.1657
      4 C           1.7152    1.1047   -0.6966 C.ar    1  UNL1       -0.0082
      5 C           0.9768   -0.0581   -0.9567 C.ar    1  UNL1       -0.0054
      6 C          -0.1404    0.0024   -1.9040 C.2     1  UNL1        0.0493
      7 C          -1.3993   -0.2860   -1.6942 C.2     1  UNL1       -0.0085
      8 C          -2.0443   -0.7436   -0.4577 C.ar    1  UNL1        0.0054
      9 C          -1.8589   -1.8285    0.3409 C.ar    1  UNL1        0.0102
     10 N          -2.6873   -1.7909    1.4176 N.ar    1  UNL1       -0.3601
     11 C          -3.4277   -0.6761    1.3346 C.ar    1  UNL1        0.0471
     12 C          -4.3955   -0.2082    2.1923 C.ar    1  UNL1       -0.0378
     13 C          -5.0338    0.9812    1.9126 C.ar    1  UNL1       -0.0598
     14 C          -4.6806    1.6533    0.7915 C.ar    1  UNL1       -0.0611
     15 C          -3.6991    1.1741   -0.0739 C.ar    1  UNL1       -0.0520
     16 C          -3.0541   -0.0088    0.1888 C.ar    1  UNL1        0.0071
     17 C          -2.1254   -0.1322   -3.0086 C.3     1  UNL1        0.0385
     18 N          -1.1879    0.4266   -3.9257 N.am    1  UNL1       -0.3072
     19 C           0.0653    0.4616   -3.3055 C.2     1  UNL1        0.2452
     20 O           1.1841    0.7940   -3.7502 O.2     1  UNL1       -0.2702
     21 C           1.3864   -1.1978   -0.3359 C.ar    1  UNL1       -0.0082
     22 C           2.4987   -1.1902    0.5237 C.ar    1  UNL1        0.1657
     23 O           2.9201   -2.3353    1.1560 O.3     1  UNL1       -0.4913
     24 C           2.3313   -3.6019    1.0364 C.3     1  UNL1        0.0790
     25 C           3.2154   -0.0403    0.7712 C.ar    1  UNL1        0.2035
     26 O           4.3216   -0.0358    1.6273 O.3     1  UNL1       -0.4885
     27 C           4.2625    0.1969    3.0005 C.3     1  UNL1        0.0791
     28 H           4.1127    4.1779   -0.2610 H       1  UNL1        0.0660
     29 H           2.8276    3.4274   -1.2177 H       1  UNL1        0.0660
     30 H           2.4671    4.0596    0.4320 H       1  UNL1        0.0660
     31 H           1.3793    1.9967   -1.1953 H       1  UNL1        0.0661
     32 H          -1.1876   -2.6541    0.2083 H       1  UNL1        0.0813
     33 H          -2.7475   -2.4971    2.1811 H       1  UNL1        0.1654
     34 H          -4.7042   -0.7189    3.0988 H       1  UNL1        0.0638
     35 H          -5.8135    1.3914    2.5719 H       1  UNL1        0.0618
     36 H          -5.1618    2.5926    0.5406 H       1  UNL1        0.0618
     37 H          -3.4342    1.7369   -0.9524 H       1  UNL1        0.0624
     38 H          -2.4303   -1.1767   -3.2942 H       1  UNL1        0.0512
     39 H          -3.0098    0.5151   -2.8746 H       1  UNL1        0.0512
     40 H          -1.3590    0.7737   -4.9204 H       1  UNL1        0.1493
     41 H           0.8620   -2.1190   -0.5321 H       1  UNL1        0.0661
     42 H           3.1754   -4.3413    1.1734 H       1  UNL1        0.0660
     43 H           1.8799   -3.7716    0.0442 H       1  UNL1        0.0660
     44 H           1.5861   -3.8270    1.8270 H       1  UNL1        0.0660
     45 H           4.5674   -0.6781    3.6176 H       1  UNL1        0.0660
     46 H           3.2683    0.5568    3.3434 H       1  UNL1        0.0660
     47 H           5.0283    0.9913    3.2229 H       1  UNL1        0.0660
@<TRIPOS>BOND
     1     1     2    1
     2     2     3    1
     3     3     4   ar
     4     4     5   ar
     5     5     6    1
     6     6     7    2
     7     7     8    1
     8     8     9   ar
     9     9    10   ar
    10    10    11   ar
    11    11    12   ar
    12    12    13   ar
    13    13    14   ar
    14    14    15   ar
    15    15    16   ar
    16     7    17    1
    17    17    18    1
    18    18    19   am
    19    19    20    2
    20     5    21   ar
    21    21    22   ar
    22    22    23    1
    23    23    24    1
    24    22    25   ar
    25    25    26    1
    26    26    27    1
    27    25     3   ar
    28    19     6    1
    29    16     8   ar
    30    16    11   ar
    31     1    28    1
    32     1    29    1
    33     1    30    1
    34     4    31    1
    35     9    32    1
    36    10    33    1
    37    12    34    1
    38    13    35    1
    39    14    36    1
    40    15    37    1
    41    17    38    1
    42    17    39    1
    43    18    40    1
    44    21    41    1
    45    24    42    1
    46    24    43    1
    47    24    44    1
    48    27    45    1
    49    27    46    1
    50    27    47    1
