@<TRIPOS>MOLECULE
*****
 41 42 0 0 0
SMALL
GASTEIGER

@<TRIPOS>ATOM
      1 C          -1.5736    1.2118   -0.1718 C.3     1  UNL1       -0.0203
      2 C          -1.5666   -0.1553    0.3793 C.ar    1  UNL1        0.0709
      3 C          -2.7508   -0.6914    0.9437 C.ar    1  UNL1        0.0638
      4 C          -4.0292    0.0063    1.1208 C.3     1  UNL1       -0.0129
      5 C          -4.9269   -0.0810   -0.0795 C.3     1  UNL1       -0.0584
      6 C          -4.7260   -0.5061    2.3781 C.3     1  UNL1       -0.0584
      7 C          -2.4073   -1.9807    1.2801 C.ar    1  UNL1        0.3625
      8 O          -3.2500   -2.7693    1.8211 O.2     1  UNL1       -0.2429
      9 O          -1.1918   -2.1702    0.9586 O.2     1  UNL1       -0.3260
     10 N          -0.6196   -1.0835    0.4018 N.ar    1  UNL1       -0.1250
     11 C           0.6933   -1.1108   -0.0667 C.2     1  UNL1        0.3503
     12 O           1.1954   -2.3858   -0.0949 O.2     1  UNL1       -0.2463
     13 N           1.5702   -0.1695   -0.4877 N.am    1  UNL1       -0.2808
     14 C           1.4777    1.2405   -0.5575 C.3     1  UNL1        0.0164
     15 C           2.9192    1.8111   -0.6620 C.3     1  UNL1       -0.0368
     16 C           3.7128    1.1312    0.4277 C.3     1  UNL1       -0.0476
     17 C           3.8838   -0.3418    0.0844 C.3     1  UNL1       -0.0279
     18 C           5.2811   -0.5904   -0.3873 C.3     1  UNL1       -0.0610
     19 C           2.8969   -0.6911   -0.9920 C.3     1  UNL1        0.0190
     20 H          -1.2450    1.2384   -1.2314 H       1  UNL1        0.0293
     21 H          -1.0892    1.9029    0.5161 H       1  UNL1        0.0293
     22 H          -2.6457    1.5789   -0.2256 H       1  UNL1        0.0293
     23 H          -3.8309    1.0770    1.3228 H       1  UNL1        0.0346
     24 H          -4.8528    0.7977   -0.7533 H       1  UNL1        0.0235
     25 H          -6.0079   -0.1139    0.2435 H       1  UNL1        0.0235
     26 H          -4.7406   -0.9762   -0.7081 H       1  UNL1        0.0235
     27 H          -3.9705   -0.9287    3.0744 H       1  UNL1        0.0235
     28 H          -5.2283    0.3210    2.9321 H       1  UNL1        0.0235
     29 H          -5.5192   -1.2451    2.1352 H       1  UNL1        0.0235
     30 H           1.1492    1.6518    0.4416 H       1  UNL1        0.0465
     31 H           0.9472    1.6803   -1.3972 H       1  UNL1        0.0465
     32 H           3.3359    1.6912   -1.6530 H       1  UNL1        0.0280
     33 H           2.8107    2.8908   -0.4093 H       1  UNL1        0.0280
     34 H           3.0998    1.1803    1.3488 H       1  UNL1        0.0269
     35 H           4.6995    1.6108    0.5417 H       1  UNL1        0.0269
     36 H           3.6502   -0.9739    0.9638 H       1  UNL1        0.0313
     37 H           5.8624    0.3641   -0.4156 H       1  UNL1        0.0233
     38 H           5.7796   -1.2913    0.2957 H       1  UNL1        0.0233
     39 H           5.2749   -1.0792   -1.3945 H       1  UNL1        0.0233
     40 H           2.8401   -1.7823   -1.0808 H       1  UNL1        0.0468
     41 H           3.0920   -0.2687   -1.9763 H       1  UNL1        0.0468
@<TRIPOS>BOND
     1     1     2    1
     2     2     3   ar
     3     3     4    1
     4     4     5    1
     5     4     6    1
     6     3     7   ar
     7     7     8    2
     8     7     9   ar
     9     9    10   ar
    10    10    11   am
    11    11    12    2
    12    11    13   am
    13    13    14    1
    14    14    15    1
    15    15    16    1
    16    16    17    1
    17    17    18    1
    18    17    19    1
    19    10     2   ar
    20    19    13    1
    21     1    20    1
    22     1    21    1
    23     1    22    1
    24     4    23    1
    25     5    24    1
    26     5    25    1
    27     5    26    1
    28     6    27    1
    29     6    28    1
    30     6    29    1
    31    14    30    1
    32    14    31    1
    33    15    32    1
    34    15    33    1
    35    16    34    1
    36    16    35    1
    37    17    36    1
    38    18    37    1
    39    18    38    1
    40    18    39    1
    41    19    40    1
    42    19    41    1
