
     RDKit          3D

 55 58  0  0  0  0  0  0  0  0999 V2000
    9.9451   -0.0632   -0.5638 C   0  0  0  0  0  0  0  0  0  0  0  0
    8.9900    1.1667   -1.4704 S   0  0  0  0  0  6  0  0  0  0  0  0
    9.6317    2.5061   -1.1487 O   0  0  0  0  0  0  0  0  0  0  0  0
    9.0880    0.8368   -2.9152 O   0  0  0  0  0  0  0  0  0  0  0  0
    7.3697    1.1081   -0.8388 C   0  0  0  0  0  0  0  0  0  0  0  0
    6.5292    0.0862   -1.3082 C   0  0  0  0  0  0  0  0  0  0  0  0
    5.2649   -0.0053   -0.7941 C   0  0  0  0  0  0  0  0  0  0  0  0
    4.7899    0.8429    0.1454 C   0  0  0  0  0  0  0  0  0  0  0  0
    3.4387    0.7034    0.6959 C   0  0  0  0  0  0  0  0  0  0  0  0
    3.1186    1.4577    1.6614 O   0  0  0  0  0  0  0  0  0  0  0  0
    2.5013   -0.2403    0.1907 N   0  0  0  0  0  0  0  0  0  0  0  0
    1.2340   -0.3204    0.8259 C   0  0  0  0  0  0  0  0  0  0  0  0
    1.1122   -1.2436    1.8250 C   0  0  0  0  0  0  0  0  0  0  0  0
   -0.0960   -1.3754    2.5353 C   0  0  0  0  0  0  0  0  0  0  0  0
   -1.1258   -0.5143    2.1527 C   0  0  0  0  0  0  0  0  0  0  0  0
   -1.0308    0.4144    1.1583 C   0  0  0  0  0  0  0  0  0  0  0  0
   -2.2119    1.2989    0.8953 C   0  0  0  0  0  0  0  0  0  0  0  0
   -3.1295    0.9303    0.0085 N   0  0  0  0  0  0  0  0  0  0  0  0
   -4.0925    0.5438   -0.9274 C   0  0  0  0  0  0  0  0  0  0  0  0
   -4.2038    0.7779   -2.2073 N   0  0  0  0  0  0  0  0  0  0  0  0
   -5.2873    0.4125   -2.9089 C   0  0  0  0  0  0  0  0  0  0  0  0
   -6.3314   -0.1980   -2.4172 N   0  0  0  0  0  0  0  0  0  0  0  0
   -6.3004   -0.4873   -1.0739 C   0  0  0  0  0  0  0  0  0  0  0  0
   -7.3946   -1.1435   -0.5840 C   0  0  0  0  0  0  0  0  0  0  0  0
   -8.5607   -1.4669   -1.3941 C   0  0  0  0  0  0  0  0  0  0  0  0
   -9.6743   -2.1751   -1.0132 N   0  0  0  0  0  0  0  0  0  0  0  0
   -8.5111   -1.0085   -2.6228 O   0  0  0  0  0  0  0  0  0  0  0  0
   -7.3325   -1.4518    0.7628 C   0  0  0  0  0  0  0  0  0  0  0  0
   -6.2684   -1.1383    1.5797 C   0  0  0  0  0  0  0  0  0  0  0  0
   -5.1745   -0.4471    0.9966 C   0  0  0  0  0  0  0  0  0  0  0  0
   -5.2162   -0.1377   -0.3173 C   0  0  0  0  0  0  0  0  0  0  0  0
    0.1655    0.5189    0.4803 C   0  0  0  0  0  0  0  0  0  0  0  0
    5.5872    1.8610    0.6290 C   0  0  0  0  0  0  0  0  0  0  0  0
    6.8707    1.9458    0.0995 C   0  0  0  0  0  0  0  0  0  0  0  0
   11.0082    0.2335   -0.5267 H   0  0  0  0  0  0  0  0  0  0  0  0
    9.8007   -1.0250   -1.0994 H   0  0  0  0  0  0  0  0  0  0  0  0
    9.5124   -0.1221    0.4520 H   0  0  0  0  0  0  0  0  0  0  0  0
    6.8970   -0.5841   -2.0435 H   0  0  0  0  0  0  0  0  0  0  0  0
    4.6402   -0.8195   -1.1793 H   0  0  0  0  0  0  0  0  0  0  0  0
    2.7257   -0.8153   -0.6203 H   0  0  0  0  0  0  0  0  0  0  0  0
    1.8911   -1.9087    2.1078 H   0  0  0  0  0  0  0  0  0  0  0  0
   -0.1654   -2.0989    3.3179 H   0  0  0  0  0  0  0  0  0  0  0  0
   -2.0368   -0.6272    2.7161 H   0  0  0  0  0  0  0  0  0  0  0  0
   -1.7750    2.3714    0.7713 H   0  0  0  0  0  0  0  0  0  0  0  0
   -2.7141    1.4914    1.9441 H   0  0  0  0  0  0  0  0  0  0  0  0
   -2.2685    1.1938   -1.0280 H   0  0  0  0  0  0  0  0  0  0  0  0
   -5.2985    0.6334   -3.9777 H   0  0  0  0  0  0  0  0  0  0  0  0
  -10.3774   -2.5843   -1.6739 H   0  0  0  0  0  0  0  0  0  0  0  0
   -9.8644   -2.3394    0.0072 H   0  0  0  0  0  0  0  0  0  0  0  0
   -8.1794   -1.9875    1.2397 H   0  0  0  0  0  0  0  0  0  0  0  0
   -6.2228   -1.3764    2.6012 H   0  0  0  0  0  0  0  0  0  0  0  0
   -4.3320   -0.1736    1.5765 H   0  0  0  0  0  0  0  0  0  0  0  0
    0.2771    1.2260   -0.2985 H   0  0  0  0  0  0  0  0  0  0  0  0
    5.2752    2.5675    1.3765 H   0  0  0  0  0  0  0  0  0  0  0  0
    7.5118    2.7505    0.4634 H   0  0  0  0  0  0  0  0  0  0  0  0
  1  2  1  0
  2  3  2  0
  2  4  2  0
  2  5  1  0
  5  6  2  0
  6  7  1  0
  7  8  2  0
  8  9  1  0
  9 10  2  0
  9 11  1  0
 11 12  1  0
 12 13  2  0
 13 14  1  0
 14 15  2  0
 15 16  1  0
 16 17  1  0
 17 18  1  0
 18 19  1  0
 19 20  2  0
 20 21  1  0
 21 22  2  0
 22 23  1  0
 23 24  2  0
 24 25  1  0
 25 26  1  0
 25 27  2  0
 24 28  1  0
 28 29  2  0
 29 30  1  0
 30 31  2  0
 16 32  2  0
  8 33  1  0
 33 34  2  0
 34  5  1  0
 32 12  1  0
 31 19  1  0
 31 23  1  0
  1 35  1  0
  1 36  1  0
  1 37  1  0
  6 38  1  0
  7 39  1  0
 11 40  1  0
 13 41  1  0
 14 42  1  0
 15 43  1  0
 17 44  1  0
 17 45  1  0
 18 46  1  0
 21 47  1  0
 26 48  1  0
 26 49  1  0
 28 50  1  0
 29 51  1  0
 30 52  1  0
 32 53  1  0
 33 54  1  0
 34 55  1  0
M  END
$$$$
