@<TRIPOS>MOLECULE
*****
 55 58 0 0 0
SMALL
GASTEIGER

@<TRIPOS>ATOM
      1 C           9.9451   -0.0632   -0.5638 C.3     1  UNL1        0.0596
      2 S           8.9900    1.1667   -1.4704 S.O2    1  UNL1       -0.0059
      3 O           9.6317    2.5061   -1.1487 O.2     1  UNL1       -0.1696
      4 O           9.0880    0.8368   -2.9152 O.2     1  UNL1       -0.1696
      5 C           7.3697    1.1081   -0.8388 C.ar    1  UNL1        0.0879
      6 C           6.5292    0.0862   -1.3082 C.ar    1  UNL1       -0.0362
      7 C           5.2649   -0.0053   -0.7941 C.ar    1  UNL1       -0.0478
      8 C           4.7899    0.8429    0.1454 C.ar    1  UNL1        0.0371
      9 C           3.4387    0.7034    0.6959 C.2     1  UNL1        0.2483
     10 O           3.1186    1.4577    1.6614 O.2     1  UNL1       -0.2699
     11 N           2.5013   -0.2403    0.1907 N.am    1  UNL1       -0.2815
     12 C           1.2340   -0.3204    0.8259 C.ar    1  UNL1        0.0340
     13 C           1.1122   -1.2436    1.8250 C.ar    1  UNL1       -0.0405
     14 C          -0.0960   -1.3754    2.5353 C.ar    1  UNL1       -0.0597
     15 C          -1.1258   -0.5143    2.1527 C.ar    1  UNL1       -0.0570
     16 C          -1.0308    0.4144    1.1583 C.ar    1  UNL1       -0.0286
     17 C          -2.2119    1.2989    0.8953 C.3     1  UNL1        0.0357
     18 N          -3.1295    0.9303    0.0085 N.pl3   1  UNL1       -0.3244
     19 C          -4.0925    0.5438   -0.9274 C.ar    1  UNL1        0.1300
     20 N          -4.2038    0.7779   -2.2073 N.ar    1  UNL1       -0.2203
     21 C          -5.2873    0.4125   -2.9089 C.ar    1  UNL1        0.1187
     22 N          -6.3314   -0.1980   -2.4172 N.ar    1  UNL1       -0.2345
     23 C          -6.3004   -0.4873   -1.0739 C.ar    1  UNL1        0.0881
     24 C          -7.3946   -1.1435   -0.5840 C.ar    1  UNL1        0.0625
     25 C          -8.5607   -1.4669   -1.3941 C.2     1  UNL1        0.2436
     26 N          -9.6743   -2.1751   -1.0132 N.am    1  UNL1       -0.3253
     27 O          -8.5111   -1.0085   -2.6228 O.2     1  UNL1       -0.2703
     28 C          -7.3325   -1.4518    0.7628 C.ar    1  UNL1       -0.0475
     29 C          -6.2684   -1.1383    1.5797 C.ar    1  UNL1       -0.0603
     30 C          -5.1745   -0.4471    0.9966 C.ar    1  UNL1       -0.0492
     31 C          -5.2162   -0.1377   -0.3173 C.ar    1  UNL1        0.0409
     32 C           0.1655    0.5189    0.4803 C.ar    1  UNL1       -0.0358
     33 C           5.5872    1.8610    0.6290 C.ar    1  UNL1       -0.0478
     34 C           6.8707    1.9458    0.0995 C.ar    1  UNL1       -0.0362
     35 H          11.0082    0.2335   -0.5267 H       1  UNL1        0.0468
     36 H           9.8007   -1.0250   -1.0994 H       1  UNL1        0.0468
     37 H           9.5124   -0.1221    0.4520 H       1  UNL1        0.0468
     38 H           6.8970   -0.5841   -2.0435 H       1  UNL1        0.0637
     39 H           4.6402   -0.8195   -1.1793 H       1  UNL1        0.0626
     40 H           2.7257   -0.8153   -0.6203 H       1  UNL1        0.1551
     41 H           1.8911   -1.9087    2.1078 H       1  UNL1        0.0636
     42 H          -0.1654   -2.0989    3.3179 H       1  UNL1        0.0618
     43 H          -2.0368   -0.6272    2.7161 H       1  UNL1        0.0621
     44 H          -1.7750    2.3714    0.7713 H       1  UNL1        0.0511
     45 H          -2.7141    1.4914    1.9441 H       1  UNL1        0.0511
     46 H          -2.2685    1.1938   -1.0280 H       1  UNL1        0.1478
     47 H          -5.2985    0.6334   -3.9777 H       1  UNL1        0.1048
     48 H         -10.3774   -2.5843   -1.6739 H       1  UNL1        0.1453
     49 H          -9.8644   -2.3394    0.0072 H       1  UNL1        0.1453
     50 H          -8.1794   -1.9875    1.2397 H       1  UNL1        0.0626
     51 H          -6.2228   -1.3764    2.6012 H       1  UNL1        0.0618
     52 H          -4.3320   -0.1736    1.5765 H       1  UNL1        0.0625
     53 H           0.2771    1.2260   -0.2985 H       1  UNL1        0.0639
     54 H           5.2752    2.5675    1.3765 H       1  UNL1        0.0626
     55 H           7.5118    2.7505    0.4634 H       1  UNL1        0.0637
@<TRIPOS>BOND
     1     1     2    1
     2     2     3    2
     3     2     4    2
     4     2     5    1
     5     5     6   ar
     6     6     7   ar
     7     7     8   ar
     8     8     9    1
     9     9    10    2
    10     9    11   am
    11    11    12    1
    12    12    13   ar
    13    13    14   ar
    14    14    15   ar
    15    15    16   ar
    16    16    17    1
    17    17    18    1
    18    18    19    1
    19    19    20   ar
    20    20    21   ar
    21    21    22   ar
    22    22    23   ar
    23    23    24   ar
    24    24    25    1
    25    25    26   am
    26    25    27    2
    27    24    28   ar
    28    28    29   ar
    29    29    30   ar
    30    30    31   ar
    31    16    32   ar
    32     8    33   ar
    33    33    34   ar
    34    34     5   ar
    35    32    12   ar
    36    31    19   ar
    37    31    23   ar
    38     1    35    1
    39     1    36    1
    40     1    37    1
    41     6    38    1
    42     7    39    1
    43    11    40    1
    44    13    41    1
    45    14    42    1
    46    15    43    1
    47    17    44    1
    48    17    45    1
    49    18    46    1
    50    21    47    1
    51    26    48    1
    52    26    49    1
    53    28    50    1
    54    29    51    1
    55    30    52    1
    56    32    53    1
    57    33    54    1
    58    34    55    1
