@<TRIPOS>MOLECULE
*****
 34 36 0 0 0
SMALL
GASTEIGER

@<TRIPOS>ATOM
      1 C           1.3002    3.6141   -0.2617 C.3     1  UNL1       -0.0454
      2 C           1.1409    2.5315   -1.2904 C.3     1  UNL1        0.0411
      3 N           0.6147    1.3048   -0.7490 N.ar    1  UNL1       -0.2432
      4 N          -0.6759    1.0295   -0.6813 N.ar    1  UNL1       -0.1493
      5 C          -1.1758   -0.1027   -0.1823 C.ar    1  UNL1        0.1807
      6 C          -2.6023   -0.3860   -0.1171 C.ar    1  UNL1        0.0208
      7 C          -3.0704   -1.5708    0.4077 C.ar    1  UNL1       -0.0510
      8 C          -4.4261   -1.7898    0.4465 C.ar    1  UNL1       -0.0611
      9 C          -5.2989   -0.8470   -0.0282 C.ar    1  UNL1       -0.0617
     10 C          -4.8424    0.3431   -0.5559 C.ar    1  UNL1       -0.0611
     11 C          -3.4853    0.5788   -0.6023 C.ar    1  UNL1       -0.0510
     12 N          -0.3253   -1.0314    0.2850 N.ar    1  UNL1       -0.2172
     13 C           1.0090   -0.8546    0.2647 C.ar    1  UNL1        0.1744
     14 C           1.9206   -1.7721    0.7296 C.ar    1  UNL1        0.2841
     15 O           1.4926   -2.8451    1.2046 O.2     1  UNL1       -0.2651
     16 N           3.2592   -1.5047    0.6677 N.ar    1  UNL1       -0.2607
     17 C           4.2016   -2.4857    1.1633 C.3     1  UNL1        0.0197
     18 C           3.6998   -0.3368    0.1495 C.ar    1  UNL1        0.3529
     19 O           4.9490   -0.1689    0.1294 O.2     1  UNL1       -0.2443
     20 N           2.8287    0.5796   -0.3130 N.ar    1  UNL1       -0.1717
     21 C           1.5026    0.3931   -0.2879 C.ar    1  UNL1        0.1860
     22 H           2.1867    3.4026    0.3921 H       1  UNL1        0.0247
     23 H           0.4017    3.8213    0.3235 H       1  UNL1        0.0247
     24 H           1.5562    4.5496   -0.8117 H       1  UNL1        0.0247
     25 H           0.4340    2.8871   -2.0801 H       1  UNL1        0.0507
     26 H           2.1427    2.3320   -1.7229 H       1  UNL1        0.0507
     27 H          -2.3499   -2.3114    0.7821 H       1  UNL1        0.0625
     28 H          -4.7727   -2.7321    0.8650 H       1  UNL1        0.0618
     29 H          -6.3702   -1.0154    0.0004 H       1  UNL1        0.0618
     30 H          -5.5347    1.0930   -0.9333 H       1  UNL1        0.0618
     31 H          -3.0661    1.5063   -1.0106 H       1  UNL1        0.0625
     32 H           4.3449   -3.2244    0.3244 H       1  UNL1        0.0458
     33 H           5.1732   -1.9956    1.4124 H       1  UNL1        0.0458
     34 H           3.8378   -2.9920    2.0797 H       1  UNL1        0.0458
@<TRIPOS>BOND
     1     1     2    1
     2     2     3    1
     3     3     4   ar
     4     4     5   ar
     5     5     6    1
     6     6     7   ar
     7     7     8   ar
     8     8     9   ar
     9     9    10   ar
    10    10    11   ar
    11     5    12   ar
    12    12    13   ar
    13    13    14   ar
    14    14    15    2
    15    14    16   ar
    16    16    17    1
    17    16    18   ar
    18    18    19    2
    19    18    20   ar
    20    20    21   ar
    21    21     3   ar
    22    11     6   ar
    23    21    13    1
    24     1    22    1
    25     1    23    1
    26     1    24    1
    27     2    25    1
    28     2    26    1
    29     7    27    1
    30     8    28    1
    31     9    29    1
    32    10    30    1
    33    11    31    1
    34    17    32    1
    35    17    33    1
    36    17    34    1
