
     RDKit          3D

 34 36  0  0  0  0  0  0  0  0999 V2000
    1.3002    3.6141   -0.2617 C   0  0  0  0  0  0  0  0  0  0  0  0
    1.1409    2.5315   -1.2904 C   0  0  0  0  0  0  0  0  0  0  0  0
    0.6147    1.3048   -0.7490 N   0  0  0  0  0  0  0  0  0  0  0  0
   -0.6759    1.0295   -0.6813 N   0  0  0  0  0  0  0  0  0  0  0  0
   -1.1758   -0.1027   -0.1823 C   0  0  0  0  0  0  0  0  0  0  0  0
   -2.6023   -0.3860   -0.1171 C   0  0  0  0  0  0  0  0  0  0  0  0
   -3.0704   -1.5708    0.4077 C   0  0  0  0  0  0  0  0  0  0  0  0
   -4.4261   -1.7898    0.4465 C   0  0  0  0  0  0  0  0  0  0  0  0
   -5.2989   -0.8470   -0.0282 C   0  0  0  0  0  0  0  0  0  0  0  0
   -4.8424    0.3431   -0.5559 C   0  0  0  0  0  0  0  0  0  0  0  0
   -3.4853    0.5788   -0.6023 C   0  0  0  0  0  0  0  0  0  0  0  0
   -0.3253   -1.0314    0.2850 N   0  0  0  0  0  0  0  0  0  0  0  0
    1.0090   -0.8546    0.2647 C   0  0  0  0  0  0  0  0  0  0  0  0
    1.9206   -1.7721    0.7296 C   0  0  0  0  0  0  0  0  0  0  0  0
    1.4926   -2.8451    1.2046 O   0  0  0  0  0  0  0  0  0  0  0  0
    3.2592   -1.5047    0.6677 N   0  0  0  0  0  0  0  0  0  0  0  0
    4.2016   -2.4857    1.1633 C   0  0  0  0  0  0  0  0  0  0  0  0
    3.6998   -0.3368    0.1495 C   0  0  0  0  0  0  0  0  0  0  0  0
    4.9490   -0.1689    0.1294 O   0  0  0  0  0  0  0  0  0  0  0  0
    2.8287    0.5796   -0.3130 N   0  0  0  0  0  0  0  0  0  0  0  0
    1.5026    0.3931   -0.2879 C   0  0  0  0  0  0  0  0  0  0  0  0
    2.1867    3.4026    0.3921 H   0  0  0  0  0  0  0  0  0  0  0  0
    0.4017    3.8213    0.3235 H   0  0  0  0  0  0  0  0  0  0  0  0
    1.5562    4.5496   -0.8117 H   0  0  0  0  0  0  0  0  0  0  0  0
    0.4340    2.8871   -2.0801 H   0  0  0  0  0  0  0  0  0  0  0  0
    2.1427    2.3320   -1.7229 H   0  0  0  0  0  0  0  0  0  0  0  0
   -2.3499   -2.3114    0.7821 H   0  0  0  0  0  0  0  0  0  0  0  0
   -4.7727   -2.7321    0.8650 H   0  0  0  0  0  0  0  0  0  0  0  0
   -6.3702   -1.0154    0.0004 H   0  0  0  0  0  0  0  0  0  0  0  0
   -5.5347    1.0930   -0.9333 H   0  0  0  0  0  0  0  0  0  0  0  0
   -3.0661    1.5063   -1.0106 H   0  0  0  0  0  0  0  0  0  0  0  0
    4.3449   -3.2244    0.3244 H   0  0  0  0  0  0  0  0  0  0  0  0
    5.1732   -1.9956    1.4124 H   0  0  0  0  0  0  0  0  0  0  0  0
    3.8378   -2.9920    2.0797 H   0  0  0  0  0  0  0  0  0  0  0  0
  1  2  1  0
  2  3  1  0
  3  4  1  0
  4  5  2  0
  5  6  1  0
  6  7  2  0
  7  8  1  0
  8  9  2  0
  9 10  1  0
 10 11  2  0
  5 12  1  0
 12 13  2  0
 13 14  1  0
 14 15  2  0
 14 16  1  0
 16 17  1  0
 16 18  1  0
 18 19  2  0
 18 20  1  0
 20 21  2  0
 21  3  1  0
 11  6  1  0
 21 13  1  0
  1 22  1  0
  1 23  1  0
  1 24  1  0
  2 25  1  0
  2 26  1  0
  7 27  1  0
  8 28  1  0
  9 29  1  0
 10 30  1  0
 11 31  1  0
 17 32  1  0
 17 33  1  0
 17 34  1  0
M  END
$$$$
