@<TRIPOS>MOLECULE
*****
 46 50 0 0 0
SMALL
GASTEIGER

@<TRIPOS>ATOM
      1 N          -7.3262    4.1649    1.9597 N.1     1  UNL1       -0.1908
      2 C          -6.5445    3.3506    1.7146 C.1     1  UNL1        0.1007
      3 C          -5.5753    2.3255    1.4297 C.ar    1  UNL1        0.0705
      4 C          -4.3093    2.6899    1.0670 C.ar    1  UNL1        0.0458
      5 N          -3.4080    1.7358    0.8095 N.ar    1  UNL1       -0.2502
      6 C          -3.6773    0.4181    0.8874 C.ar    1  UNL1        0.1137
      7 C          -2.6568   -0.5083    0.5988 C.ar    1  UNL1        0.1492
      8 N          -1.4058   -0.0331    0.2529 N.pl3   1  UNL1       -0.2977
      9 C          -0.3125   -0.8621   -0.0851 C.ar    1  UNL1        0.0328
     10 C          -0.4240   -2.1665   -0.4814 C.ar    1  UNL1       -0.0391
     11 C           0.6812   -2.9719   -0.7946 C.ar    1  UNL1       -0.0413
     12 C           1.9448   -2.4214   -0.6990 C.ar    1  UNL1        0.0467
     13 CL          3.3802   -3.3331   -1.0999 Cl      1  UNL1       -0.0832
     14 C           2.0942   -1.1078   -0.3016 C.ar    1  UNL1        0.0059
     15 C           3.4742   -0.5451   -0.1854 C.3     1  UNL1        0.1590
     16 C           4.2851   -1.1943    0.9052 C.3     1  UNL1        0.2685
     17 F           3.6416   -1.0096    2.1406 F       1  UNL1       -0.2062
     18 F           5.4645   -0.4610    1.0301 F       1  UNL1       -0.2062
     19 N           4.1570   -0.6293   -1.4602 N.2     1  UNL1       -0.2194
     20 C           4.0229    0.2304   -2.3990 C.2     1  UNL1        0.2764
     21 N           4.6706    0.1857   -3.6622 N.pl3   1  UNL1       -0.3134
     22 O           3.1676    1.2912   -2.1408 O.2     1  UNL1       -0.4622
     23 C           3.0452    1.8382   -0.8381 C.3     1  UNL1        0.1091
     24 C           4.3598    1.9203   -0.0203 C.3     1  UNL1       -0.0064
     25 C           3.3120    0.9069    0.2509 C.3     1  UNL1        0.0344
     26 C           0.9955   -0.3406   -0.0011 C.ar    1  UNL1       -0.0334
     27 N          -3.0071   -1.7850    0.7027 N.ar    1  UNL1       -0.2351
     28 C          -4.2398   -2.2158    1.0556 C.ar    1  UNL1        0.0656
     29 C          -5.2511   -1.3238    1.3414 C.ar    1  UNL1        0.1507
     30 F          -6.4949   -1.6882    1.6968 F       1  UNL1       -0.2032
     31 C          -4.9437    0.0194    1.2500 C.ar    1  UNL1        0.0417
     32 C          -5.8867    0.9994    1.5193 C.ar    1  UNL1       -0.0308
     33 H          -3.9918    3.7215    0.9754 H       1  UNL1        0.0843
     34 H          -1.2505    1.0252    0.2373 H       1  UNL1        0.1536
     35 H          -1.3922   -2.6341   -0.5813 H       1  UNL1        0.0636
     36 H           0.5722   -3.9829   -1.0998 H       1  UNL1        0.0633
     37 H           4.5178   -2.2393    0.7694 H       1  UNL1        0.1047
     38 H           4.2513    0.6880   -4.4718 H       1  UNL1        0.1466
     39 H           5.5527   -0.3238   -3.8397 H       1  UNL1        0.1466
     40 H           2.3553    2.6863   -0.7705 H       1  UNL1        0.0737
     41 H           4.4118    2.8036    0.6490 H       1  UNL1        0.0306
     42 H           5.2553    1.6278   -0.5724 H       1  UNL1        0.0306
     43 H           2.7788    1.0288    1.1977 H       1  UNL1        0.0366
     44 H           1.0664    0.6879    0.3046 H       1  UNL1        0.0640
     45 H          -4.4735   -3.2769    1.1244 H       1  UNL1        0.0860
     46 H          -6.8873    0.7090    1.8057 H       1  UNL1        0.0638
@<TRIPOS>BOND
     1     1     2    3
     2     2     3    1
     3     3     4   ar
     4     4     5   ar
     5     5     6   ar
     6     6     7   ar
     7     7     8    1
     8     8     9    1
     9     9    10   ar
    10    10    11   ar
    11    11    12   ar
    12    12    13    1
    13    12    14   ar
    14    14    15    1
    15    15    16    1
    16    16    17    1
    17    16    18    1
    18    15    19    1
    19    19    20    2
    20    20    21    1
    21    20    22    1
    22    22    23    1
    23    23    24    1
    24    24    25    1
    25    14    26   ar
    26     7    27   ar
    27    27    28   ar
    28    28    29   ar
    29    29    30    1
    30    29    31   ar
    31    31    32   ar
    32    32     3   ar
    33    31     6   ar
    34    26     9   ar
    35    25    15    1
    36    25    23    1
    37     4    33    1
    38     8    34    1
    39    10    35    1
    40    11    36    1
    41    16    37    1
    42    21    38    1
    43    21    39    1
    44    23    40    1
    45    24    41    1
    46    24    42    1
    47    25    43    1
    48    26    44    1
    49    28    45    1
    50    32    46    1
