
     RDKit          3D

 46 50  0  0  0  0  0  0  0  0999 V2000
   -7.3262    4.1649    1.9597 N   0  0  0  0  0  0  0  0  0  0  0  0
   -6.5445    3.3506    1.7146 C   0  0  0  0  0  0  0  0  0  0  0  0
   -5.5753    2.3255    1.4297 C   0  0  0  0  0  0  0  0  0  0  0  0
   -4.3093    2.6899    1.0670 C   0  0  0  0  0  0  0  0  0  0  0  0
   -3.4080    1.7358    0.8095 N   0  0  0  0  0  0  0  0  0  0  0  0
   -3.6773    0.4181    0.8874 C   0  0  0  0  0  0  0  0  0  0  0  0
   -2.6568   -0.5083    0.5988 C   0  0  0  0  0  0  0  0  0  0  0  0
   -1.4058   -0.0331    0.2529 N   0  0  0  0  0  0  0  0  0  0  0  0
   -0.3125   -0.8621   -0.0851 C   0  0  0  0  0  0  0  0  0  0  0  0
   -0.4240   -2.1665   -0.4814 C   0  0  0  0  0  0  0  0  0  0  0  0
    0.6812   -2.9719   -0.7946 C   0  0  0  0  0  0  0  0  0  0  0  0
    1.9448   -2.4214   -0.6990 C   0  0  0  0  0  0  0  0  0  0  0  0
    3.3802   -3.3331   -1.0999 Cl  0  0  0  0  0  0  0  0  0  0  0  0
    2.0942   -1.1078   -0.3016 C   0  0  0  0  0  0  0  0  0  0  0  0
    3.4742   -0.5451   -0.1854 C   0  0  1  0  0  0  0  0  0  0  0  0
    4.2851   -1.1943    0.9052 C   0  0  0  0  0  0  0  0  0  0  0  0
    3.6416   -1.0096    2.1406 F   0  0  0  0  0  0  0  0  0  0  0  0
    5.4645   -0.4610    1.0301 F   0  0  0  0  0  0  0  0  0  0  0  0
    4.1570   -0.6293   -1.4602 N   0  0  0  0  0  0  0  0  0  0  0  0
    4.0229    0.2304   -2.3990 C   0  0  0  0  0  0  0  0  0  0  0  0
    4.6706    0.1857   -3.6622 N   0  0  0  0  0  0  0  0  0  0  0  0
    3.1676    1.2912   -2.1408 O   0  0  0  0  0  0  0  0  0  0  0  0
    3.0452    1.8382   -0.8381 C   0  0  2  0  0  0  0  0  0  0  0  0
    4.3598    1.9203   -0.0203 C   0  0  0  0  0  0  0  0  0  0  0  0
    3.3120    0.9069    0.2509 C   0  0  2  0  0  0  0  0  0  0  0  0
    0.9955   -0.3406   -0.0011 C   0  0  0  0  0  0  0  0  0  0  0  0
   -3.0071   -1.7850    0.7027 N   0  0  0  0  0  0  0  0  0  0  0  0
   -4.2398   -2.2158    1.0556 C   0  0  0  0  0  0  0  0  0  0  0  0
   -5.2511   -1.3238    1.3414 C   0  0  0  0  0  0  0  0  0  0  0  0
   -6.4949   -1.6882    1.6968 F   0  0  0  0  0  0  0  0  0  0  0  0
   -4.9437    0.0194    1.2500 C   0  0  0  0  0  0  0  0  0  0  0  0
   -5.8867    0.9994    1.5193 C   0  0  0  0  0  0  0  0  0  0  0  0
   -3.9918    3.7215    0.9754 H   0  0  0  0  0  0  0  0  0  0  0  0
   -1.2505    1.0252    0.2373 H   0  0  0  0  0  0  0  0  0  0  0  0
   -1.3922   -2.6341   -0.5813 H   0  0  0  0  0  0  0  0  0  0  0  0
    0.5722   -3.9829   -1.0998 H   0  0  0  0  0  0  0  0  0  0  0  0
    4.5178   -2.2393    0.7694 H   0  0  0  0  0  0  0  0  0  0  0  0
    4.2513    0.6880   -4.4718 H   0  0  0  0  0  0  0  0  0  0  0  0
    5.5527   -0.3238   -3.8397 H   0  0  0  0  0  0  0  0  0  0  0  0
    2.3553    2.6863   -0.7705 H   0  0  0  0  0  0  0  0  0  0  0  0
    4.4118    2.8036    0.6490 H   0  0  0  0  0  0  0  0  0  0  0  0
    5.2553    1.6278   -0.5724 H   0  0  0  0  0  0  0  0  0  0  0  0
    2.7788    1.0288    1.1977 H   0  0  0  0  0  0  0  0  0  0  0  0
    1.0664    0.6879    0.3046 H   0  0  0  0  0  0  0  0  0  0  0  0
   -4.4735   -3.2769    1.1244 H   0  0  0  0  0  0  0  0  0  0  0  0
   -6.8873    0.7090    1.8057 H   0  0  0  0  0  0  0  0  0  0  0  0
  1  2  3  0
  2  3  1  0
  3  4  2  0
  4  5  1  0
  5  6  2  0
  6  7  1  0
  7  8  1  0
  8  9  1  0
  9 10  2  0
 10 11  1  0
 11 12  2  0
 12 13  1  0
 12 14  1  0
 14 15  1  0
 15 16  1  1
 16 17  1  0
 16 18  1  0
 15 19  1  0
 19 20  2  0
 20 21  1  0
 20 22  1  0
 22 23  1  0
 23 24  1  0
 24 25  1  0
 14 26  2  0
  7 27  2  0
 27 28  1  0
 28 29  2  0
 29 30  1  0
 29 31  1  0
 31 32  2  0
 32  3  1  0
 31  6  1  0
 26  9  1  0
 25 15  1  0
 25 23  1  0
  4 33  1  0
  8 34  1  0
 10 35  1  0
 11 36  1  0
 16 37  1  0
 21 38  1  0
 21 39  1  0
 23 40  1  1
 24 41  1  0
 24 42  1  0
 25 43  1  1
 26 44  1  0
 28 45  1  0
 32 46  1  0
M  END
$$$$
