@<TRIPOS>MOLECULE
*****
 43 46 0 0 0
SMALL
GASTEIGER

@<TRIPOS>ATOM
      1 C          -1.2770    0.1034   -1.7355 C.3     1  UNL1        0.1363
      2 C          -0.4538   -1.0981   -1.8521 C.1     1  UNL1        0.0790
      3 N           0.1926   -2.0676   -1.9565 N.1     1  UNL1       -0.1955
      4 C          -2.5182   -0.2491   -1.0594 C.ar    1  UNL1        0.1023
      5 N          -2.7470   -1.1009   -0.1379 N.ar    1  UNL1       -0.2423
      6 C          -3.9817   -1.2510    0.3274 C.ar    1  UNL1        0.0785
      7 C          -5.0606   -0.5194   -0.1405 C.ar    1  UNL1        0.0393
      8 S          -4.1672    0.5300   -1.4307 S.2     1  UNL1       -0.0704
      9 C          -6.4053   -0.6061    0.2882 C.ar    1  UNL1       -0.0459
     10 C          -6.6452   -1.5261    1.2812 C.ar    1  UNL1       -0.0606
     11 C          -5.5925   -2.2713    1.7697 C.ar    1  UNL1       -0.0597
     12 C          -4.2953   -2.1545    1.3225 C.ar    1  UNL1       -0.0352
     13 C          -0.5784    1.1556   -0.9975 C.ar    1  UNL1        0.0696
     14 N           0.2743    0.7568   -0.0264 N.ar    1  UNL1       -0.2178
     15 C           0.9788    1.6225    0.7239 C.ar    1  UNL1        0.2154
     16 N           1.8674    1.1815    1.7398 N.pl3   1  UNL1       -0.3131
     17 C           2.0605   -0.2185    2.0264 C.3     1  UNL1        0.0158
     18 C           2.5938   -0.9832    0.8362 C.3     1  UNL1       -0.0106
     19 C           3.9058   -0.4524    0.3893 C.ar    1  UNL1       -0.0278
     20 C           4.1043    0.5386   -0.5418 C.ar    1  UNL1       -0.0557
     21 C           5.3526    0.9843   -0.9104 C.ar    1  UNL1       -0.0433
     22 C           6.4410    0.3936   -0.3031 C.ar    1  UNL1        0.0276
     23 N           6.2601   -0.5727    0.6052 N.ar    1  UNL1       -0.2630
     24 C           5.0444   -1.0175    0.9743 C.ar    1  UNL1        0.0308
     25 N           0.8096    2.9327    0.4777 N.ar    1  UNL1       -0.2229
     26 C          -0.0156    3.3895   -0.4652 C.ar    1  UNL1        0.0329
     27 C          -0.7315    2.5075   -1.2275 C.ar    1  UNL1       -0.0204
     28 H          -1.5177    0.4799   -2.7541 H       1  UNL1        0.0589
     29 H          -7.0049    0.0813   -0.2562 H       1  UNL1        0.0629
     30 H          -7.6762   -1.5386    1.5555 H       1  UNL1        0.0618
     31 H          -5.8949   -2.9672    2.5515 H       1  UNL1        0.0618
     32 H          -3.6110   -2.8268    1.8303 H       1  UNL1        0.0639
     33 H           2.3929    1.8963    2.2911 H       1  UNL1        0.1489
     34 H           1.0692   -0.6643    2.3098 H       1  UNL1        0.0465
     35 H           2.7018   -0.3409    2.9066 H       1  UNL1        0.0465
     36 H           2.7156   -2.0327    1.1758 H       1  UNL1        0.0329
     37 H           1.8727   -1.0017    0.0130 H       1  UNL1        0.0329
     38 H           3.2225    0.9699   -0.9895 H       1  UNL1        0.0621
     39 H           5.4774    1.7555   -1.6363 H       1  UNL1        0.0633
     40 H           7.4437    0.7153   -0.5647 H       1  UNL1        0.0829
     41 H           4.9648   -1.7926    1.7058 H       1  UNL1        0.0832
     42 H          -0.1552    4.4436   -0.6670 H       1  UNL1        0.0831
     43 H          -1.4166    2.8155   -2.0073 H       1  UNL1        0.0651
@<TRIPOS>BOND
     1     1     2    1
     2     2     3    3
     3     1     4    1
     4     4     5   ar
     5     5     6   ar
     6     6     7   ar
     7     7     8   ar
     8     7     9   ar
     9     9    10   ar
    10    10    11   ar
    11    11    12   ar
    12     1    13    1
    13    13    14   ar
    14    14    15   ar
    15    15    16    1
    16    16    17    1
    17    17    18    1
    18    18    19    1
    19    19    20   ar
    20    20    21   ar
    21    21    22   ar
    22    22    23   ar
    23    23    24   ar
    24    15    25   ar
    25    25    26   ar
    26    26    27   ar
    27     8     4   ar
    28    27    13   ar
    29    12     6   ar
    30    24    19   ar
    31     1    28    1
    32     9    29    1
    33    10    30    1
    34    11    31    1
    35    12    32    1
    36    16    33    1
    37    17    34    1
    38    17    35    1
    39    18    36    1
    40    18    37    1
    41    20    38    1
    42    21    39    1
    43    22    40    1
    44    24    41    1
    45    26    42    1
    46    27    43    1
