
     RDKit          3D

 43 46  0  0  0  0  0  0  0  0999 V2000
   -1.2770    0.1034   -1.7355 C   0  0  1  0  0  0  0  0  0  0  0  0
   -0.4538   -1.0981   -1.8521 C   0  0  0  0  0  0  0  0  0  0  0  0
    0.1926   -2.0676   -1.9565 N   0  0  0  0  0  0  0  0  0  0  0  0
   -2.5182   -0.2491   -1.0594 C   0  0  0  0  0  0  0  0  0  0  0  0
   -2.7470   -1.1009   -0.1379 N   0  0  0  0  0  0  0  0  0  0  0  0
   -3.9817   -1.2510    0.3274 C   0  0  0  0  0  0  0  0  0  0  0  0
   -5.0606   -0.5194   -0.1405 C   0  0  0  0  0  0  0  0  0  0  0  0
   -4.1672    0.5300   -1.4307 S   0  0  0  0  0  0  0  0  0  0  0  0
   -6.4053   -0.6061    0.2882 C   0  0  0  0  0  0  0  0  0  0  0  0
   -6.6452   -1.5261    1.2812 C   0  0  0  0  0  0  0  0  0  0  0  0
   -5.5925   -2.2713    1.7697 C   0  0  0  0  0  0  0  0  0  0  0  0
   -4.2953   -2.1545    1.3225 C   0  0  0  0  0  0  0  0  0  0  0  0
   -0.5784    1.1556   -0.9975 C   0  0  0  0  0  0  0  0  0  0  0  0
    0.2743    0.7568   -0.0264 N   0  0  0  0  0  0  0  0  0  0  0  0
    0.9788    1.6225    0.7239 C   0  0  0  0  0  0  0  0  0  0  0  0
    1.8674    1.1815    1.7398 N   0  0  0  0  0  0  0  0  0  0  0  0
    2.0605   -0.2185    2.0264 C   0  0  0  0  0  0  0  0  0  0  0  0
    2.5938   -0.9832    0.8362 C   0  0  0  0  0  0  0  0  0  0  0  0
    3.9058   -0.4524    0.3893 C   0  0  0  0  0  0  0  0  0  0  0  0
    4.1043    0.5386   -0.5418 C   0  0  0  0  0  0  0  0  0  0  0  0
    5.3526    0.9843   -0.9104 C   0  0  0  0  0  0  0  0  0  0  0  0
    6.4410    0.3936   -0.3031 C   0  0  0  0  0  0  0  0  0  0  0  0
    6.2601   -0.5727    0.6052 N   0  0  0  0  0  0  0  0  0  0  0  0
    5.0444   -1.0175    0.9743 C   0  0  0  0  0  0  0  0  0  0  0  0
    0.8096    2.9327    0.4777 N   0  0  0  0  0  0  0  0  0  0  0  0
   -0.0156    3.3895   -0.4652 C   0  0  0  0  0  0  0  0  0  0  0  0
   -0.7315    2.5075   -1.2275 C   0  0  0  0  0  0  0  0  0  0  0  0
   -1.5177    0.4799   -2.7541 H   0  0  0  0  0  0  0  0  0  0  0  0
   -7.0049    0.0813   -0.2562 H   0  0  0  0  0  0  0  0  0  0  0  0
   -7.6762   -1.5386    1.5555 H   0  0  0  0  0  0  0  0  0  0  0  0
   -5.8949   -2.9672    2.5515 H   0  0  0  0  0  0  0  0  0  0  0  0
   -3.6110   -2.8268    1.8303 H   0  0  0  0  0  0  0  0  0  0  0  0
    2.3929    1.8963    2.2911 H   0  0  0  0  0  0  0  0  0  0  0  0
    1.0692   -0.6643    2.3098 H   0  0  0  0  0  0  0  0  0  0  0  0
    2.7018   -0.3409    2.9066 H   0  0  0  0  0  0  0  0  0  0  0  0
    2.7156   -2.0327    1.1758 H   0  0  0  0  0  0  0  0  0  0  0  0
    1.8727   -1.0017    0.0130 H   0  0  0  0  0  0  0  0  0  0  0  0
    3.2225    0.9699   -0.9895 H   0  0  0  0  0  0  0  0  0  0  0  0
    5.4774    1.7555   -1.6363 H   0  0  0  0  0  0  0  0  0  0  0  0
    7.4437    0.7153   -0.5647 H   0  0  0  0  0  0  0  0  0  0  0  0
    4.9648   -1.7926    1.7058 H   0  0  0  0  0  0  0  0  0  0  0  0
   -0.1552    4.4436   -0.6670 H   0  0  0  0  0  0  0  0  0  0  0  0
   -1.4166    2.8155   -2.0073 H   0  0  0  0  0  0  0  0  0  0  0  0
  1  2  1  0
  2  3  3  0
  1  4  1  0
  4  5  2  0
  5  6  1  0
  6  7  2  0
  7  8  1  0
  7  9  1  0
  9 10  2  0
 10 11  1  0
 11 12  2  0
  1 13  1  0
 13 14  2  0
 14 15  1  0
 15 16  1  0
 16 17  1  0
 17 18  1  0
 18 19  1  0
 19 20  2  0
 20 21  1  0
 21 22  2  0
 22 23  1  0
 23 24  2  0
 15 25  2  0
 25 26  1  0
 26 27  2  0
  8  4  1  0
 27 13  1  0
 12  6  1  0
 24 19  1  0
  1 28  1  6
  9 29  1  0
 10 30  1  0
 11 31  1  0
 12 32  1  0
 16 33  1  0
 17 34  1  0
 17 35  1  0
 18 36  1  0
 18 37  1  0
 20 38  1  0
 21 39  1  0
 22 40  1  0
 24 41  1  0
 26 42  1  0
 27 43  1  0
M  END
$$$$
