
     RDKit          3D

 40 43  0  0  0  0  0  0  0  0999 V2000
   -1.8377   -1.9515    0.0506 C   0  0  0  0  0  0  0  0  0  0  0  0
   -0.7044   -1.1693   -0.5045 C   0  0  2  0  0  0  0  0  0  0  0  0
    0.5532   -1.3796    0.3130 C   0  0  0  0  0  0  0  0  0  0  0  0
    0.9366   -2.0127    1.4009 N   0  0  0  0  0  0  0  0  0  0  0  0
    2.2635   -1.8085    1.5601 N   0  0  0  0  0  0  0  0  0  0  0  0
    2.7056   -1.0389    0.5552 C   0  0  0  0  0  0  0  0  0  0  0  0
    4.0690   -0.5567    0.2736 C   0  0  0  0  0  0  0  0  0  0  0  0
    4.7397    0.3670    0.5149 N   0  0  0  0  0  0  0  0  0  0  0  0
    5.9666    0.6282    0.1445 C   0  0  0  0  0  0  0  0  0  0  0  0
    6.7043    1.8812    0.5574 C   0  0  0  0  0  0  0  0  0  0  0  0
    8.0545    1.7010    0.3926 F   0  0  0  0  0  0  0  0  0  0  0  0
    6.5057    2.1350    1.9040 F   0  0  0  0  0  0  0  0  0  0  0  0
    6.3315    2.9577   -0.2317 F   0  0  0  0  0  0  0  0  0  0  0  0
    6.5347   -0.3156   -0.6295 N   0  0  0  0  0  0  0  0  0  0  0  0
    5.2350   -1.5834   -0.8010 S   0  0  0  0  0  0  0  0  0  0  0  0
    1.6330   -0.7836   -0.2023 N   0  0  0  0  0  0  0  0  0  0  0  0
    1.4718    0.0171   -1.4116 C   0  0  0  0  0  0  0  0  0  0  0  0
    0.3069    0.9649   -1.2056 C   0  0  0  0  0  0  0  0  0  0  0  0
   -0.8906    0.2186   -0.7072 N   0  0  0  0  0  0  0  0  0  0  0  0
   -2.0321    0.9427   -0.5348 C   0  0  0  0  0  0  0  0  0  0  0  0
   -1.8961    2.2343   -0.8612 O   0  0  0  0  0  0  0  0  0  0  0  0
   -3.3587    0.6133   -0.0802 C   0  0  0  0  0  0  0  0  0  0  0  0
   -4.3608    0.6943   -1.0659 C   0  0  0  0  0  0  0  0  0  0  0  0
   -5.6432    0.4647   -0.7192 C   0  0  0  0  0  0  0  0  0  0  0  0
   -5.9791    0.1500    0.5977 C   0  0  0  0  0  0  0  0  0  0  0  0
   -7.2704   -0.0739    0.9651 F   0  0  0  0  0  0  0  0  0  0  0  0
   -4.9911    0.0752    1.5443 C   0  0  0  0  0  0  0  0  0  0  0  0
   -3.6736    0.3067    1.2153 C   0  0  0  0  0  0  0  0  0  0  0  0
   -2.7625   -1.7193   -0.5128 H   0  0  0  0  0  0  0  0  0  0  0  0
   -1.6718   -3.0627   -0.2337 H   0  0  0  0  0  0  0  0  0  0  0  0
   -1.9909   -1.9062    1.1271 H   0  0  0  0  0  0  0  0  0  0  0  0
   -0.4883   -1.6542   -1.5229 H   0  0  0  0  0  0  0  0  0  0  0  0
    1.2105   -0.6561   -2.2420 H   0  0  0  0  0  0  0  0  0  0  0  0
    2.3551    0.6309   -1.6064 H   0  0  0  0  0  0  0  0  0  0  0  0
    0.6075    1.7283   -0.4661 H   0  0  0  0  0  0  0  0  0  0  0  0
   -0.0173    1.4258   -2.1426 H   0  0  0  0  0  0  0  0  0  0  0  0
   -4.1160    0.9364   -2.0895 H   0  0  0  0  0  0  0  0  0  0  0  0
   -6.4476    0.5168   -1.4647 H   0  0  0  0  0  0  0  0  0  0  0  0
   -5.1748   -0.1622    2.5953 H   0  0  0  0  0  0  0  0  0  0  0  0
   -2.8777    0.2441    1.9475 H   0  0  0  0  0  0  0  0  0  0  0  0
  1  2  1  0
  2  3  1  0
  3  4  2  0
  4  5  1  0
  5  6  2  0
  6  7  1  0
  7  8  2  0
  8  9  1  0
  9 10  1  0
 10 11  1  0
 10 12  1  0
 10 13  1  0
  9 14  2  0
 14 15  1  0
  6 16  1  0
 16 17  1  0
 17 18  1  0
 18 19  1  0
 19 20  1  0
 20 21  2  0
 20 22  1  0
 22 23  2  0
 23 24  1  0
 24 25  2  0
 25 26  1  0
 25 27  1  0
 27 28  2  0
 19  2  1  0
 28 22  1  0
 16  3  1  0
 15  7  1  0
  1 29  1  0
  1 30  1  0
  1 31  1  0
  2 32  1  6
 17 33  1  0
 17 34  1  0
 18 35  1  0
 18 36  1  0
 23 37  1  0
 24 38  1  0
 27 39  1  0
 28 40  1  0
M  END
$$$$
