@<TRIPOS>MOLECULE
*****
 40 43 0 0 0
SMALL
GASTEIGER

@<TRIPOS>ATOM
      1 C          -1.8377   -1.9515    0.0506 C.3     1  UNL1       -0.0393
      2 C          -0.7044   -1.1693   -0.5045 C.3     1  UNL1        0.0834
      3 C           0.5532   -1.3796    0.3130 C.ar    1  UNL1        0.1542
      4 N           0.9366   -2.0127    1.4009 N.ar    1  UNL1       -0.1320
      5 N           2.2635   -1.8085    1.5601 N.ar    1  UNL1       -0.1269
      6 C           2.7056   -1.0389    0.5552 C.ar    1  UNL1        0.1910
      7 C           4.0690   -0.5567    0.2736 C.ar    1  UNL1        0.1655
      8 N           4.7397    0.3670    0.5149 N.ar    1  UNL1       -0.2116
      9 C           5.9666    0.6282    0.1445 C.ar    1  UNL1        0.2429
     10 C           6.7043    1.8812    0.5574 C.3     1  UNL1        0.4529
     11 F           8.0545    1.7010    0.3926 F       1  UNL1       -0.1631
     12 F           6.5057    2.1350    1.9040 F       1  UNL1       -0.1631
     13 F           6.3315    2.9577   -0.2317 F       1  UNL1       -0.1631
     14 N           6.5347   -0.3156   -0.6295 N.ar    1  UNL1       -0.1848
     15 S           5.2350   -1.5834   -0.8010 S.2     1  UNL1        0.0372
     16 N           1.6330   -0.7836   -0.2023 N.ar    1  UNL1       -0.3062
     17 C           1.4718    0.0171   -1.4116 C.3     1  UNL1        0.0423
     18 C           0.3069    0.9649   -1.2056 C.3     1  UNL1        0.0338
     19 N          -0.8906    0.2186   -0.7072 N.am    1  UNL1       -0.2860
     20 C          -2.0321    0.9427   -0.5348 C.2     1  UNL1        0.2472
     21 O          -1.8961    2.2343   -0.8612 O.2     1  UNL1       -0.2700
     22 C          -3.3587    0.6133   -0.0802 C.ar    1  UNL1        0.0371
     23 C          -4.3608    0.6943   -1.0659 C.ar    1  UNL1       -0.0469
     24 C          -5.6432    0.4647   -0.7192 C.ar    1  UNL1       -0.0257
     25 C          -5.9791    0.1500    0.5977 C.ar    1  UNL1        0.1234
     26 F          -7.2704   -0.0739    0.9651 F       1  UNL1       -0.2055
     27 C          -4.9911    0.0752    1.5443 C.ar    1  UNL1       -0.0257
     28 C          -3.6736    0.3067    1.2153 C.ar    1  UNL1       -0.0469
     29 H          -2.7625   -1.7193   -0.5128 H       1  UNL1        0.0252
     30 H          -1.6718   -3.0627   -0.2337 H       1  UNL1        0.0252
     31 H          -1.9909   -1.9062    1.1271 H       1  UNL1        0.0252
     32 H          -0.4883   -1.6542   -1.5229 H       1  UNL1        0.0579
     33 H           1.2105   -0.6561   -2.2420 H       1  UNL1        0.0508
     34 H           2.3551    0.6309   -1.6064 H       1  UNL1        0.0508
     35 H           0.6075    1.7283   -0.4661 H       1  UNL1        0.0482
     36 H          -0.0173    1.4258   -2.1426 H       1  UNL1        0.0482
     37 H          -4.1160    0.9364   -2.0895 H       1  UNL1        0.0626
     38 H          -6.4476    0.5168   -1.4647 H       1  UNL1        0.0646
     39 H          -5.1748   -0.1622    2.5953 H       1  UNL1        0.0646
     40 H          -2.8777    0.2441    1.9475 H       1  UNL1        0.0626
@<TRIPOS>BOND
     1     1     2    1
     2     2     3    1
     3     3     4   ar
     4     4     5   ar
     5     5     6   ar
     6     6     7    1
     7     7     8   ar
     8     8     9   ar
     9     9    10    1
    10    10    11    1
    11    10    12    1
    12    10    13    1
    13     9    14   ar
    14    14    15   ar
    15     6    16   ar
    16    16    17    1
    17    17    18    1
    18    18    19    1
    19    19    20   am
    20    20    21    2
    21    20    22    1
    22    22    23   ar
    23    23    24   ar
    24    24    25   ar
    25    25    26    1
    26    25    27   ar
    27    27    28   ar
    28    19     2    1
    29    28    22   ar
    30    16     3   ar
    31    15     7   ar
    32     1    29    1
    33     1    30    1
    34     1    31    1
    35     2    32    1
    36    17    33    1
    37    17    34    1
    38    18    35    1
    39    18    36    1
    40    23    37    1
    41    24    38    1
    42    27    39    1
    43    28    40    1
