
     RDKit          3D

 55 59  0  0  0  0  0  0  0  0999 V2000
   -2.1764   -0.8877    0.2823 C   0  0  2  0  0  0  0  0  0  0  0  0
   -2.9870   -2.0463    0.7596 C   0  0  0  0  0  0  0  0  0  0  0  0
   -4.0804   -2.0702   -0.3303 C   0  0  0  0  0  0  0  0  0  0  0  0
   -3.5790   -1.2318   -1.4548 C   0  0  0  0  0  0  0  0  0  0  0  0
   -4.4180   -0.7944   -2.2298 O   0  0  0  0  0  0  0  0  0  0  0  0
   -2.1205   -1.2349   -1.2008 C   0  0  2  0  0  0  0  0  0  0  0  0
   -1.5724   -2.6129   -1.4390 C   0  0  0  0  0  0  0  0  0  0  0  0
   -1.3258   -0.2051   -1.8818 C   0  0  0  0  0  0  0  0  0  0  0  0
   -0.6113    0.6991   -0.9406 C   0  0  1  0  0  0  0  0  0  0  0  0
   -1.5077    1.6721   -0.3496 O   0  0  0  0  0  0  0  0  0  0  0  0
   -1.4026    3.0129   -0.6525 C   0  0  0  0  0  0  0  0  0  0  0  0
   -2.3116    4.0348   -0.0589 C   0  0  0  0  0  0  0  0  0  0  0  0
   -0.5437    3.4686   -1.4416 O   0  0  0  0  0  0  0  0  0  0  0  0
    0.1170    0.0253    0.1645 C   0  0  0  0  0  0  0  0  0  0  0  0
   -0.8025   -0.7724    0.7451 C   0  0  0  0  0  0  0  0  0  0  0  0
   -0.6809   -1.4798    2.0495 C   0  0  0  0  0  0  0  0  0  0  0  0
   -1.4266   -2.2378    2.6983 O   0  0  0  0  0  0  0  0  0  0  0  0
    0.5639   -1.2908    2.7936 C   0  0  0  0  0  0  0  0  0  0  0  0
    1.4645   -0.4836    2.1413 C   0  0  0  0  0  0  0  0  0  0  0  0
    2.6014   -0.2834    2.8801 C   0  0  0  0  0  0  0  0  0  0  0  0
    2.3345   -1.0518    4.0270 C   0  0  0  0  0  0  0  0  0  0  0  0
    1.1279   -1.6266    3.9342 O   0  0  0  0  0  0  0  0  0  0  0  0
    3.6478    0.6580    2.5253 C   0  0  0  0  0  0  0  0  0  0  0  0
    4.6512    0.7157    3.3183 O   0  0  0  0  0  0  0  0  0  0  0  0
    3.3348    1.3238    1.3621 O   0  0  0  0  0  0  0  0  0  0  0  0
    2.6137    0.6543    0.3461 C   0  0  2  0  0  0  0  0  0  0  0  0
    2.5652    1.5013   -0.9177 C   0  0  0  0  0  0  0  0  0  0  0  0
    3.9143    1.7722   -1.3134 O   0  0  0  0  0  0  0  0  0  0  0  0
    3.8846    2.5440   -2.4659 C   0  0  0  0  0  0  0  0  0  0  0  0
    1.4467   -0.1129    0.7073 C   0  0  2  0  0  0  0  0  0  0  0  0
    1.8512   -1.5987    0.1127 C   0  0  0  0  0  0  0  0  0  0  0  0
   -2.8020    0.0051    0.3863 H   0  0  0  0  0  0  0  0  0  0  0  0
   -3.4408   -1.8026    1.7371 H   0  0  0  0  0  0  0  0  0  0  0  0
   -2.4873   -3.0071    0.8276 H   0  0  0  0  0  0  0  0  0  0  0  0
   -4.9879   -1.6713    0.1277 H   0  0  0  0  0  0  0  0  0  0  0  0
   -4.2839   -3.1089   -0.6636 H   0  0  0  0  0  0  0  0  0  0  0  0
   -1.0214   -2.7190   -2.3910 H   0  0  0  0  0  0  0  0  0  0  0  0
   -2.4244   -3.3205   -1.4694 H   0  0  0  0  0  0  0  0  0  0  0  0
   -0.9218   -2.9701   -0.6185 H   0  0  0  0  0  0  0  0  0  0  0  0
   -2.0445    0.4213   -2.4896 H   0  0  0  0  0  0  0  0  0  0  0  0
   -0.6259   -0.6561   -2.6369 H   0  0  0  0  0  0  0  0  0  0  0  0
    0.0246    1.3403   -1.5741 H   0  0  0  0  0  0  0  0  0  0  0  0
   -3.1742    3.4828    0.3937 H   0  0  0  0  0  0  0  0  0  0  0  0
   -1.7479    4.4463    0.8205 H   0  0  0  0  0  0  0  0  0  0  0  0
   -2.6442    4.8034   -0.7567 H   0  0  0  0  0  0  0  0  0  0  0  0
    2.9996   -1.1766    4.8823 H   0  0  0  0  0  0  0  0  0  0  0  0
    3.4291   -0.1197    0.0265 H   0  0  0  0  0  0  0  0  0  0  0  0
    1.9650    2.4084   -0.8423 H   0  0  0  0  0  0  0  0  0  0  0  0
    2.1992    0.9079   -1.7774 H   0  0  0  0  0  0  0  0  0  0  0  0
    4.9278    2.7465   -2.7607 H   0  0  0  0  0  0  0  0  0  0  0  0
    3.3181    2.0051   -3.2350 H   0  0  0  0  0  0  0  0  0  0  0  0
    3.4388    3.5483   -2.2385 H   0  0  0  0  0  0  0  0  0  0  0  0
    2.8197   -1.8375    0.5453 H   0  0  0  0  0  0  0  0  0  0  0  0
    1.0873   -2.2814    0.4906 H   0  0  0  0  0  0  0  0  0  0  0  0
    1.8247   -1.5057   -0.9541 H   0  0  0  0  0  0  0  0  0  0  0  0
  1  2  1  0
  2  3  1  0
  3  4  1  0
  4  5  2  0
  4  6  1  0
  6  7  1  1
  6  8  1  0
  8  9  1  0
  9 10  1  0
 10 11  1  0
 11 12  1  0
 11 13  2  0
  9 14  1  0
 14 15  2  0
 15 16  1  0
 16 17  2  0
 16 18  1  0
 18 19  2  0
 19 20  1  0
 20 21  2  0
 21 22  1  0
 20 23  1  0
 23 24  2  0
 23 25  1  0
 25 26  1  0
 26 27  1  0
 27 28  1  0
 28 29  1  0
 26 30  1  0
 30 31  1  6
  6  1  1  0
 30 14  1  0
 15  1  1  0
 22 18  1  0
 30 19  1  0
  1 32  1  6
  2 33  1  0
  2 34  1  0
  3 35  1  0
  3 36  1  0
  7 37  1  0
  7 38  1  0
  7 39  1  0
  8 40  1  0
  8 41  1  0
  9 42  1  6
 12 43  1  0
 12 44  1  0
 12 45  1  0
 21 46  1  0
 26 47  1  6
 27 48  1  0
 27 49  1  0
 29 50  1  0
 29 51  1  0
 29 52  1  0
 31 53  1  0
 31 54  1  0
 31 55  1  0
M  END
$$$$
