@<TRIPOS>MOLECULE
*****
 55 59 0 0 0
SMALL
GASTEIGER

@<TRIPOS>ATOM
      1 C          -2.1764   -0.8877    0.2823 C.3     1  UNL1        0.0006
      2 C          -2.9870   -2.0463    0.7596 C.3     1  UNL1       -0.0385
      3 C          -4.0804   -2.0702   -0.3303 C.3     1  UNL1        0.0070
      4 C          -3.5790   -1.2318   -1.4548 C.2     1  UNL1        0.1399
      5 O          -4.4180   -0.7944   -2.2298 O.2     1  UNL1       -0.2968
      6 C          -2.1205   -1.2349   -1.2008 C.3     1  UNL1        0.0367
      7 C          -1.5724   -2.6129   -1.4390 C.3     1  UNL1       -0.0521
      8 C          -1.3258   -0.2051   -1.8818 C.3     1  UNL1        0.0010
      9 C          -0.6113    0.6991   -0.9406 C.3     1  UNL1        0.1266
     10 O          -1.5077    1.6721   -0.3496 O.3     1  UNL1       -0.4570
     11 C          -1.4026    3.0129   -0.6525 C.2     1  UNL1        0.3045
     12 C          -2.3116    4.0348   -0.0589 C.3     1  UNL1        0.0333
     13 O          -0.5437    3.4686   -1.4416 O.2     1  UNL1       -0.2511
     14 C           0.1170    0.0253    0.1645 C.2     1  UNL1       -0.0084
     15 C          -0.8025   -0.7724    0.7451 C.2     1  UNL1        0.0107
     16 C          -0.6809   -1.4798    2.0495 C.2     1  UNL1        0.2247
     17 O          -1.4266   -2.2378    2.6983 O.2     1  UNL1       -0.2837
     18 C           0.5639   -1.2908    2.7936 C.ar    1  UNL1        0.1793
     19 C           1.4645   -0.4836    2.1413 C.ar    1  UNL1        0.0292
     20 C           2.6014   -0.2834    2.8801 C.ar    1  UNL1        0.1014
     21 C           2.3345   -1.0518    4.0270 C.ar    1  UNL1        0.1070
     22 O           1.1279   -1.6266    3.9342 O.2     1  UNL1       -0.4585
     23 C           3.6478    0.6580    2.5253 C.2     1  UNL1        0.3429
     24 O           4.6512    0.7157    3.3183 O.2     1  UNL1       -0.2448
     25 O           3.3348    1.3238    1.3621 O.3     1  UNL1       -0.4543
     26 C           2.6137    0.6543    0.3461 C.3     1  UNL1        0.1397
     27 C           2.5652    1.5013   -0.9177 C.3     1  UNL1        0.0854
     28 O           3.9143    1.7722   -1.3134 O.3     1  UNL1       -0.3793
     29 C           3.8846    2.5440   -2.4659 C.3     1  UNL1        0.0366
     30 C           1.4467   -0.1129    0.7073 C.3     1  UNL1        0.0615
     31 C           1.8512   -1.5987    0.1127 C.3     1  UNL1       -0.0480
     32 H          -2.8020    0.0051    0.3863 H       1  UNL1        0.0359
     33 H          -3.4408   -1.8026    1.7371 H       1  UNL1        0.0275
     34 H          -2.4873   -3.0071    0.8276 H       1  UNL1        0.0275
     35 H          -4.9879   -1.6713    0.1277 H       1  UNL1        0.0342
     36 H          -4.2839   -3.1089   -0.6636 H       1  UNL1        0.0342
     37 H          -1.0214   -2.7190   -2.3910 H       1  UNL1        0.0239
     38 H          -2.4244   -3.3205   -1.4694 H       1  UNL1        0.0239
     39 H          -0.9218   -2.9701   -0.6185 H       1  UNL1        0.0239
     40 H          -2.0445    0.4213   -2.4896 H       1  UNL1        0.0314
     41 H          -0.6259   -0.6561   -2.6369 H       1  UNL1        0.0314
     42 H           0.0246    1.3403   -1.5741 H       1  UNL1        0.0783
     43 H          -3.1742    3.4828    0.3937 H       1  UNL1        0.0342
     44 H          -1.7479    4.4463    0.8205 H       1  UNL1        0.0342
     45 H          -2.6442    4.8034   -0.7567 H       1  UNL1        0.0342
     46 H           2.9996   -1.1766    4.8823 H       1  UNL1        0.1038
     47 H           3.4291   -0.1197    0.0265 H       1  UNL1        0.0769
     48 H           1.9650    2.4084   -0.8423 H       1  UNL1        0.0597
     49 H           2.1992    0.9079   -1.7774 H       1  UNL1        0.0597
     50 H           4.9278    2.7465   -2.7607 H       1  UNL1        0.0524
     51 H           3.3181    2.0051   -3.2350 H       1  UNL1        0.0524
     52 H           3.4388    3.5483   -2.2385 H       1  UNL1        0.0524
     53 H           2.8197   -1.8375    0.5453 H       1  UNL1        0.0242
     54 H           1.0873   -2.2814    0.4906 H       1  UNL1        0.0242
     55 H           1.8247   -1.5057   -0.9541 H       1  UNL1        0.0242
@<TRIPOS>BOND
     1     1     2    1
     2     2     3    1
     3     3     4    1
     4     4     5    2
     5     4     6    1
     6     6     7    1
     7     6     8    1
     8     8     9    1
     9     9    10    1
    10    10    11    1
    11    11    12    1
    12    11    13    2
    13     9    14    1
    14    14    15    2
    15    15    16    1
    16    16    17    2
    17    16    18    1
    18    18    19   ar
    19    19    20   ar
    20    20    21   ar
    21    21    22   ar
    22    20    23    1
    23    23    24    2
    24    23    25    1
    25    25    26    1
    26    26    27    1
    27    27    28    1
    28    28    29    1
    29    26    30    1
    30    30    31    1
    31     6     1    1
    32    30    14    1
    33    15     1    1
    34    22    18   ar
    35    30    19    1
    36     1    32    1
    37     2    33    1
    38     2    34    1
    39     3    35    1
    40     3    36    1
    41     7    37    1
    42     7    38    1
    43     7    39    1
    44     8    40    1
    45     8    41    1
    46     9    42    1
    47    12    43    1
    48    12    44    1
    49    12    45    1
    50    21    46    1
    51    26    47    1
    52    27    48    1
    53    27    49    1
    54    29    50    1
    55    29    51    1
    56    29    52    1
    57    31    53    1
    58    31    54    1
    59    31    55    1
