@<TRIPOS>MOLECULE
*****
 23 23 0 0 0
SMALL
GASTEIGER

@<TRIPOS>ATOM
      1 C          -2.9249    1.0742    0.4303 C.3     1  UNL1       -0.0496
      2 C          -1.5623    0.7803   -0.2026 C.3     1  UNL1        0.0060
      3 N          -1.7893   -0.1357   -1.2880 N.3     1  UNL1       -0.3272
      4 C          -0.7027    0.0901    0.8238 C.3     1  UNL1       -0.0127
      5 C           0.6413   -0.2620    0.3746 C.ar    1  UNL1       -0.0459
      6 C           1.0284   -1.4281   -0.2196 C.ar    1  UNL1       -0.0585
      7 C           2.3031   -1.7407   -0.6364 C.ar    1  UNL1       -0.0615
      8 C           3.2706   -0.7693   -0.4251 C.ar    1  UNL1       -0.0617
      9 C           2.9848    0.4562    0.1727 C.ar    1  UNL1       -0.0615
     10 C           1.6736    0.6589    0.5496 C.ar    1  UNL1       -0.0585
     11 H          -3.6112    1.4902   -0.3462 H       1  UNL1        0.0245
     12 H          -3.3894    0.1617    0.8529 H       1  UNL1        0.0245
     13 H          -2.8476    1.8355    1.2162 H       1  UNL1        0.0245
     14 H          -1.1757    1.7503   -0.5088 H       1  UNL1        0.0459
     15 H          -1.7991   -1.1166   -0.9979 H       1  UNL1        0.1185
     16 H          -2.6013    0.1328   -1.8864 H       1  UNL1        0.1185
     17 H          -1.2029   -0.8099    1.2339 H       1  UNL1        0.0328
     18 H          -0.5964    0.7902    1.7035 H       1  UNL1        0.0328
     19 H           0.2589   -2.1838   -0.3801 H       1  UNL1        0.0620
     20 H           2.5515   -2.6819   -1.1019 H       1  UNL1        0.0618
     21 H           4.2955   -0.9263   -0.7190 H       1  UNL1        0.0618
     22 H           3.7333    1.2186    0.3409 H       1  UNL1        0.0618
     23 H           1.4620    1.6154    1.0137 H       1  UNL1        0.0620
@<TRIPOS>BOND
     1     1     2    1
     2     2     3    1
     3     2     4    1
     4     4     5    1
     5     5     6   ar
     6     6     7   ar
     7     7     8   ar
     8     8     9   ar
     9     9    10   ar
    10    10     5   ar
    11     1    11    1
    12     1    12    1
    13     1    13    1
    14     2    14    1
    15     3    15    1
    16     3    16    1
    17     4    17    1
    18     4    18    1
    19     6    19    1
    20     7    20    1
    21     8    21    1
    22     9    22    1
    23    10    23    1
