
     RDKit          3D

 23 23  0  0  0  0  0  0  0  0999 V2000
   -2.9249    1.0742    0.4303 C   0  0  0  0  0  0  0  0  0  0  0  0
   -1.5623    0.7803   -0.2026 C   0  0  2  0  0  0  0  0  0  0  0  0
   -1.7893   -0.1357   -1.2880 N   0  0  0  0  0  0  0  0  0  0  0  0
   -0.7027    0.0901    0.8238 C   0  0  0  0  0  0  0  0  0  0  0  0
    0.6413   -0.2620    0.3746 C   0  0  0  0  0  0  0  0  0  0  0  0
    1.0284   -1.4281   -0.2196 C   0  0  0  0  0  0  0  0  0  0  0  0
    2.3031   -1.7407   -0.6364 C   0  0  0  0  0  0  0  0  0  0  0  0
    3.2706   -0.7693   -0.4251 C   0  0  0  0  0  0  0  0  0  0  0  0
    2.9848    0.4562    0.1727 C   0  0  0  0  0  0  0  0  0  0  0  0
    1.6736    0.6589    0.5496 C   0  0  0  0  0  0  0  0  0  0  0  0
   -3.6112    1.4902   -0.3462 H   0  0  0  0  0  0  0  0  0  0  0  0
   -3.3894    0.1617    0.8529 H   0  0  0  0  0  0  0  0  0  0  0  0
   -2.8476    1.8355    1.2162 H   0  0  0  0  0  0  0  0  0  0  0  0
   -1.1757    1.7503   -0.5088 H   0  0  0  0  0  0  0  0  0  0  0  0
   -1.7991   -1.1166   -0.9979 H   0  0  0  0  0  0  0  0  0  0  0  0
   -2.6013    0.1328   -1.8864 H   0  0  0  0  0  0  0  0  0  0  0  0
   -1.2029   -0.8099    1.2339 H   0  0  0  0  0  0  0  0  0  0  0  0
   -0.5964    0.7902    1.7035 H   0  0  0  0  0  0  0  0  0  0  0  0
    0.2589   -2.1838   -0.3801 H   0  0  0  0  0  0  0  0  0  0  0  0
    2.5515   -2.6819   -1.1019 H   0  0  0  0  0  0  0  0  0  0  0  0
    4.2955   -0.9263   -0.7190 H   0  0  0  0  0  0  0  0  0  0  0  0
    3.7333    1.2186    0.3409 H   0  0  0  0  0  0  0  0  0  0  0  0
    1.4620    1.6154    1.0137 H   0  0  0  0  0  0  0  0  0  0  0  0
  1  2  1  0
  2  3  1  0
  2  4  1  0
  4  5  1  0
  5  6  2  0
  6  7  1  0
  7  8  2  0
  8  9  1  0
  9 10  2  0
 10  5  1  0
  1 11  1  0
  1 12  1  0
  1 13  1  0
  2 14  1  6
  3 15  1  0
  3 16  1  0
  4 17  1  0
  4 18  1  0
  6 19  1  0
  7 20  1  0
  8 21  1  0
  9 22  1  0
 10 23  1  0
M  END
$$$$
