@<TRIPOS>MOLECULE
*****
 57 61 0 0 0
SMALL
GASTEIGER

@<TRIPOS>ATOM
      1 C          -1.0730    0.1702   -1.3374 C.3     1  UNL1       -0.0351
      2 C          -1.1645   -1.2789   -0.8410 C.3     1  UNL1        0.0935
      3 C           0.2226   -1.6909   -0.5149 C.ar    1  UNL1        0.0158
      4 C           1.3168   -0.8431   -0.5937 C.ar    1  UNL1       -0.0463
      5 C           2.5865   -1.2742   -0.2588 C.ar    1  UNL1       -0.0217
      6 C           3.7401   -0.3474   -0.3609 C.2     1  UNL1       -0.0172
      7 C           4.6027   -0.3154    0.6477 C.2     1  UNL1        0.1492
      8 F           4.3601   -1.1459    1.7141 F       1  UNL1       -0.2032
      9 C           5.7720    0.5255    0.6941 C.ar    1  UNL1        0.0990
     10 C           6.0792    1.3554   -0.3477 C.ar    1  UNL1       -0.0322
     11 C           7.2130    2.1527   -0.2584 C.ar    1  UNL1       -0.0408
     12 C           8.0121    2.1056    0.8620 C.ar    1  UNL1        0.0699
     13 C           9.2050    2.9175    0.9957 C.1     1  UNL1        0.1007
     14 N          10.1504    3.5466    1.1169 N.1     1  UNL1       -0.1908
     15 C           7.6358    1.2490    1.8606 C.ar    1  UNL1        0.0457
     16 N           6.5466    0.4789    1.7820 N.ar    1  UNL1       -0.2514
     17 C           2.8131   -2.5633    0.1649 C.ar    1  UNL1       -0.0518
     18 C           1.7388   -3.4151    0.2482 C.ar    1  UNL1       -0.0255
     19 C           0.4874   -2.9714   -0.0870 C.ar    1  UNL1        0.1289
     20 F          -0.5400   -3.8446    0.0073 F       1  UNL1       -0.2051
     21 N          -1.6561   -2.1296   -1.9004 N.2     1  UNL1       -0.2521
     22 C          -2.8771   -2.1601   -2.2926 C.2     1  UNL1        0.1485
     23 N          -3.2610   -3.0206   -3.3313 N.pl3   1  UNL1       -0.3380
     24 S          -4.0197   -1.0617   -1.4288 S.3     1  UNL1       -0.0746
     25 C          -3.4127   -1.0166    0.2910 C.3     1  UNL1        0.1054
     26 C          -4.1937   -0.2838    1.3137 C.2     1  UNL1        0.2326
     27 O          -4.3837   -0.8072    2.4714 O.2     1  UNL1       -0.2741
     28 N          -4.7507    0.9798    1.0784 N.am    1  UNL1       -0.2944
     29 C          -5.5482    1.7373    2.0727 C.3     1  UNL1        0.0204
     30 C          -5.1847    3.1728    1.8287 C.3     1  UNL1        0.0281
     31 C          -4.6242    3.2540    0.4400 C.3     1  UNL1        0.2657
     32 F          -5.3759    4.1428   -0.3262 F       1  UNL1       -0.2039
     33 F          -3.3340    3.7371    0.4686 F       1  UNL1       -0.2039
     34 C          -4.7307    1.8539   -0.0774 C.3     1  UNL1        0.0781
     35 C          -2.8857   -2.3973    0.7461 C.3     1  UNL1       -0.0220
     36 C          -1.9862   -1.2903    0.4057 C.3     1  UNL1        0.0134
     37 H          -2.0474    0.5139   -1.6902 H       1  UNL1        0.0256
     38 H          -0.3644    0.2398   -2.1956 H       1  UNL1        0.0256
     39 H          -0.7757    0.7947   -0.4740 H       1  UNL1        0.0256
     40 H           1.1871    0.1742   -0.9189 H       1  UNL1        0.0628
     41 H           3.8679    0.2777   -1.2271 H       1  UNL1        0.0653
     42 H           5.4690    1.4250   -1.2593 H       1  UNL1        0.0640
     43 H           7.4715    2.8142   -1.0719 H       1  UNL1        0.0631
     44 H           8.2603    1.2022    2.7551 H       1  UNL1        0.0843
     45 H           3.8230   -2.9040    0.4221 H       1  UNL1        0.0624
     46 H           1.9028   -4.4201    0.5773 H       1  UNL1        0.0646
     47 H          -3.9937   -3.7458   -3.2027 H       1  UNL1        0.1442
     48 H          -2.8063   -2.9399   -4.2604 H       1  UNL1        0.1442
     49 H          -6.6137    1.5373    1.9490 H       1  UNL1        0.0466
     50 H          -5.1855    1.4700    3.0996 H       1  UNL1        0.0466
     51 H          -4.3917    3.5085    2.5581 H       1  UNL1        0.0338
     52 H          -6.0730    3.8130    1.8952 H       1  UNL1        0.0338
     53 H          -5.6802    1.7573   -0.6702 H       1  UNL1        0.0523
     54 H          -3.9005    1.6363   -0.7629 H       1  UNL1        0.0523
     55 H          -3.0653   -2.6065    1.8255 H       1  UNL1        0.0287
     56 H          -3.1271   -3.2554    0.1168 H       1  UNL1        0.0287
     57 H          -1.4376   -0.8142    1.2722 H       1  UNL1        0.0346
@<TRIPOS>BOND
     1     2     1    1
     2     2     3    1
     3     3     4   ar
     4     4     5   ar
     5     5     6    1
     6     6     7    2
     7     7     8    1
     8     7     9    1
     9     9    10   ar
    10    10    11   ar
    11    11    12   ar
    12    12    13    1
    13    13    14    3
    14    12    15   ar
    15    15    16   ar
    16     5    17   ar
    17    17    18   ar
    18    18    19   ar
    19    19    20    1
    20     2    21    1
    21    21    22    2
    22    22    23    1
    23    22    24    1
    24    24    25    1
    25    25    26    1
    26    26    27    2
    27    26    28   am
    28    28    29    1
    29    29    30    1
    30    30    31    1
    31    31    32    1
    32    31    33    1
    33    31    34    1
    34    25    35    1
    35    35    36    1
    36    36     2    1
    37    19     3   ar
    38    36    25    1
    39    16     9   ar
    40    34    28    1
    41     1    37    1
    42     1    38    1
    43     1    39    1
    44     4    40    1
    45     6    41    1
    46    10    42    1
    47    11    43    1
    48    15    44    1
    49    17    45    1
    50    18    46    1
    51    23    47    1
    52    23    48    1
    53    29    49    1
    54    29    50    1
    55    30    51    1
    56    30    52    1
    57    34    53    1
    58    34    54    1
    59    35    55    1
    60    35    56    1
    61    36    57    1
