@<TRIPOS>MOLECULE
*****
 44 47 0 0 0
SMALL
GASTEIGER

@<TRIPOS>ATOM
      1 C          -1.0916   -1.6683   -1.5534 C.3     1  UNL1        0.0037
      2 N          -1.4890   -0.7019   -0.5349 N.pl3   1  UNL1       -0.2996
      3 C          -2.8650   -0.5520   -0.1746 C.3     1  UNL1        0.0259
      4 C          -3.7277   -0.1331   -1.3708 C.3     1  UNL1       -0.0343
      5 C          -4.9609    0.5299   -0.7809 C.3     1  UNL1       -0.0514
      6 C          -5.3094   -0.0572    0.5679 C.3     1  UNL1       -0.0529
      7 C          -4.9360   -1.5111    0.6724 C.3     1  UNL1       -0.0514
      8 C          -3.4921   -1.8003    0.3830 C.3     1  UNL1       -0.0343
      9 C          -0.4613    0.0943    0.0956 C.ar    1  UNL1        0.2183
     10 N           0.7977   -0.0911   -0.2818 N.ar    1  UNL1       -0.2128
     11 C           1.8317    0.5721    0.2159 C.ar    1  UNL1        0.0942
     12 C           1.4523    1.4733    1.1670 C.ar    1  UNL1       -0.0159
     13 C           0.1711    1.7096    1.5983 C.ar    1  UNL1        0.0333
     14 N          -0.8127    0.9851    1.0320 N.ar    1  UNL1       -0.2227
     15 C           3.1442    0.2606   -0.2946 C.ar    1  UNL1        0.0916
     16 C           3.2816   -0.7204   -1.2873 C.ar    1  UNL1        0.0558
     17 N           4.5738   -0.8538   -1.6183 N.ar    1  UNL1       -0.2354
     18 C           5.2960   -0.0014   -0.8852 C.ar    1  UNL1        0.1380
     19 C           6.6379    0.2600   -0.8328 C.ar    1  UNL1       -0.0188
     20 C           7.1486    1.2074    0.0270 C.ar    1  UNL1       -0.0569
     21 C           6.2133    1.8463    0.8038 C.ar    1  UNL1       -0.0450
     22 C           4.8803    1.5322    0.6978 C.ar    1  UNL1        0.0118
     23 N           4.4008    0.6219   -0.1300 N.ar    1  UNL1       -0.2979
     24 H          -1.8730   -1.8511   -2.2992 H       1  UNL1        0.0429
     25 H          -0.1854   -1.2430   -2.0651 H       1  UNL1        0.0429
     26 H          -0.7106   -2.6186   -1.1003 H       1  UNL1        0.0429
     27 H          -2.9505    0.2816    0.5445 H       1  UNL1        0.0500
     28 H          -3.1154    0.5433   -1.9740 H       1  UNL1        0.0283
     29 H          -3.9748   -1.0544   -1.9358 H       1  UNL1        0.0283
     30 H          -5.8092    0.5228   -1.4972 H       1  UNL1        0.0266
     31 H          -4.6933    1.6023   -0.6147 H       1  UNL1        0.0266
     32 H          -4.9315    0.5620    1.4094 H       1  UNL1        0.0265
     33 H          -6.4219   -0.0195    0.6492 H       1  UNL1        0.0265
     34 H          -5.1250   -1.8057    1.7372 H       1  UNL1        0.0266
     35 H          -5.6331   -2.0933    0.0391 H       1  UNL1        0.0266
     36 H          -3.4361   -2.6036   -0.3807 H       1  UNL1        0.0283
     37 H          -2.9509   -2.1961    1.2631 H       1  UNL1        0.0283
     38 H           2.1718    2.0725    1.6498 H       1  UNL1        0.0655
     39 H          -0.0562    2.4405    2.3572 H       1  UNL1        0.0831
     40 H           2.5965   -1.3827   -1.8380 H       1  UNL1        0.0852
     41 H           7.3320   -0.2888   -1.4831 H       1  UNL1        0.0654
     42 H           8.2054    1.4219    0.0768 H       1  UNL1        0.0619
     43 H           6.6080    2.6068    1.4963 H       1  UNL1        0.0632
     44 H           4.2696    2.1012    1.3553 H       1  UNL1        0.0813
@<TRIPOS>BOND
     1     1     2    1
     2     2     3    1
     3     3     4    1
     4     4     5    1
     5     5     6    1
     6     6     7    1
     7     7     8    1
     8     2     9    1
     9     9    10   ar
    10    10    11   ar
    11    11    12   ar
    12    12    13   ar
    13    13    14   ar
    14    11    15    1
    15    15    16   ar
    16    16    17   ar
    17    17    18   ar
    18    18    19   ar
    19    19    20   ar
    20    20    21   ar
    21    21    22   ar
    22    22    23   ar
    23     8     3    1
    24    14     9   ar
    25    23    15   ar
    26    23    18   ar
    27     1    24    1
    28     1    25    1
    29     1    26    1
    30     3    27    1
    31     4    28    1
    32     4    29    1
    33     5    30    1
    34     5    31    1
    35     6    32    1
    36     6    33    1
    37     7    34    1
    38     7    35    1
    39     8    36    1
    40     8    37    1
    41    12    38    1
    42    13    39    1
    43    16    40    1
    44    19    41    1
    45    20    42    1
    46    21    43    1
    47    22    44    1
