@<TRIPOS>MOLECULE
*****
 47 50 0 0 0
SMALL
GASTEIGER

@<TRIPOS>ATOM
      1 C4*        -3.1503   -1.6075   -0.7872 C.3     1  UNL1        0.1126
      2 C5*        -4.6350   -1.3898   -0.9809 C.3     1  UNL1        0.0730
      3 O5*        -5.3308   -2.4845   -0.4372 O.3     1  UNL1       -0.3924
      4 O4*        -2.3747   -0.5793   -1.2921 O.3     1  UNL1       -0.3456
      5 C1*        -1.1871   -0.5530   -0.6067 C.3     1  UNL1        0.1682
      6 N          -0.8255    0.7753   -0.1592 N.ar    1  UNL1       -0.2671
      7 C           0.4398    1.1632    0.1352 C.ar    1  UNL1        0.2002
      8 N           1.6428    0.3951    0.0757 N.pl3   1  UNL1       -0.3106
      9 C           2.9753    0.8962    0.4135 C.3     1  UNL1        0.0370
     10 C           4.0094   -0.1761    0.2395 C.ar    1  UNL1       -0.0289
     11 C           4.5912   -0.2522   -1.0153 C.ar    1  UNL1       -0.0556
     12 C           5.5534   -1.2024   -1.2813 C.ar    1  UNL1       -0.0417
     13 C           5.9312   -2.0700   -0.3006 C.ar    1  UNL1        0.0593
     14 CL          7.1502   -3.3193   -0.5380 Cl      1  UNL1       -0.0820
     15 C           5.3451   -1.9865    0.9484 C.ar    1  UNL1        0.0596
     16 CL          5.8087   -3.0944    2.2467 Cl      1  UNL1       -0.0820
     17 C           4.3666   -1.0373    1.2566 C.ar    1  UNL1       -0.0373
     18 N           0.4566    2.4545    0.5229 N.ar    1  UNL1       -0.2093
     19 C          -0.8025    2.9258    0.4858 C.ar    1  UNL1        0.1492
     20 C          -1.4473    4.1340    0.7554 C.ar    1  UNL1        0.1472
     21 N          -0.5857    5.1936    1.1932 N.pl3   1  UNL1       -0.3413
     22 N          -2.7805    4.2364    0.5977 N.ar    1  UNL1       -0.2188
     23 C          -3.5147    3.1935    0.1829 C.ar    1  UNL1        0.1205
     24 N          -2.9062    2.0086   -0.0849 N.ar    1  UNL1       -0.2159
     25 C          -1.5707    1.8739    0.0634 C.ar    1  UNL1        0.1688
     26 C2*        -1.2808   -1.5317    0.5401 C.3     1  UNL1        0.1286
     27 O2*        -0.9099   -2.8062    0.0905 O.3     1  UNL1       -0.3847
     28 C3*        -2.8061   -1.6090    0.6883 C.3     1  UNL1        0.1135
     29 O3*        -3.1999   -2.7728    1.3350 O.3     1  UNL1       -0.3864
     30 H4*        -2.8197   -2.5729   -1.2198 H       1  UNL1        0.0647
     31 H5*1       -4.9631   -0.5187   -0.3794 H       1  UNL1        0.0584
     32 H5*2       -4.9096   -1.2948   -2.0399 H       1  UNL1        0.0584
     33 H5*        -4.8750   -3.3420   -0.6302 H       1  UNL1        0.2095
     34 H1*        -0.4119   -0.9699   -1.3141 H       1  UNL1        0.0867
     35 H           1.5634   -0.6067   -0.2345 H       1  UNL1        0.1492
     36 H           3.2200    1.8086   -0.1686 H       1  UNL1        0.0512
     37 H           3.0406    1.2035    1.4815 H       1  UNL1        0.0512
     38 H           4.3035    0.4365   -1.8237 H       1  UNL1        0.0621
     39 H           6.0342   -1.2889   -2.2666 H       1  UNL1        0.0633
     40 H           3.8953   -0.9520    2.2213 H       1  UNL1        0.0636
     41 H          -0.0436    5.0814    2.0864 H       1  UNL1        0.1438
     42 H          -0.5753    6.0228    0.5509 H       1  UNL1        0.1438
     43 H          -4.5853    3.3694    0.0843 H       1  UNL1        0.1048
     44 H2*        -0.7942   -1.2185    1.4575 H       1  UNL1        0.0665
     45 H2*        -0.3452   -2.7064   -0.7156 H       1  UNL1        0.2101
     46 H3*        -3.2080   -0.7017    1.1896 H       1  UNL1        0.0647
     47 H3*        -3.4889   -2.5280    2.2560 H       1  UNL1        0.2100
@<TRIPOS>BOND
     1     1     2    1
     2     2     3    1
     3     1     4    1
     4     4     5    1
     5     5     6    1
     6     6     7   ar
     7     7     8    1
     8     8     9    1
     9     9    10    1
    10    10    11   ar
    11    11    12   ar
    12    12    13   ar
    13    13    14    1
    14    13    15   ar
    15    15    16    1
    16    15    17   ar
    17     7    18   ar
    18    18    19   ar
    19    19    20   ar
    20    20    21    1
    21    20    22   ar
    22    22    23   ar
    23    23    24   ar
    24    24    25   ar
    25     5    26    1
    26    26    27    1
    27    26    28    1
    28    28    29    1
    29    28     1    1
    30    25     6   ar
    31    17    10   ar
    32    25    19   ar
    33     1    30    1
    34     2    31    1
    35     2    32    1
    36     3    33    1
    37     5    34    1
    38     8    35    1
    39     9    36    1
    40     9    37    1
    41    11    38    1
    42    12    39    1
    43    17    40    1
    44    21    41    1
    45    21    42    1
    46    23    43    1
    47    26    44    1
    48    27    45    1
    49    28    46    1
    50    29    47    1
