@<TRIPOS>MOLECULE
*****
 22 21 0 0 0
SMALL
GASTEIGER

@<TRIPOS>ATOM
      1 N          -1.7927   -1.1785    1.5465 N.pl3   1  UNL1       -0.2871
      2 C          -2.0075   -0.4510    0.3318 C.2     1  UNL1        0.4065
      3 N          -3.3356   -0.6078   -0.2060 N.3     1  UNL1       -0.1421
      4 O          -3.8485    0.1991   -1.1703 O.3     1  UNL1       -0.2333
      5 N          -1.2238    0.3221   -0.3703 N.pl3   1  UNL1       -0.1113
      6 C           0.1281    0.4741    0.1886 C.3     1  UNL1        0.1096
      7 C           1.0399    0.6812   -0.9975 C.3     1  UNL1        0.0216
      8 C           2.4892    0.8529   -0.5242 C.3     1  UNL1       -0.0324
      9 N           2.8333   -0.3638    0.1810 N.4     1  UNL1        0.2186
     10 H          -2.3029   -0.7761    2.3740 H       1  UNL1        0.2547
     11 H          -1.2099   -2.0149    1.6565 H       1  UNL1        0.2547
     12 H          -4.0571   -1.3292    0.0568 H       1  UNL1        0.2985
     13 H          -3.3860    1.0552   -1.2424 H       1  UNL1        0.2622
     14 H           0.4352   -0.4049    0.7536 H       1  UNL1        0.0695
     15 H           0.2015    1.3958    0.8201 H       1  UNL1        0.0695
     16 H           0.8059    1.5756   -1.5728 H       1  UNL1        0.0349
     17 H           0.9730   -0.1731   -1.7099 H       1  UNL1        0.0349
     18 H           2.4706    1.7333    0.1662 H       1  UNL1        0.0814
     19 H           3.1667    0.9828   -1.3698 H       1  UNL1        0.0814
     20 H           2.4311   -0.3043    1.1575 H       1  UNL1        0.1994
     21 H           2.3258   -1.1460   -0.2889 H       1  UNL1        0.1994
     22 H           3.8638   -0.5224    0.2195 H       1  UNL1        0.1994
@<TRIPOS>UNITY_ATOM_ATTR
9 1
charge 1
@<TRIPOS>BOND
     1     1     2    1
     2     2     3    1
     3     3     4    1
     4     2     5    2
     5     5     6    1
     6     6     7    1
     7     7     8    1
     8     8     9    1
     9     1    10    1
    10     1    11    1
    11     3    12    1
    12     4    13    1
    13     6    14    1
    14     6    15    1
    15     7    16    1
    16     7    17    1
    17     8    18    1
    18     8    19    1
    19     9    20    1
    20     9    21    1
    21     9    22    1
