
     RDKit          3D

 22 21  0  0  0  0  0  0  0  0999 V2000
   -1.7927   -1.1785    1.5465 N   0  0  0  0  0  0  0  0  0  0  0  0
   -2.0075   -0.4510    0.3318 C   0  0  0  0  0  0  0  0  0  0  0  0
   -3.3356   -0.6078   -0.2060 N   0  0  0  0  0  0  0  0  0  0  0  0
   -3.8485    0.1991   -1.1703 O   0  0  0  0  0  0  0  0  0  0  0  0
   -1.2238    0.3221   -0.3703 N   0  0  0  0  0  0  0  0  0  0  0  0
    0.1281    0.4741    0.1886 C   0  0  0  0  0  0  0  0  0  0  0  0
    1.0399    0.6812   -0.9975 C   0  0  0  0  0  0  0  0  0  0  0  0
    2.4892    0.8529   -0.5242 C   0  0  0  0  0  0  0  0  0  0  0  0
    2.8333   -0.3638    0.1810 N   0  0  0  0  0  4  0  0  0  0  0  0
   -2.3029   -0.7761    2.3740 H   0  0  0  0  0  0  0  0  0  0  0  0
   -1.2099   -2.0149    1.6565 H   0  0  0  0  0  0  0  0  0  0  0  0
   -4.0571   -1.3292    0.0568 H   0  0  0  0  0  0  0  0  0  0  0  0
   -3.3860    1.0552   -1.2424 H   0  0  0  0  0  0  0  0  0  0  0  0
    0.4352   -0.4049    0.7536 H   0  0  0  0  0  0  0  0  0  0  0  0
    0.2015    1.3958    0.8201 H   0  0  0  0  0  0  0  0  0  0  0  0
    0.8059    1.5756   -1.5728 H   0  0  0  0  0  0  0  0  0  0  0  0
    0.9730   -0.1731   -1.7099 H   0  0  0  0  0  0  0  0  0  0  0  0
    2.4706    1.7333    0.1662 H   0  0  0  0  0  0  0  0  0  0  0  0
    3.1667    0.9828   -1.3698 H   0  0  0  0  0  0  0  0  0  0  0  0
    2.4311   -0.3043    1.1575 H   0  0  0  0  0  0  0  0  0  0  0  0
    2.3258   -1.1460   -0.2889 H   0  0  0  0  0  0  0  0  0  0  0  0
    3.8638   -0.5224    0.2195 H   0  0  0  0  0  0  0  0  0  0  0  0
  1  2  1  0
  2  3  1  0
  3  4  1  0
  2  5  2  0
  5  6  1  0
  6  7  1  0
  7  8  1  0
  8  9  1  0
  1 10  1  0
  1 11  1  0
  3 12  1  0
  4 13  1  0
  6 14  1  0
  6 15  1  0
  7 16  1  0
  7 17  1  0
  8 18  1  0
  8 19  1  0
  9 20  1  0
  9 21  1  0
  9 22  1  0
M  CHG  1   9   1
M  END
$$$$
