
     RDKit          3D

 78 81  0  0  0  0  0  0  0  0999 V2000
    6.1950   -0.9633   -3.1800 C   0  0  0  0  0  0  0  0  0  0  0  0
    5.7452   -2.3676   -2.8576 C   0  0  0  0  0  0  0  0  0  0  0  0
    4.3058   -2.4160   -2.9377 N   0  0  0  0  0  0  0  0  0  0  0  0
    3.5380   -1.6357   -2.0400 C   0  0  0  0  0  0  0  0  0  0  0  0
    2.1570   -1.7079   -2.1805 C   0  0  0  0  0  0  0  0  0  0  0  0
    1.2940   -0.9871   -1.3492 C   0  0  0  0  0  0  0  0  0  0  0  0
   -0.1298   -1.1376   -1.5722 C   0  0  0  0  0  0  0  0  0  0  0  0
   -0.5378   -1.9722   -2.4556 O   0  0  0  0  0  0  0  0  0  0  0  0
   -1.0585   -0.3736   -0.8254 N   0  0  0  0  0  0  0  0  0  0  0  0
   -2.4831   -0.4920   -1.0109 C   0  0  1  0  0  0  0  0  0  0  0  0
   -3.1077   -1.0380    0.2401 C   0  0  0  0  0  0  0  0  0  0  0  0
   -2.5703   -2.3812    0.5871 C   0  0  0  0  0  0  0  0  0  0  0  0
   -3.1965   -3.4922    0.0821 C   0  0  0  0  0  0  0  0  0  0  0  0
   -2.7581   -4.7696    0.3558 C   0  0  0  0  0  0  0  0  0  0  0  0
   -1.6475   -4.9649    1.1673 C   0  0  0  0  0  0  0  0  0  0  0  0
   -1.0108   -3.8469    1.6802 C   0  0  0  0  0  0  0  0  0  0  0  0
   -1.4706   -2.5740    1.3906 C   0  0  0  0  0  0  0  0  0  0  0  0
   -3.1409    0.7217   -1.5598 C   0  0  2  0  0  0  0  0  0  0  0  0
   -2.6035    1.0270   -2.8480 O   0  0  0  0  0  0  0  0  0  0  0  0
   -2.9722    1.9837   -0.7743 C   0  0  0  0  0  0  0  0  0  0  0  0
   -3.4883    1.8734    0.5677 N   0  0  0  0  0  0  0  0  0  0  0  0
   -4.9356    1.7699    0.6072 C   0  0  0  0  0  0  0  0  0  0  0  0
   -5.4039    1.6413    2.0378 C   0  0  0  0  0  0  0  0  0  0  0  0
   -6.0950    2.9049    2.5188 C   0  0  0  0  0  0  0  0  0  0  0  0
   -7.2427    3.1666    1.7821 O   0  0  0  0  0  0  0  0  0  0  0  0
   -7.0419    2.9922    0.4179 C   0  0  0  0  0  0  0  0  0  0  0  0
   -5.5924    3.0156    0.0444 C   0  0  0  0  0  0  0  0  0  0  0  0
    1.8664   -0.2021   -0.3852 C   0  0  0  0  0  0  0  0  0  0  0  0
    3.2430   -0.0960   -0.2038 C   0  0  0  0  0  0  0  0  0  0  0  0
    3.8416    0.7104    0.7897 N   0  0  0  0  0  0  0  0  0  0  0  0
    4.2267    2.0850    0.6387 C   0  0  0  0  0  0  0  0  0  0  0  0
    5.6402    2.3802    0.9592 C   0  0  0  0  0  0  0  0  0  0  0  0
    6.3597    1.2911    1.7026 C   0  0  0  0  0  0  0  0  0  0  0  0
    5.6357    0.8267    2.9329 C   0  0  0  0  0  0  0  0  0  0  0  0
    4.1495   -0.0028    2.3447 S   0  0  0  0  0  6  0  0  0  0  0  0
    4.5384   -1.4632    2.1963 O   0  0  0  0  0  0  0  0  0  0  0  0
    3.0156    0.1824    3.2825 O   0  0  0  0  0  0  0  0  0  0  0  0
    4.0366   -0.8369   -1.0618 C   0  0  0  0  0  0  0  0  0  0  0  0
    5.3158   -0.3121   -3.2573 H   0  0  0  0  0  0  0  0  0  0  0  0
    6.9530   -0.6092   -2.4260 H   0  0  0  0  0  0  0  0  0  0  0  0
    6.6810   -0.9786   -4.1838 H   0  0  0  0  0  0  0  0  0  0  0  0
    6.1062   -2.6072   -1.8169 H   0  0  0  0  0  0  0  0  0  0  0  0
    6.2256   -3.0875   -3.5619 H   0  0  0  0  0  0  0  0  0  0  0  0
    3.8838   -3.0313   -3.6629 H   0  0  0  0  0  0  0  0  0  0  0  0
    1.7228   -2.3333   -2.9488 H   0  0  0  0  0  0  0  0  0  0  0  0
   -0.6884    0.2878   -0.1283 H   0  0  0  0  0  0  0  0  0  0  0  0
   -2.6536   -1.2974   -1.8005 H   0  0  0  0  0  0  0  0  0  0  0  0
   -3.0305   -0.3579    1.1162 H   0  0  0  0  0  0  0  0  0  0  0  0
   -4.1991   -1.1757    0.0367 H   0  0  0  0  0  0  0  0  0  0  0  0
   -4.0602   -3.3810   -0.5503 H   0  0  0  0  0  0  0  0  0  0  0  0
   -3.2389   -5.6559   -0.0332 H   0  0  0  0  0  0  0  0  0  0  0  0
   -1.3026   -5.9572    1.3824 H   0  0  0  0  0  0  0  0  0  0  0  0
   -0.1454   -4.0145    2.3122 H   0  0  0  0  0  0  0  0  0  0  0  0
   -0.9520   -1.7450    1.8053 H   0  0  0  0  0  0  0  0  0  0  0  0
   -4.2104    0.5196   -1.7300 H   0  0  0  0  0  0  0  0  0  0  0  0
   -2.8556    1.9467   -3.1014 H   0  0  0  0  0  0  0  0  0  0  0  0
   -3.5088    2.8283   -1.2516 H   0  0  0  0  0  0  0  0  0  0  0  0
   -1.9203    2.3137   -0.6880 H   0  0  0  0  0  0  0  0  0  0  0  0
   -3.2527    2.7899    1.0547 H   0  0  0  0  0  0  0  0  0  0  0  0
   -5.3226    0.9184    0.0353 H   0  0  0  0  0  0  0  0  0  0  0  0
   -6.1155    0.8041    2.1883 H   0  0  0  0  0  0  0  0  0  0  0  0
   -4.5291    1.4874    2.7119 H   0  0  0  0  0  0  0  0  0  0  0  0
   -5.4176    3.7808    2.4951 H   0  0  0  0  0  0  0  0  0  0  0  0
   -6.4097    2.7079    3.5660 H   0  0  0  0  0  0  0  0  0  0  0  0
   -7.5993    3.8047   -0.1044 H   0  0  0  0  0  0  0  0  0  0  0  0
   -7.5020    2.0088    0.1421 H   0  0  0  0  0  0  0  0  0  0  0  0
   -5.5240    3.0730   -1.0562 H   0  0  0  0  0  0  0  0  0  0  0  0
   -5.1044    3.9044    0.4811 H   0  0  0  0  0  0  0  0  0  0  0  0
    1.2213    0.3611    0.2673 H   0  0  0  0  0  0  0  0  0  0  0  0
    4.0077    2.4716   -0.3964 H   0  0  0  0  0  0  0  0  0  0  0  0
    3.5657    2.6844    1.3301 H   0  0  0  0  0  0  0  0  0  0  0  0
    6.2203    2.5688    0.0186 H   0  0  0  0  0  0  0  0  0  0  0  0
    5.7172    3.3056    1.5697 H   0  0  0  0  0  0  0  0  0  0  0  0
    7.3767    1.6266    1.9798 H   0  0  0  0  0  0  0  0  0  0  0  0
    6.4997    0.4008    1.0475 H   0  0  0  0  0  0  0  0  0  0  0  0
    6.2739    0.1339    3.4853 H   0  0  0  0  0  0  0  0  0  0  0  0
    5.3663    1.7348    3.5201 H   0  0  0  0  0  0  0  0  0  0  0  0
    5.1045   -0.7701   -0.9317 H   0  0  0  0  0  0  0  0  0  0  0  0
  1  2  1  0
  2  3  1  0
  3  4  1  0
  4  5  2  0
  5  6  1  0
  6  7  1  0
  7  8  2  0
  7  9  1  0
  9 10  1  0
 10 11  1  0
 11 12  1  0
 12 13  2  0
 13 14  1  0
 14 15  2  0
 15 16  1  0
 16 17  2  0
 10 18  1  0
 18 19  1  0
 18 20  1  0
 20 21  1  0
 21 22  1  0
 22 23  1  0
 23 24  1  0
 24 25  1  0
 25 26  1  0
 26 27  1  0
  6 28  2  0
 28 29  1  0
 29 30  1  0
 30 31  1  0
 31 32  1  0
 32 33  1  0
 33 34  1  0
 34 35  1  0
 35 36  2  0
 35 37  2  0
 29 38  2  0
 38  4  1  0
 17 12  1  0
 27 22  1  0
 35 30  1  0
  1 39  1  0
  1 40  1  0
  1 41  1  0
  2 42  1  0
  2 43  1  0
  3 44  1  0
  5 45  1  0
  9 46  1  0
 10 47  1  6
 11 48  1  0
 11 49  1  0
 13 50  1  0
 14 51  1  0
 15 52  1  0
 16 53  1  0
 17 54  1  0
 18 55  1  6
 19 56  1  0
 20 57  1  0
 20 58  1  0
 21 59  1  0
 22 60  1  0
 23 61  1  0
 23 62  1  0
 24 63  1  0
 24 64  1  0
 26 65  1  0
 26 66  1  0
 27 67  1  0
 27 68  1  0
 28 69  1  0
 31 70  1  0
 31 71  1  0
 32 72  1  0
 32 73  1  0
 33 74  1  0
 33 75  1  0
 34 76  1  0
 34 77  1  0
 38 78  1  0
M  END
$$$$
