@<TRIPOS>MOLECULE
*****
 78 81 0 0 0
SMALL
GASTEIGER

@<TRIPOS>ATOM
      1 C           6.1950   -0.9633   -3.1800 C.3     1  UNL1       -0.0496
      2 C           5.7452   -2.3676   -2.8576 C.3     1  UNL1        0.0063
      3 N           4.3058   -2.4160   -2.9377 N.pl3   1  UNL1       -0.3440
      4 C           3.5380   -1.6357   -2.0400 C.ar    1  UNL1        0.0296
      5 C           2.1570   -1.7079   -2.1805 C.ar    1  UNL1       -0.0286
      6 C           1.2940   -0.9871   -1.3492 C.ar    1  UNL1        0.0402
      7 C          -0.1298   -1.1376   -1.5722 C.2     1  UNL1        0.2445
      8 O          -0.5378   -1.9722   -2.4556 O.2     1  UNL1       -0.2702
      9 N          -1.0585   -0.3736   -0.8254 N.am    1  UNL1       -0.3057
     10 C          -2.4831   -0.4920   -1.0109 C.3     1  UNL1        0.0545
     11 C          -3.1077   -1.0380    0.2401 C.3     1  UNL1       -0.0067
     12 C          -2.5703   -2.3812    0.5871 C.ar    1  UNL1       -0.0455
     13 C          -3.1965   -3.4922    0.0821 C.ar    1  UNL1       -0.0585
     14 C          -2.7581   -4.7696    0.3558 C.ar    1  UNL1       -0.0615
     15 C          -1.6475   -4.9649    1.1673 C.ar    1  UNL1       -0.0617
     16 C          -1.0108   -3.8469    1.6802 C.ar    1  UNL1       -0.0615
     17 C          -1.4706   -2.5740    1.3906 C.ar    1  UNL1       -0.0585
     18 C          -3.1409    0.7217   -1.5598 C.3     1  UNL1        0.0862
     19 O          -2.6035    1.0270   -2.8480 O.3     1  UNL1       -0.3887
     20 C          -2.9722    1.9837   -0.7743 C.3     1  UNL1        0.0240
     21 N          -3.4883    1.8734    0.5677 N.3     1  UNL1       -0.3106
     22 C          -4.9356    1.7699    0.6072 C.3     1  UNL1        0.0119
     23 C          -5.4039    1.6413    2.0378 C.3     1  UNL1       -0.0139
     24 C          -6.0950    2.9049    2.5188 C.3     1  UNL1        0.0491
     25 O          -7.2427    3.1666    1.7821 O.3     1  UNL1       -0.3797
     26 C          -7.0419    2.9922    0.4179 C.3     1  UNL1        0.0491
     27 C          -5.5924    3.0156    0.0444 C.3     1  UNL1       -0.0139
     28 C           1.8664   -0.2021   -0.3852 C.ar    1  UNL1       -0.0269
     29 C           3.2430   -0.0960   -0.2038 C.ar    1  UNL1        0.0533
     30 N           3.8416    0.7104    0.7897 N.pl3   1  UNL1       -0.2073
     31 C           4.2267    2.0850    0.6387 C.3     1  UNL1        0.0346
     32 C           5.6402    2.3802    0.9592 C.3     1  UNL1       -0.0340
     33 C           6.3597    1.2911    1.7026 C.3     1  UNL1       -0.0304
     34 C           5.6357    0.8267    2.9329 C.3     1  UNL1        0.0850
     35 S           4.1495   -0.0028    2.3447 S.O2    1  UNL1        0.0455
     36 O           4.5384   -1.4632    2.1963 O.2     1  UNL1       -0.1550
     37 O           3.0156    0.1824    3.2825 O.2     1  UNL1       -0.1550
     38 C           4.0366   -0.8369   -1.0618 C.ar    1  UNL1       -0.0182
     39 H           5.3158   -0.3121   -3.2573 H       1  UNL1        0.0245
     40 H           6.9530   -0.6092   -2.4260 H       1  UNL1        0.0245
     41 H           6.6810   -0.9786   -4.1838 H       1  UNL1        0.0245
     42 H           6.1062   -2.6072   -1.8169 H       1  UNL1        0.0458
     43 H           6.2256   -3.0875   -3.5619 H       1  UNL1        0.0458
     44 H           3.8838   -3.0313   -3.6629 H       1  UNL1        0.1461
     45 H           1.7228   -2.3333   -2.9488 H       1  UNL1        0.0643
     46 H          -0.6884    0.2878   -0.1283 H       1  UNL1        0.1494
     47 H          -2.6536   -1.2974   -1.8005 H       1  UNL1        0.0527
     48 H          -3.0305   -0.3579    1.1162 H       1  UNL1        0.0332
     49 H          -4.1991   -1.1757    0.0367 H       1  UNL1        0.0332
     50 H          -4.0602   -3.3810   -0.5503 H       1  UNL1        0.0620
     51 H          -3.2389   -5.6559   -0.0332 H       1  UNL1        0.0618
     52 H          -1.3026   -5.9572    1.3824 H       1  UNL1        0.0618
     53 H          -0.1454   -4.0145    2.3122 H       1  UNL1        0.0618
     54 H          -0.9520   -1.7450    1.8053 H       1  UNL1        0.0620
     55 H          -4.2104    0.5196   -1.7300 H       1  UNL1        0.0624
     56 H          -2.8556    1.9467   -3.1014 H       1  UNL1        0.2099
     57 H          -3.5088    2.8283   -1.2516 H       1  UNL1        0.0450
     58 H          -1.9203    2.3137   -0.6880 H       1  UNL1        0.0450
     59 H          -3.2527    2.7899    1.0547 H       1  UNL1        0.1223
     60 H          -5.3226    0.9184    0.0353 H       1  UNL1        0.0462
     61 H          -6.1155    0.8041    2.1883 H       1  UNL1        0.0302
     62 H          -4.5291    1.4874    2.7119 H       1  UNL1        0.0302
     63 H          -5.4176    3.7808    2.4951 H       1  UNL1        0.0560
     64 H          -6.4097    2.7079    3.5660 H       1  UNL1        0.0560
     65 H          -7.5993    3.8047   -0.1044 H       1  UNL1        0.0560
     66 H          -7.5020    2.0088    0.1421 H       1  UNL1        0.0560
     67 H          -5.5240    3.0730   -1.0562 H       1  UNL1        0.0302
     68 H          -5.1044    3.9044    0.4811 H       1  UNL1        0.0302
     69 H           1.2213    0.3611    0.2673 H       1  UNL1        0.0644
     70 H           4.0077    2.4716   -0.3964 H       1  UNL1        0.0482
     71 H           3.5657    2.6844    1.3301 H       1  UNL1        0.0482
     72 H           6.2203    2.5688    0.0186 H       1  UNL1        0.0281
     73 H           5.7172    3.3056    1.5697 H       1  UNL1        0.0281
     74 H           7.3767    1.6266    1.9798 H       1  UNL1        0.0282
     75 H           6.4997    0.4008    1.0475 H       1  UNL1        0.0282
     76 H           6.2739    0.1339    3.4853 H       1  UNL1        0.0518
     77 H           5.3663    1.7348    3.5201 H       1  UNL1        0.0518
     78 H           5.1045   -0.7701   -0.9317 H       1  UNL1        0.0655
@<TRIPOS>BOND
     1     1     2    1
     2     2     3    1
     3     3     4    1
     4     4     5   ar
     5     5     6   ar
     6     6     7    1
     7     7     8    2
     8     7     9   am
     9     9    10    1
    10    10    11    1
    11    11    12    1
    12    12    13   ar
    13    13    14   ar
    14    14    15   ar
    15    15    16   ar
    16    16    17   ar
    17    10    18    1
    18    18    19    1
    19    18    20    1
    20    20    21    1
    21    21    22    1
    22    22    23    1
    23    23    24    1
    24    24    25    1
    25    25    26    1
    26    26    27    1
    27     6    28   ar
    28    28    29   ar
    29    29    30    1
    30    30    31    1
    31    31    32    1
    32    32    33    1
    33    33    34    1
    34    34    35    1
    35    35    36    2
    36    35    37    2
    37    29    38   ar
    38    38     4   ar
    39    17    12   ar
    40    27    22    1
    41    35    30    1
    42     1    39    1
    43     1    40    1
    44     1    41    1
    45     2    42    1
    46     2    43    1
    47     3    44    1
    48     5    45    1
    49     9    46    1
    50    10    47    1
    51    11    48    1
    52    11    49    1
    53    13    50    1
    54    14    51    1
    55    15    52    1
    56    16    53    1
    57    17    54    1
    58    18    55    1
    59    19    56    1
    60    20    57    1
    61    20    58    1
    62    21    59    1
    63    22    60    1
    64    23    61    1
    65    23    62    1
    66    24    63    1
    67    24    64    1
    68    26    65    1
    69    26    66    1
    70    27    67    1
    71    27    68    1
    72    28    69    1
    73    31    70    1
    74    31    71    1
    75    32    72    1
    76    32    73    1
    77    33    74    1
    78    33    75    1
    79    34    76    1
    80    34    77    1
    81    38    78    1
