@<TRIPOS>MOLECULE
*****
 30 32 0 0 0
SMALL
GASTEIGER

@<TRIPOS>ATOM
      1 O          -0.2148   -1.6099   -0.9175 O.2     1  UNL1       -0.2863
      2 C          -0.5061   -0.5062   -0.3851 C.ar    1  UNL1        0.2037
      3 C           0.4970    0.3295    0.0748 C.ar    1  UNL1        0.0644
      4 C           1.9101   -0.0281   -0.0364 C.ar    1  UNL1       -0.0110
      5 C           2.8344    0.9036   -0.4758 C.ar    1  UNL1       -0.0504
      6 C           4.1775    0.6134   -0.5972 C.ar    1  UNL1       -0.0196
      7 C           4.6504   -0.6424   -0.2770 C.ar    1  UNL1        0.1169
      8 O           5.9983   -0.9790   -0.3846 O.3     1  UNL1       -0.5068
      9 C           3.7318   -1.5736    0.1613 C.ar    1  UNL1       -0.0196
     10 C           2.3834   -1.2851    0.2841 C.ar    1  UNL1       -0.0504
     11 C           0.0829    1.5276    0.6481 C.ar    1  UNL1        0.1038
     12 O          -1.1613    1.8772    0.7632 O.2     1  UNL1       -0.4618
     13 C          -2.1422    1.1184    0.3423 C.ar    1  UNL1        0.1454
     14 C          -3.4737    1.5091    0.4736 C.ar    1  UNL1        0.0231
     15 C          -4.5046    0.7170    0.0340 C.ar    1  UNL1        0.1239
     16 O          -5.8374    1.0824    0.1528 O.3     1  UNL1       -0.5065
     17 C          -4.1894   -0.4843   -0.5455 C.ar    1  UNL1        0.0223
     18 C          -2.8595   -0.8864   -0.6826 C.ar    1  UNL1        0.1347
     19 O          -2.5257   -2.1012   -1.2679 O.3     1  UNL1       -0.5058
     20 C          -1.8278   -0.0906   -0.2410 C.ar    1  UNL1        0.1060
     21 H           2.4450    1.9023   -0.7283 H       1  UNL1        0.0625
     22 H           4.8954    1.3653   -0.9474 H       1  UNL1        0.0654
     23 H           6.6934   -0.6599    0.2785 H       1  UNL1        0.2921
     24 H           4.1349   -2.5670    0.4100 H       1  UNL1        0.0654
     25 H           1.6809   -2.0361    0.6315 H       1  UNL1        0.0625
     26 H           0.9027    2.1688    1.0033 H       1  UNL1        0.1037
     27 H          -3.7211    2.4494    0.9272 H       1  UNL1        0.0691
     28 H          -6.1819    2.0100   -0.0018 H       1  UNL1        0.2921
     29 H          -4.9639   -1.1405   -0.9061 H       1  UNL1        0.0691
     30 H          -2.9090   -2.9837   -0.9491 H       1  UNL1        0.2922
@<TRIPOS>BOND
     1     1     2    2
     2     2     3   ar
     3     3     4    1
     4     4     5   ar
     5     5     6   ar
     6     6     7   ar
     7     7     8    1
     8     7     9   ar
     9     9    10   ar
    10     3    11   ar
    11    11    12   ar
    12    12    13   ar
    13    13    14   ar
    14    14    15   ar
    15    15    16    1
    16    15    17   ar
    17    17    18   ar
    18    18    19    1
    19    18    20   ar
    20    20     2   ar
    21    10     4   ar
    22    20    13   ar
    23     5    21    1
    24     6    22    1
    25     8    23    1
    26     9    24    1
    27    10    25    1
    28    11    26    1
    29    14    27    1
    30    16    28    1
    31    17    29    1
    32    19    30    1
