
     RDKit          3D

 30 32  0  0  0  0  0  0  0  0999 V2000
   -0.2148   -1.6099   -0.9175 O   0  0  0  0  0  0  0  0  0  0  0  0
   -0.5061   -0.5062   -0.3851 C   0  0  0  0  0  0  0  0  0  0  0  0
    0.4970    0.3295    0.0748 C   0  0  0  0  0  0  0  0  0  0  0  0
    1.9101   -0.0281   -0.0364 C   0  0  0  0  0  0  0  0  0  0  0  0
    2.8344    0.9036   -0.4758 C   0  0  0  0  0  0  0  0  0  0  0  0
    4.1775    0.6134   -0.5972 C   0  0  0  0  0  0  0  0  0  0  0  0
    4.6504   -0.6424   -0.2770 C   0  0  0  0  0  0  0  0  0  0  0  0
    5.9983   -0.9790   -0.3846 O   0  0  0  0  0  0  0  0  0  0  0  0
    3.7318   -1.5736    0.1613 C   0  0  0  0  0  0  0  0  0  0  0  0
    2.3834   -1.2851    0.2841 C   0  0  0  0  0  0  0  0  0  0  0  0
    0.0829    1.5276    0.6481 C   0  0  0  0  0  0  0  0  0  0  0  0
   -1.1613    1.8772    0.7632 O   0  0  0  0  0  0  0  0  0  0  0  0
   -2.1422    1.1184    0.3423 C   0  0  0  0  0  0  0  0  0  0  0  0
   -3.4737    1.5091    0.4736 C   0  0  0  0  0  0  0  0  0  0  0  0
   -4.5046    0.7170    0.0340 C   0  0  0  0  0  0  0  0  0  0  0  0
   -5.8374    1.0824    0.1528 O   0  0  0  0  0  0  0  0  0  0  0  0
   -4.1894   -0.4843   -0.5455 C   0  0  0  0  0  0  0  0  0  0  0  0
   -2.8595   -0.8864   -0.6826 C   0  0  0  0  0  0  0  0  0  0  0  0
   -2.5257   -2.1012   -1.2679 O   0  0  0  0  0  0  0  0  0  0  0  0
   -1.8278   -0.0906   -0.2410 C   0  0  0  0  0  0  0  0  0  0  0  0
    2.4450    1.9023   -0.7283 H   0  0  0  0  0  0  0  0  0  0  0  0
    4.8954    1.3653   -0.9474 H   0  0  0  0  0  0  0  0  0  0  0  0
    6.6934   -0.6599    0.2785 H   0  0  0  0  0  0  0  0  0  0  0  0
    4.1349   -2.5670    0.4100 H   0  0  0  0  0  0  0  0  0  0  0  0
    1.6809   -2.0361    0.6315 H   0  0  0  0  0  0  0  0  0  0  0  0
    0.9027    2.1688    1.0033 H   0  0  0  0  0  0  0  0  0  0  0  0
   -3.7211    2.4494    0.9272 H   0  0  0  0  0  0  0  0  0  0  0  0
   -6.1819    2.0100   -0.0018 H   0  0  0  0  0  0  0  0  0  0  0  0
   -4.9639   -1.1405   -0.9061 H   0  0  0  0  0  0  0  0  0  0  0  0
   -2.9090   -2.9837   -0.9491 H   0  0  0  0  0  0  0  0  0  0  0  0
  1  2  2  0
  2  3  1  0
  3  4  1  0
  4  5  2  0
  5  6  1  0
  6  7  2  0
  7  8  1  0
  7  9  1  0
  9 10  2  0
  3 11  2  0
 11 12  1  0
 12 13  1  0
 13 14  2  0
 14 15  1  0
 15 16  1  0
 15 17  2  0
 17 18  1  0
 18 19  1  0
 18 20  2  0
 20  2  1  0
 10  4  1  0
 20 13  1  0
  5 21  1  0
  6 22  1  0
  8 23  1  0
  9 24  1  0
 10 25  1  0
 11 26  1  0
 14 27  1  0
 16 28  1  0
 17 29  1  0
 19 30  1  0
M  END
$$$$
