@<TRIPOS>MOLECULE
*****
 35 37 0 0 0
SMALL
GASTEIGER

@<TRIPOS>ATOM
      1 C          -1.0943    3.7058    1.3235 C.3     1  UNL1       -0.0120
      2 S          -0.5302    2.0424    1.8309 S.3     1  UNL1       -0.1073
      3 C          -1.0597    0.8957    0.5742 C.ar    1  UNL1        0.1278
      4 N          -2.2573    0.3274    0.6978 N.ar    1  UNL1       -0.2210
      5 C          -2.7211   -0.5423   -0.2057 C.ar    1  UNL1        0.1403
      6 C          -3.9747   -1.0730    0.0174 C.ar    1  UNL1       -0.0187
      7 C          -4.4421   -1.9673   -0.9192 C.ar    1  UNL1       -0.0569
      8 C          -3.6582   -2.2837   -2.0082 C.ar    1  UNL1       -0.0450
      9 C          -2.4149   -1.7387   -2.2021 C.ar    1  UNL1        0.0131
     10 N          -1.9468   -0.8524   -1.2778 N.ar    1  UNL1       -0.2846
     11 C          -0.7289   -0.3131   -1.4598 C.ar    1  UNL1        0.1599
     12 N           0.0264   -0.5773   -2.4495 N.2     1  UNL1       -0.2814
     13 C          -0.2675    0.5953   -0.4979 C.ar    1  UNL1        0.1672
     14 S           1.3148    1.3085   -0.7161 S.O2    1  UNL1        0.0310
     15 O           1.3534    2.6651   -0.0946 O.2     1  UNL1       -0.1641
     16 O           1.5720    1.4453   -2.1898 O.2     1  UNL1       -0.1641
     17 C           2.5327    0.3297    0.0459 C.ar    1  UNL1        0.0938
     18 C           2.8720    0.5611    1.3564 C.ar    1  UNL1       -0.0365
     19 C           3.8468   -0.2100    1.9929 C.ar    1  UNL1       -0.0599
     20 C           4.4888   -1.2235    1.3106 C.ar    1  UNL1       -0.0616
     21 C           4.1549   -1.4639   -0.0065 C.ar    1  UNL1       -0.0599
     22 C           3.1793   -0.6828   -0.6234 C.ar    1  UNL1       -0.0365
     23 H          -2.1434    3.8901    1.6969 H       1  UNL1        0.0344
     24 H          -0.3851    4.4313    1.7610 H       1  UNL1        0.0344
     25 H          -1.1483    3.7631    0.2156 H       1  UNL1        0.0344
     26 H          -4.5856   -0.8221    0.8722 H       1  UNL1        0.0654
     27 H          -5.4344   -2.4018   -0.7639 H       1  UNL1        0.0619
     28 H          -4.0109   -2.9849   -2.7536 H       1  UNL1        0.0632
     29 H          -1.8009   -1.9891   -3.0588 H       1  UNL1        0.0814
     30 H          -0.0630   -1.1731   -3.2510 H       1  UNL1        0.1884
     31 H           2.4040    1.3476    1.9575 H       1  UNL1        0.0637
     32 H           4.1346   -0.0529    3.0188 H       1  UNL1        0.0618
     33 H           5.2514   -1.8525    1.7524 H       1  UNL1        0.0618
     34 H           4.6403   -2.2561   -0.5789 H       1  UNL1        0.0618
     35 H           2.8958   -0.8479   -1.6569 H       1  UNL1        0.0637
@<TRIPOS>BOND
     1     1     2    1
     2     2     3    1
     3     3     4   ar
     4     4     5   ar
     5     5     6   ar
     6     6     7   ar
     7     7     8   ar
     8     8     9   ar
     9     9    10   ar
    10    10    11   ar
    11    11    12    2
    12    11    13   ar
    13    13    14    1
    14    14    15    2
    15    14    16    2
    16    14    17    1
    17    17    18   ar
    18    18    19   ar
    19    19    20   ar
    20    20    21   ar
    21    21    22   ar
    22    13     3   ar
    23    22    17   ar
    24    10     5   ar
    25     1    23    1
    26     1    24    1
    27     1    25    1
    28     6    26    1
    29     7    27    1
    30     8    28    1
    31     9    29    1
    32    12    30    1
    33    18    31    1
    34    19    32    1
    35    20    33    1
    36    21    34    1
    37    22    35    1
