
     RDKit          3D

 35 37  0  0  0  0  0  0  0  0999 V2000
   -1.0943    3.7058    1.3235 C   0  0  0  0  0  0  0  0  0  0  0  0
   -0.5302    2.0424    1.8309 S   0  0  0  0  0  0  0  0  0  0  0  0
   -1.0597    0.8957    0.5742 C   0  0  0  0  0  0  0  0  0  0  0  0
   -2.2573    0.3274    0.6978 N   0  0  0  0  0  0  0  0  0  0  0  0
   -2.7211   -0.5423   -0.2057 C   0  0  0  0  0  0  0  0  0  0  0  0
   -3.9747   -1.0730    0.0174 C   0  0  0  0  0  0  0  0  0  0  0  0
   -4.4421   -1.9673   -0.9192 C   0  0  0  0  0  0  0  0  0  0  0  0
   -3.6582   -2.2837   -2.0082 C   0  0  0  0  0  0  0  0  0  0  0  0
   -2.4149   -1.7387   -2.2021 C   0  0  0  0  0  0  0  0  0  0  0  0
   -1.9468   -0.8524   -1.2778 N   0  0  0  0  0  0  0  0  0  0  0  0
   -0.7289   -0.3131   -1.4598 C   0  0  0  0  0  0  0  0  0  0  0  0
    0.0264   -0.5773   -2.4495 N   0  0  0  0  0  0  0  0  0  0  0  0
   -0.2675    0.5953   -0.4979 C   0  0  0  0  0  0  0  0  0  0  0  0
    1.3148    1.3085   -0.7161 S   0  0  0  0  0  6  0  0  0  0  0  0
    1.3534    2.6651   -0.0946 O   0  0  0  0  0  0  0  0  0  0  0  0
    1.5720    1.4453   -2.1898 O   0  0  0  0  0  0  0  0  0  0  0  0
    2.5327    0.3297    0.0459 C   0  0  0  0  0  0  0  0  0  0  0  0
    2.8720    0.5611    1.3564 C   0  0  0  0  0  0  0  0  0  0  0  0
    3.8468   -0.2100    1.9929 C   0  0  0  0  0  0  0  0  0  0  0  0
    4.4888   -1.2235    1.3106 C   0  0  0  0  0  0  0  0  0  0  0  0
    4.1549   -1.4639   -0.0065 C   0  0  0  0  0  0  0  0  0  0  0  0
    3.1793   -0.6828   -0.6234 C   0  0  0  0  0  0  0  0  0  0  0  0
   -2.1434    3.8901    1.6969 H   0  0  0  0  0  0  0  0  0  0  0  0
   -0.3851    4.4313    1.7610 H   0  0  0  0  0  0  0  0  0  0  0  0
   -1.1483    3.7631    0.2156 H   0  0  0  0  0  0  0  0  0  0  0  0
   -4.5856   -0.8221    0.8722 H   0  0  0  0  0  0  0  0  0  0  0  0
   -5.4344   -2.4018   -0.7639 H   0  0  0  0  0  0  0  0  0  0  0  0
   -4.0109   -2.9849   -2.7536 H   0  0  0  0  0  0  0  0  0  0  0  0
   -1.8009   -1.9891   -3.0588 H   0  0  0  0  0  0  0  0  0  0  0  0
   -0.0630   -1.1731   -3.2510 H   0  0  0  0  0  0  0  0  0  0  0  0
    2.4040    1.3476    1.9575 H   0  0  0  0  0  0  0  0  0  0  0  0
    4.1346   -0.0529    3.0188 H   0  0  0  0  0  0  0  0  0  0  0  0
    5.2514   -1.8525    1.7524 H   0  0  0  0  0  0  0  0  0  0  0  0
    4.6403   -2.2561   -0.5789 H   0  0  0  0  0  0  0  0  0  0  0  0
    2.8958   -0.8479   -1.6569 H   0  0  0  0  0  0  0  0  0  0  0  0
  1  2  1  0
  2  3  1  0
  3  4  1  0
  4  5  2  0
  5  6  1  0
  6  7  2  0
  7  8  1  0
  8  9  2  0
  9 10  1  0
 10 11  1  0
 11 12  2  3
 11 13  1  0
 13 14  1  0
 14 15  2  0
 14 16  2  0
 14 17  1  0
 17 18  2  0
 18 19  1  0
 19 20  2  0
 20 21  1  0
 21 22  2  0
 13  3  2  0
 22 17  1  0
 10  5  1  0
  1 23  1  0
  1 24  1  0
  1 25  1  0
  6 26  1  0
  7 27  1  0
  8 28  1  0
  9 29  1  0
 12 30  1  0
 18 31  1  0
 19 32  1  0
 20 33  1  0
 21 34  1  0
 22 35  1  0
M  END
$$$$
