@<TRIPOS>MOLECULE
*****
 44 45 0 0 0
SMALL
GASTEIGER

@<TRIPOS>ATOM
      1 C          -3.4117    0.0608    0.7310 C.3     1  UNL1        0.0822
      2 N          -4.0940   -1.2120    0.6632 N.3     1  UNL1       -0.3199
      3 C          -4.3350    1.0684    0.0776 C.3     1  UNL1       -0.0321
      4 C          -5.6080    1.0364    0.8945 C.3     1  UNL1       -0.0634
      5 C          -2.0761   -0.0117    0.1667 C.2     1  UNL1        0.2330
      6 O          -1.7690    1.2167    0.3528 O.2     1  UNL1       -0.2739
      7 N          -1.1633   -0.9201   -0.4370 N.am    1  UNL1       -0.2886
      8 C          -1.5795   -2.3215   -0.6457 C.3     1  UNL1        0.0156
      9 C          -1.3779   -2.4271   -2.1662 C.3     1  UNL1       -0.0350
     10 C          -0.2651   -1.4240   -2.4571 C.3     1  UNL1       -0.0243
     11 C           0.1399   -1.0951   -1.0095 C.3     1  UNL1        0.1022
     12 C           1.1126   -0.0467   -0.9424 C.2     1  UNL1        0.2338
     13 O           2.0416   -0.5181   -1.7123 O.2     1  UNL1       -0.2738
     14 N           1.5533    1.1922   -0.4783 N.am    1  UNL1       -0.3097
     15 C           2.7948    1.8710   -0.7695 C.3     1  UNL1        0.0369
     16 C           3.9306    1.3280   -0.0253 C.ar    1  UNL1       -0.0289
     17 C           4.8366    0.3530   -0.3622 C.ar    1  UNL1       -0.0570
     18 C           5.8661   -0.0823    0.4285 C.ar    1  UNL1       -0.0601
     19 C           6.0274    0.4929    1.6741 C.ar    1  UNL1       -0.0434
     20 C           5.1371    1.4861    2.0650 C.ar    1  UNL1        0.0413
     21 CL          5.4395    2.1401    3.6589 Cl      1  UNL1       -0.0835
     22 C           4.1041    1.8984    1.2295 C.ar    1  UNL1       -0.0387
     23 H          -3.4124    0.3433    1.8300 H       1  UNL1        0.0554
     24 H          -4.4398   -1.5728    1.5609 H       1  UNL1        0.1189
     25 H          -4.8401   -1.2261   -0.0369 H       1  UNL1        0.1189
     26 H          -3.9282    2.0983    0.1242 H       1  UNL1        0.0282
     27 H          -4.5657    0.7110   -0.9288 H       1  UNL1        0.0282
     28 H          -6.2043    0.1555    0.5852 H       1  UNL1        0.0230
     29 H          -5.4160    0.9424    1.9884 H       1  UNL1        0.0230
     30 H          -6.2376    1.9349    0.7229 H       1  UNL1        0.0230
     31 H          -2.5905   -2.5442   -0.3706 H       1  UNL1        0.0465
     32 H          -0.8373   -2.9387   -0.1012 H       1  UNL1        0.0465
     33 H          -1.0477   -3.4396   -2.3924 H       1  UNL1        0.0281
     34 H          -2.3067   -2.2124   -2.7088 H       1  UNL1        0.0281
     35 H          -0.6254   -0.5335   -2.9915 H       1  UNL1        0.0288
     36 H           0.5490   -1.8735   -3.0315 H       1  UNL1        0.0288
     37 H           0.5419   -2.0875   -0.6322 H       1  UNL1        0.0597
     38 H           0.8000    1.5413    0.1439 H       1  UNL1        0.1491
     39 H           2.6581    2.9526   -0.5775 H       1  UNL1        0.0512
     40 H           3.0251    1.8085   -1.8776 H       1  UNL1        0.0512
     41 H           4.6926   -0.0770   -1.3421 H       1  UNL1        0.0621
     42 H           6.5171   -0.8685    0.0383 H       1  UNL1        0.0618
     43 H           6.8444    0.1288    2.2693 H       1  UNL1        0.0632
     44 H           3.5195    2.6720    1.6976 H       1  UNL1        0.0635
@<TRIPOS>BOND
     1     1     2    1
     2     1     3    1
     3     3     4    1
     4     1     5    1
     5     5     6    2
     6     5     7   am
     7     7     8    1
     8     8     9    1
     9     9    10    1
    10    10    11    1
    11    11    12    1
    12    12    13    2
    13    12    14   am
    14    14    15    1
    15    15    16    1
    16    16    17   ar
    17    17    18   ar
    18    18    19   ar
    19    19    20   ar
    20    20    21    1
    21    20    22   ar
    22    11     7    1
    23    22    16   ar
    24     1    23    1
    25     2    24    1
    26     2    25    1
    27     3    26    1
    28     3    27    1
    29     4    28    1
    30     4    29    1
    31     4    30    1
    32     8    31    1
    33     8    32    1
    34     9    33    1
    35     9    34    1
    36    10    35    1
    37    10    36    1
    38    11    37    1
    39    14    38    1
    40    15    39    1
    41    15    40    1
    42    17    41    1
    43    18    42    1
    44    19    43    1
    45    22    44    1
