@<TRIPOS>MOLECULE
*****
 44 45 0 0 0
SMALL
GASTEIGER

@<TRIPOS>ATOM
      1 C           0.9447    0.9079   -0.6566 C.3     1  UNL1        0.0172
      2 N           1.1197    0.4396   -2.0087 N.3     1  UNL1       -0.3265
      3 C           0.5523   -0.2156    0.2840 C.3     1  UNL1        0.0396
      4 C          -0.7244   -0.8513   -0.1264 C.2     1  UNL1        0.2177
      5 O          -0.5996   -1.7488   -1.0255 O.2     1  UNL1       -0.2755
      6 N          -1.9535   -0.4579    0.4625 N.am    1  UNL1       -0.2901
      7 C          -1.9473    0.5921    1.4825 C.3     1  UNL1        0.0169
      8 C          -3.2477    1.3672    1.4551 C.3     1  UNL1       -0.0215
      9 C          -3.4691    2.0572    0.1327 C.3     1  UNL1        0.0131
     10 N          -3.8833    1.1370   -0.9196 N.am    1  UNL1       -0.3137
     11 C          -3.7399   -0.2889   -1.0544 C.2     1  UNL1        0.2333
     12 O          -4.1719   -0.7682   -2.1134 O.2     1  UNL1       -0.2738
     13 C          -3.1185   -1.1342   -0.0013 C.3     1  UNL1        0.0993
     14 C          -2.9078   -2.5498   -0.4593 C.3     1  UNL1       -0.0379
     15 C           2.2511    1.5175   -0.1872 C.3     1  UNL1       -0.0092
     16 C           3.3572    0.5382   -0.2146 C.ar    1  UNL1       -0.0078
     17 C           4.0348    0.1148   -1.3207 C.ar    1  UNL1        0.1295
     18 F           3.6816    0.6347   -2.5191 F       1  UNL1       -0.2051
     19 C           5.0507   -0.7935   -1.3290 C.ar    1  UNL1        0.0119
     20 C           5.4443   -1.3450   -0.1255 C.ar    1  UNL1        0.1611
     21 F           6.4475   -2.2546   -0.0447 F       1  UNL1       -0.2024
     22 C           4.8237   -0.9825    1.0402 C.ar    1  UNL1        0.1588
     23 F           5.1656   -1.4878    2.2432 F       1  UNL1       -0.2025
     24 C           3.8017   -0.0563    0.9724 C.ar    1  UNL1       -0.0176
     25 H           0.1373    1.6667   -0.6949 H       1  UNL1        0.0466
     26 H           1.2396   -0.5880   -2.0854 H       1  UNL1        0.1185
     27 H           0.3810    0.7395   -2.6636 H       1  UNL1        0.1185
     28 H           0.5565    0.1535    1.3200 H       1  UNL1        0.0374
     29 H           1.4023   -0.9561    0.2073 H       1  UNL1        0.0374
     30 H          -1.8889    0.0819    2.4581 H       1  UNL1        0.0465
     31 H          -1.1291    1.2950    1.3473 H       1  UNL1        0.0465
     32 H          -3.1653    2.1570    2.2211 H       1  UNL1        0.0295
     33 H          -4.1091    0.7408    1.6878 H       1  UNL1        0.0295
     34 H          -2.5593    2.6077   -0.1846 H       1  UNL1        0.0462
     35 H          -4.3173    2.7632    0.2677 H       1  UNL1        0.0462
     36 H          -4.3722    1.6042   -1.7180 H       1  UNL1        0.1487
     37 H          -3.8879   -1.1754    0.8167 H       1  UNL1        0.0594
     38 H          -2.7125   -2.6038   -1.5502 H       1  UNL1        0.0252
     39 H          -2.1465   -3.0871    0.1034 H       1  UNL1        0.0252
     40 H          -3.8568   -3.1419   -0.3054 H       1  UNL1        0.0252
     41 H           2.1175    1.8532    0.8737 H       1  UNL1        0.0329
     42 H           2.5506    2.3656   -0.8219 H       1  UNL1        0.0329
     43 H           5.5434   -1.0823   -2.2463 H       1  UNL1        0.0676
     44 H           3.3050    0.2345    1.9064 H       1  UNL1        0.0651
@<TRIPOS>BOND
     1     1     2    1
     2     1     3    1
     3     3     4    1
     4     4     5    2
     5     4     6   am
     6     6     7    1
     7     7     8    1
     8     8     9    1
     9     9    10    1
    10    10    11   am
    11    11    12    2
    12    11    13    1
    13    13    14    1
    14     1    15    1
    15    15    16    1
    16    16    17   ar
    17    17    18    1
    18    17    19   ar
    19    19    20   ar
    20    20    21    1
    21    20    22   ar
    22    22    23    1
    23    22    24   ar
    24    13     6    1
    25    24    16   ar
    26     1    25    1
    27     2    26    1
    28     2    27    1
    29     3    28    1
    30     3    29    1
    31     7    30    1
    32     7    31    1
    33     8    32    1
    34     8    33    1
    35     9    34    1
    36     9    35    1
    37    10    36    1
    38    13    37    1
    39    14    38    1
    40    14    39    1
    41    14    40    1
    42    15    41    1
    43    15    42    1
    44    19    43    1
    45    24    44    1
