@<TRIPOS>MOLECULE
*****
 53 56 0 0 0
SMALL
GASTEIGER

@<TRIPOS>ATOM
      1 C           4.7416    0.5815    2.9586 C.3     1  UNL1       -0.0223
      2 C           4.9645    0.0604    1.5807 C.ar    1  UNL1        0.0389
      3 C           3.9028   -0.4142    0.8538 C.ar    1  UNL1       -0.0312
      4 C           4.0723   -0.9078   -0.4343 C.ar    1  UNL1        0.0065
      5 C           2.9953   -1.3748   -1.1360 C.ar    1  UNL1        0.0426
      6 N           1.7009   -1.3566   -0.5500 N.am    1  UNL1       -0.2689
      7 C           0.8217   -0.2704   -0.6707 C.2     1  UNL1        0.3044
      8 O           1.1990    0.7387   -1.3314 O.2     1  UNL1       -0.2525
      9 N          -0.4848   -0.2300   -0.0899 N.am    1  UNL1       -0.2921
     10 C          -1.3178    0.9445   -0.2743 C.3     1  UNL1        0.0569
     11 C          -1.5041    1.5639    1.1160 C.3     1  UNL1        0.0093
     12 C          -2.3442    0.7265    2.0206 C.3     1  UNL1        0.1072
     13 C          -1.5252   -0.0158    3.0553 C.3     1  UNL1       -0.0251
     14 C          -3.2700    1.6602    2.8134 C.3     1  UNL1       -0.0251
     15 O          -3.2064   -0.1445    1.3130 O.3     1  UNL1       -0.4829
     16 C          -3.5779    0.0747    0.0086 C.ar    1  UNL1        0.1618
     17 C          -2.6359    0.6302   -0.8319 C.ar    1  UNL1        0.0175
     18 C          -2.9532    0.8719   -2.1502 C.ar    1  UNL1       -0.0526
     19 C          -4.2191    0.5635   -2.6562 C.ar    1  UNL1       -0.0468
     20 C          -5.1482    0.0116   -1.8120 C.ar    1  UNL1        0.0935
     21 C          -6.4998   -0.3265   -2.3194 C.3     1  UNL1        0.4202
     22 F          -6.7394   -1.6733   -2.1699 F       1  UNL1       -0.1658
     23 F          -6.6582    0.0506   -3.6301 F       1  UNL1       -0.1658
     24 F          -7.4907    0.3283   -1.5827 F       1  UNL1       -0.1658
     25 C          -4.8426   -0.2347   -0.4921 C.ar    1  UNL1        0.1768
     26 F          -5.7514   -0.7724    0.3255 F       1  UNL1       -0.2011
     27 C           3.2444   -1.8539   -2.4215 C.ar    1  UNL1       -0.0398
     28 C           4.5172   -1.8490   -2.9413 C.ar    1  UNL1       -0.0594
     29 C           5.5925   -1.3780   -2.2292 C.ar    1  UNL1       -0.0525
     30 C           5.3598   -0.8969   -0.9455 C.ar    1  UNL1        0.0020
     31 C           6.4321   -0.4160   -0.2076 C.ar    1  UNL1        0.0356
     32 N           6.1898    0.0462    1.0334 N.ar    1  UNL1       -0.2595
     33 H           4.7410    1.6988    2.8678 H       1  UNL1        0.0292
     34 H           5.6019    0.3249    3.6091 H       1  UNL1        0.0292
     35 H           3.8329    0.1946    3.4193 H       1  UNL1        0.0292
     36 H           2.8952   -0.4269    1.2437 H       1  UNL1        0.0642
     37 H           1.4110   -2.2005   -0.0092 H       1  UNL1        0.1564
     38 H          -0.8027   -1.0488    0.4516 H       1  UNL1        0.1508
     39 H          -0.7757    1.6900   -0.8832 H       1  UNL1        0.0551
     40 H          -2.0120    2.5268    0.9431 H       1  UNL1        0.0325
     41 H          -0.5081    1.6886    1.5903 H       1  UNL1        0.0325
     42 H          -0.4287    0.1587    2.8464 H       1  UNL1        0.0268
     43 H          -1.7747   -1.0918    3.0628 H       1  UNL1        0.0268
     44 H          -1.6779    0.3626    4.0862 H       1  UNL1        0.0268
     45 H          -4.0009    1.0242    3.3538 H       1  UNL1        0.0268
     46 H          -3.8073    2.2946    2.0562 H       1  UNL1        0.0268
     47 H          -2.6549    2.2488    3.4999 H       1  UNL1        0.0268
     48 H          -2.2019    1.3101   -2.8029 H       1  UNL1        0.0622
     49 H          -4.4787    0.7473   -3.6826 H       1  UNL1        0.0624
     50 H           2.3751   -2.2289   -2.9829 H       1  UNL1        0.0636
     51 H           4.6666   -2.2272   -3.9364 H       1  UNL1        0.0618
     52 H           6.6038   -1.3689   -2.6293 H       1  UNL1        0.0624
     53 H           7.4312   -0.4147   -0.6219 H       1  UNL1        0.0836
@<TRIPOS>BOND
     1     1     2    1
     2     2     3   ar
     3     3     4   ar
     4     4     5   ar
     5     5     6    1
     6     6     7   am
     7     7     8    2
     8     7     9   am
     9     9    10    1
    10    10    11    1
    11    11    12    1
    12    12    13    1
    13    12    14    1
    14    12    15    1
    15    15    16    1
    16    16    17   ar
    17    17    18   ar
    18    18    19   ar
    19    19    20   ar
    20    20    21    1
    21    21    22    1
    22    21    23    1
    23    21    24    1
    24    20    25   ar
    25    25    26    1
    26     5    27   ar
    27    27    28   ar
    28    28    29   ar
    29    29    30   ar
    30    30    31   ar
    31    31    32   ar
    32    32     2   ar
    33    30     4   ar
    34    17    10    1
    35    25    16   ar
    36     1    33    1
    37     1    34    1
    38     1    35    1
    39     3    36    1
    40     6    37    1
    41     9    38    1
    42    10    39    1
    43    11    40    1
    44    11    41    1
    45    13    42    1
    46    13    43    1
    47    13    44    1
    48    14    45    1
    49    14    46    1
    50    14    47    1
    51    18    48    1
    52    19    49    1
    53    27    50    1
    54    28    51    1
    55    29    52    1
    56    31    53    1
