@<TRIPOS>MOLECULE
*****
 55 59 0 0 0
SMALL
GASTEIGER

@<TRIPOS>ATOM
      1 C           1.0096    2.2575    2.7801 C.3     1  UNL1       -0.0380
      2 C           2.0230    1.7490    1.8263 C.ar    1  UNL1       -0.0292
      3 C           3.3109    2.2836    1.7763 C.ar    1  UNL1       -0.0564
      4 C           4.2606    1.7779    0.8848 C.ar    1  UNL1       -0.0493
      5 C           3.9640    0.7439    0.0315 C.ar    1  UNL1        0.0385
      6 C           4.9262    0.1878   -0.9122 C.2     1  UNL1        0.2443
      7 O           4.5843   -0.7642   -1.6562 O.2     1  UNL1       -0.2702
      8 N           6.2564    0.6561   -1.0554 N.am    1  UNL1       -0.3085
      9 C           7.1838    0.0778   -2.0040 C.3     1  UNL1        0.0235
     10 C           8.6311   -0.0837   -1.6442 C.3     1  UNL1       -0.0328
     11 C           8.1954    0.8912   -2.7044 C.3     1  UNL1       -0.0328
     12 C           2.6863    0.2297    0.0959 C.ar    1  UNL1       -0.0281
     13 C           1.7379    0.7365    0.9872 C.ar    1  UNL1        0.0361
     14 N           0.4269    0.1264    0.9924 N.pl3   1  UNL1       -0.2975
     15 C          -0.6929    0.9173    0.6396 C.ar    1  UNL1        0.1506
     16 N          -0.4772    2.1783    0.2482 N.ar    1  UNL1       -0.2167
     17 C          -1.4668    2.9980   -0.0998 C.ar    1  UNL1        0.1388
     18 N          -2.7122    2.5137   -0.0456 N.ar    1  UNL1       -0.1548
     19 N          -3.0228    1.2867    0.3270 N.ar    1  UNL1       -0.2342
     20 C          -4.1976    0.6230    0.4455 C.ar    1  UNL1        0.0411
     21 C          -3.9128   -0.6458    0.8809 C.ar    1  UNL1        0.0454
     22 C          -4.8319   -1.7358    1.1626 C.2     1  UNL1        0.1949
     23 O          -4.7669   -2.4602    2.1943 O.2     1  UNL1       -0.2866
     24 C          -5.9133   -2.0525    0.2262 C.ar    1  UNL1        0.0223
     25 C          -7.0470   -2.6791    0.6479 C.ar    1  UNL1       -0.0509
     26 C          -8.0425   -2.9533   -0.2888 C.ar    1  UNL1       -0.0611
     27 C          -7.8864   -2.6004   -1.6091 C.ar    1  UNL1       -0.0617
     28 C          -6.7339   -1.9626   -2.0419 C.ar    1  UNL1       -0.0611
     29 C          -5.7633   -1.7030   -1.0922 C.ar    1  UNL1       -0.0509
     30 C          -2.5293   -0.7526    1.0295 C.ar    1  UNL1       -0.0094
     31 C          -1.7693   -1.9352    1.4710 C.3     1  UNL1       -0.0369
     32 C          -1.9860    0.4629    0.6800 C.ar    1  UNL1        0.1089
     33 H           0.6609    3.2781    2.5151 H       1  UNL1        0.0278
     34 H           0.1700    1.5330    2.8623 H       1  UNL1        0.0278
     35 H           1.4817    2.3995    3.8026 H       1  UNL1        0.0278
     36 H           3.5288    3.0964    2.4540 H       1  UNL1        0.0621
     37 H           5.2241    2.2206    0.8877 H       1  UNL1        0.0625
     38 H           6.5501    1.4484   -0.4410 H       1  UNL1        0.1493
     39 H           6.7574   -0.7592   -2.5898 H       1  UNL1        0.0498
     40 H           9.1899   -0.9939   -1.9074 H       1  UNL1        0.0284
     41 H           8.8990    0.3155   -0.6314 H       1  UNL1        0.0284
     42 H           8.3452    1.9596   -2.5265 H       1  UNL1        0.0284
     43 H           8.5060    0.5821   -3.7383 H       1  UNL1        0.0284
     44 H           2.4469   -0.5869   -0.5761 H       1  UNL1        0.0644
     45 H           0.4549   -0.8527    1.2617 H       1  UNL1        0.1536
     46 H          -1.2803    4.0384   -0.4221 H       1  UNL1        0.1066
     47 H          -5.1501    1.0649    0.2236 H       1  UNL1        0.0837
     48 H          -7.1840   -2.9629    1.6833 H       1  UNL1        0.0625
     49 H          -8.9582   -3.4470   -0.0070 H       1  UNL1        0.0618
     50 H          -8.6455   -2.8002   -2.3671 H       1  UNL1        0.0618
     51 H          -6.6219   -1.6899   -3.0822 H       1  UNL1        0.0618
     52 H          -4.8489   -1.2058   -1.3920 H       1  UNL1        0.0625
     53 H          -1.2775   -1.8464    2.4461 H       1  UNL1        0.0278
     54 H          -2.5424   -2.7549    1.6583 H       1  UNL1        0.0278
     55 H          -1.1501   -2.4060    0.6669 H       1  UNL1        0.0278
@<TRIPOS>BOND
     1     1     2    1
     2     2     3   ar
     3     3     4   ar
     4     4     5   ar
     5     5     6    1
     6     6     7    2
     7     6     8   am
     8     8     9    1
     9     9    10    1
    10    10    11    1
    11     5    12   ar
    12    12    13   ar
    13    13    14    1
    14    14    15    1
    15    15    16   ar
    16    16    17   ar
    17    17    18   ar
    18    18    19   ar
    19    19    20   ar
    20    20    21   ar
    21    21    22    1
    22    22    23    2
    23    22    24    1
    24    24    25   ar
    25    25    26   ar
    26    26    27   ar
    27    27    28   ar
    28    28    29   ar
    29    21    30   ar
    30    30    31    1
    31    30    32   ar
    32    13     2   ar
    33    32    15   ar
    34    11     9    1
    35    32    19   ar
    36    29    24   ar
    37     1    33    1
    38     1    34    1
    39     1    35    1
    40     3    36    1
    41     4    37    1
    42     8    38    1
    43     9    39    1
    44    10    40    1
    45    10    41    1
    46    11    42    1
    47    11    43    1
    48    12    44    1
    49    14    45    1
    50    17    46    1
    51    20    47    1
    52    25    48    1
    53    26    49    1
    54    27    50    1
    55    28    51    1
    56    29    52    1
    57    31    53    1
    58    31    54    1
    59    31    55    1
