
     RDKit          3D

 44 44  0  0  0  0  0  0  0  0999 V2000
   -7.3786    0.1264   -0.1816 C   0  0  0  0  0  0  0  0  0  0  0  0
   -5.8504   -0.0466   -0.4758 C   0  0  0  0  0  0  0  0  0  0  0  0
   -5.2740    1.3078   -0.2992 C   0  0  0  0  0  0  0  0  0  0  0  0
   -3.8624    1.5688   -0.5576 C   0  0  0  0  0  0  0  0  0  0  0  0
   -2.7629    0.9500    0.1946 C   0  0  0  0  0  0  0  0  0  0  0  0
   -2.6479   -0.5353    0.1110 C   0  0  0  0  0  0  0  0  0  0  0  0
   -1.4770   -1.0333    0.8319 N   0  0  0  0  0  0  0  0  0  0  0  0
   -0.1766   -0.6624    0.4638 C   0  0  0  0  0  0  0  0  0  0  0  0
    0.0780    0.1018   -0.4920 O   0  0  0  0  0  0  0  0  0  0  0  0
    0.9523   -1.1310    1.1546 O   0  0  0  0  0  0  0  0  0  0  0  0
    2.2378   -0.7581    0.7828 C   0  0  0  0  0  0  0  0  0  0  0  0
    2.8687    0.3455    1.2909 C   0  0  0  0  0  0  0  0  0  0  0  0
    4.1444    0.6144    0.8460 C   0  0  0  0  0  0  0  0  0  0  0  0
    4.8025   -0.1778   -0.0818 C   0  0  0  0  0  0  0  0  0  0  0  0
    6.1438    0.1707   -0.5002 C   0  0  0  0  0  0  0  0  0  0  0  0
    6.7320   -0.5539   -1.3419 O   0  0  0  0  0  0  0  0  0  0  0  0
    6.8267    1.2739   -0.0189 O   0  0  0  0  0  0  0  0  0  0  0  0
    8.1197    1.6079   -0.4236 C   0  0  0  0  0  0  0  0  0  0  0  0
    4.1379   -1.2793   -0.5712 C   0  0  0  0  0  0  0  0  0  0  0  0
    2.8598   -1.5848   -0.1527 C   0  0  0  0  0  0  0  0  0  0  0  0
    2.1671   -2.7856   -0.7022 C   0  0  0  0  0  0  0  0  0  0  0  0
   -7.7684    0.9908   -0.7242 H   0  0  0  0  0  0  0  0  0  0  0  0
   -7.4297    0.2816    0.9114 H   0  0  0  0  0  0  0  0  0  0  0  0
   -7.9146   -0.7912   -0.4461 H   0  0  0  0  0  0  0  0  0  0  0  0
   -5.7448   -0.4372   -1.5132 H   0  0  0  0  0  0  0  0  0  0  0  0
   -5.5698   -0.8157    0.2635 H   0  0  0  0  0  0  0  0  0  0  0  0
   -5.8576    2.0038   -0.9947 H   0  0  0  0  0  0  0  0  0  0  0  0
   -5.5802    1.6177    0.7681 H   0  0  0  0  0  0  0  0  0  0  0  0
   -3.6655    2.6967   -0.5179 H   0  0  0  0  0  0  0  0  0  0  0  0
   -3.7157    1.3998   -1.6919 H   0  0  0  0  0  0  0  0  0  0  0  0
   -1.7521    1.3604   -0.1450 H   0  0  0  0  0  0  0  0  0  0  0  0
   -2.7681    1.2771    1.2881 H   0  0  0  0  0  0  0  0  0  0  0  0
   -2.6857   -0.9011   -0.9228 H   0  0  0  0  0  0  0  0  0  0  0  0
   -3.5137   -0.9971    0.6667 H   0  0  0  0  0  0  0  0  0  0  0  0
   -1.5664   -1.6904    1.6560 H   0  0  0  0  0  0  0  0  0  0  0  0
    2.3518    0.9599    2.0137 H   0  0  0  0  0  0  0  0  0  0  0  0
    4.6663    1.4796    1.2305 H   0  0  0  0  0  0  0  0  0  0  0  0
    8.1475    1.5706   -1.5511 H   0  0  0  0  0  0  0  0  0  0  0  0
    8.3101    2.6790   -0.1582 H   0  0  0  0  0  0  0  0  0  0  0  0
    8.9089    0.9425   -0.0781 H   0  0  0  0  0  0  0  0  0  0  0  0
    4.6672   -1.8985   -1.3040 H   0  0  0  0  0  0  0  0  0  0  0  0
    1.2844   -2.9789   -0.0378 H   0  0  0  0  0  0  0  0  0  0  0  0
    1.7613   -2.5736   -1.6982 H   0  0  0  0  0  0  0  0  0  0  0  0
    2.7939   -3.6949   -0.6515 H   0  0  0  0  0  0  0  0  0  0  0  0
  1  2  1  0
  2  3  1  0
  3  4  1  0
  4  5  1  0
  5  6  1  0
  6  7  1  0
  7  8  1  0
  8  9  2  0
  8 10  1  0
 10 11  1  0
 11 12  2  0
 12 13  1  0
 13 14  2  0
 14 15  1  0
 15 16  2  0
 15 17  1  0
 17 18  1  0
 14 19  1  0
 19 20  2  0
 20 21  1  0
 20 11  1  0
  1 22  1  0
  1 23  1  0
  1 24  1  0
  2 25  1  0
  2 26  1  0
  3 27  1  0
  3 28  1  0
  4 29  1  0
  4 30  1  0
  5 31  1  0
  5 32  1  0
  6 33  1  0
  6 34  1  0
  7 35  1  0
 12 36  1  0
 13 37  1  0
 18 38  1  0
 18 39  1  0
 18 40  1  0
 19 41  1  0
 21 42  1  0
 21 43  1  0
 21 44  1  0
M  END
$$$$
