@<TRIPOS>MOLECULE
*****
 44 44 0 0 0
SMALL
GASTEIGER

@<TRIPOS>ATOM
      1 C          -7.3786    0.1264   -0.1816 C.3     1  UNL1       -0.0653
      2 C          -5.8504   -0.0466   -0.4758 C.3     1  UNL1       -0.0559
      3 C          -5.2740    1.3078   -0.2992 C.3     1  UNL1       -0.0533
      4 C          -3.8624    1.5688   -0.5576 C.3     1  UNL1       -0.0517
      5 C          -2.7629    0.9500    0.1946 C.3     1  UNL1       -0.0373
      6 C          -2.6479   -0.5353    0.1110 C.3     1  UNL1        0.0147
      7 N          -1.4770   -1.0333    0.8319 N.am    1  UNL1       -0.2808
      8 C          -0.1766   -0.6624    0.4638 C.2     1  UNL1        0.4056
      9 O           0.0780    0.1018   -0.4920 O.2     1  UNL1       -0.2260
     10 O           0.9523   -1.1310    1.1546 O.3     1  UNL1       -0.4113
     11 C           2.2378   -0.7581    0.7828 C.ar    1  UNL1        0.1362
     12 C           2.8687    0.3455    1.2909 C.ar    1  UNL1       -0.0181
     13 C           4.1444    0.6144    0.8460 C.ar    1  UNL1       -0.0443
     14 C           4.8025   -0.1778   -0.0818 C.ar    1  UNL1        0.0595
     15 C           6.1438    0.1707   -0.5002 C.2     1  UNL1        0.3389
     16 O           6.7320   -0.5539   -1.3419 O.2     1  UNL1       -0.2450
     17 O           6.8267    1.2739   -0.0189 O.3     1  UNL1       -0.4645
     18 C           8.1197    1.6079   -0.4236 C.3     1  UNL1        0.0820
     19 C           4.1379   -1.2793   -0.5712 C.ar    1  UNL1       -0.0414
     20 C           2.8598   -1.5848   -0.1527 C.ar    1  UNL1       -0.0072
     21 C           2.1671   -2.7856   -0.7022 C.3     1  UNL1       -0.0362
     22 H          -7.7684    0.9908   -0.7242 H       1  UNL1        0.0230
     23 H          -7.4297    0.2816    0.9114 H       1  UNL1        0.0230
     24 H          -7.9146   -0.7912   -0.4461 H       1  UNL1        0.0230
     25 H          -5.7448   -0.4372   -1.5132 H       1  UNL1        0.0263
     26 H          -5.5698   -0.8157    0.2635 H       1  UNL1        0.0263
     27 H          -5.8576    2.0038   -0.9947 H       1  UNL1        0.0265
     28 H          -5.5802    1.6177    0.7681 H       1  UNL1        0.0265
     29 H          -3.6655    2.6967   -0.5179 H       1  UNL1        0.0266
     30 H          -3.7157    1.3998   -1.6919 H       1  UNL1        0.0266
     31 H          -1.7521    1.3604   -0.1450 H       1  UNL1        0.0280
     32 H          -2.7681    1.2771    1.2881 H       1  UNL1        0.0280
     33 H          -2.6857   -0.9011   -0.9228 H       1  UNL1        0.0463
     34 H          -3.5137   -0.9971    0.6667 H       1  UNL1        0.0463
     35 H          -1.5664   -1.6904    1.6560 H       1  UNL1        0.1520
     36 H           2.3518    0.9599    2.0137 H       1  UNL1        0.0655
     37 H           4.6663    1.4796    1.2305 H       1  UNL1        0.0627
     38 H           8.1475    1.5706   -1.5511 H       1  UNL1        0.0661
     39 H           8.3101    2.6790   -0.1582 H       1  UNL1        0.0661
     40 H           8.9089    0.9425   -0.0781 H       1  UNL1        0.0661
     41 H           4.6672   -1.8985   -1.3040 H       1  UNL1        0.0629
     42 H           1.2844   -2.9789   -0.0378 H       1  UNL1        0.0279
     43 H           1.7613   -2.5736   -1.6982 H       1  UNL1        0.0279
     44 H           2.7939   -3.6949   -0.6515 H       1  UNL1        0.0279
@<TRIPOS>BOND
     1     1     2    1
     2     2     3    1
     3     3     4    1
     4     4     5    1
     5     5     6    1
     6     6     7    1
     7     7     8   am
     8     8     9    2
     9     8    10    1
    10    10    11    1
    11    11    12   ar
    12    12    13   ar
    13    13    14   ar
    14    14    15    1
    15    15    16    2
    16    15    17    1
    17    17    18    1
    18    14    19   ar
    19    19    20   ar
    20    20    21    1
    21    20    11   ar
    22     1    22    1
    23     1    23    1
    24     1    24    1
    25     2    25    1
    26     2    26    1
    27     3    27    1
    28     3    28    1
    29     4    29    1
    30     4    30    1
    31     5    31    1
    32     5    32    1
    33     6    33    1
    34     6    34    1
    35     7    35    1
    36    12    36    1
    37    13    37    1
    38    18    38    1
    39    18    39    1
    40    18    40    1
    41    19    41    1
    42    21    42    1
    43    21    43    1
    44    21    44    1
