
     RDKit          3D

 63 64  0  0  0  0  0  0  0  0999 V2000
   -9.4779   -0.3259   -0.7848 C   0  0  0  0  0  0  0  0  0  0  0  0
   -9.2589   -1.6663   -1.3744 C   0  0  0  0  0  0  0  0  0  0  0  0
  -10.3990   -2.3406   -2.0512 C   0  0  0  0  0  0  0  0  0  0  0  0
   -8.0913   -2.2916   -1.3246 C   0  0  0  0  0  0  0  0  0  0  0  0
   -6.8370   -1.8040   -0.7036 C   0  0  0  0  0  0  0  0  0  0  0  0
   -5.8664   -1.7446   -1.7558 O   0  0  0  0  0  0  0  0  0  0  0  0
   -4.5740   -1.3094   -1.4144 C   0  0  0  0  0  0  0  0  0  0  0  0
   -4.3110   -0.9716   -0.1082 C   0  0  0  0  0  0  0  0  0  0  0  0
   -3.0169   -0.5568    0.1149 C   0  0  0  0  0  0  0  0  0  0  0  0
   -2.0001   -0.4530   -0.8132 C   0  0  0  0  0  0  0  0  0  0  0  0
   -0.6603   -0.0019   -0.4937 C   0  0  0  0  0  0  0  0  0  0  0  0
   -0.1327    0.3830    0.6465 C   0  0  0  0  0  0  0  0  0  0  0  0
    1.1091    0.8439    1.1594 C   0  0  0  0  0  0  0  0  0  0  0  0
    0.7504    1.0161    2.3912 O   0  0  0  0  0  0  0  0  0  0  0  0
    2.4856    1.1707    0.8918 C   0  0  0  0  0  0  0  0  0  0  0  0
    3.2063    1.0668   -0.2763 C   0  0  0  0  0  0  0  0  0  0  0  0
    2.5361    0.5516   -1.3643 O   0  0  0  0  0  0  0  0  0  0  0  0
    3.1716    0.3993   -2.6055 C   0  0  0  0  0  0  0  0  0  0  0  0
    2.3098   -0.1676   -3.6679 C   0  0  0  0  0  0  0  0  0  0  0  0
    3.0212   -0.2786   -4.8546 O   0  0  0  0  0  0  0  0  0  0  0  0
    1.1205   -0.5640   -3.7596 O   0  0  0  0  0  0  0  0  0  0  0  0
    4.5207    1.4232   -0.4592 C   0  0  0  0  0  0  0  0  0  0  0  0
    5.1162    1.9237    0.6677 C   0  0  0  0  0  0  0  0  0  0  0  0
    6.4532    2.3142    0.5700 O   0  0  0  0  0  0  0  0  0  0  0  0
    7.1529    2.8248    1.7007 C   0  0  0  0  0  0  0  0  0  0  0  0
    7.3091    1.8433    2.7975 C   0  0  0  0  0  0  0  0  0  0  0  0
    7.1294    0.6326    3.2964 C   0  0  0  0  0  0  0  0  0  0  0  0
    6.4544   -0.5065    2.6059 C   0  0  0  0  0  0  0  0  0  0  0  0
    7.6187    0.2521    4.6663 C   0  0  0  0  0  0  0  0  0  0  0  0
    4.5095    2.0785    1.8893 C   0  0  0  0  0  0  0  0  0  0  0  0
    3.1992    1.6953    1.9728 C   0  0  0  0  0  0  0  0  0  0  0  0
   -2.3152   -0.8027   -2.1021 C   0  0  0  0  0  0  0  0  0  0  0  0
   -3.6064   -1.2354   -2.4197 C   0  0  0  0  0  0  0  0  0  0  0  0
   -8.8360   -0.1120    0.0811 H   0  0  0  0  0  0  0  0  0  0  0  0
  -10.5320   -0.2695   -0.4397 H   0  0  0  0  0  0  0  0  0  0  0  0
   -9.2818    0.4116   -1.6013 H   0  0  0  0  0  0  0  0  0  0  0  0
   -9.9644   -3.0192   -2.8439 H   0  0  0  0  0  0  0  0  0  0  0  0
  -10.9600   -3.0015   -1.3710 H   0  0  0  0  0  0  0  0  0  0  0  0
  -11.0602   -1.5921   -2.5488 H   0  0  0  0  0  0  0  0  0  0  0  0
   -7.9677   -3.2706   -1.7638 H   0  0  0  0  0  0  0  0  0  0  0  0
   -6.9482   -0.7989   -0.2719 H   0  0  0  0  0  0  0  0  0  0  0  0
   -6.4883   -2.5017    0.0817 H   0  0  0  0  0  0  0  0  0  0  0  0
   -5.0651   -1.0327    0.6471 H   0  0  0  0  0  0  0  0  0  0  0  0
   -2.8607   -0.3005    1.1699 H   0  0  0  0  0  0  0  0  0  0  0  0
    0.0344    0.0540   -1.3185 H   0  0  0  0  0  0  0  0  0  0  0  0
   -1.0128    0.2614    1.3024 H   0  0  0  0  0  0  0  0  0  0  0  0
    3.5380    1.4029   -2.9683 H   0  0  0  0  0  0  0  0  0  0  0  0
    4.1255   -0.1968   -2.5157 H   0  0  0  0  0  0  0  0  0  0  0  0
    2.5927   -0.5510   -5.7509 H   0  0  0  0  0  0  0  0  0  0  0  0
    4.9909    1.3026   -1.4157 H   0  0  0  0  0  0  0  0  0  0  0  0
    8.1697    3.1075    1.3462 H   0  0  0  0  0  0  0  0  0  0  0  0
    6.6337    3.7512    2.0433 H   0  0  0  0  0  0  0  0  0  0  0  0
    7.8420    2.4684    3.5501 H   0  0  0  0  0  0  0  0  0  0  0  0
    5.3711   -0.5472    2.7650 H   0  0  0  0  0  0  0  0  0  0  0  0
    6.9380   -1.4525    2.8939 H   0  0  0  0  0  0  0  0  0  0  0  0
    6.6351   -0.4266    1.4965 H   0  0  0  0  0  0  0  0  0  0  0  0
    8.5264   -0.3884    4.5865 H   0  0  0  0  0  0  0  0  0  0  0  0
    6.7941   -0.2992    5.1583 H   0  0  0  0  0  0  0  0  0  0  0  0
    7.8002    1.1419    5.2879 H   0  0  0  0  0  0  0  0  0  0  0  0
    5.0017    2.4902    2.7619 H   0  0  0  0  0  0  0  0  0  0  0  0
    2.7703    1.8420    2.9772 H   0  0  0  0  0  0  0  0  0  0  0  0
   -1.5987   -0.7655   -2.9308 H   0  0  0  0  0  0  0  0  0  0  0  0
   -3.8152   -1.5014   -3.4460 H   0  0  0  0  0  0  0  0  0  0  0  0
  1  2  1  0
  2  3  1  0
  2  4  2  3
  4  5  1  0
  5  6  1  0
  6  7  1  0
  7  8  2  0
  8  9  1  0
  9 10  2  0
 10 11  1  0
 11 12  2  0
 12 13  1  0
 13 14  2  0
 13 15  1  0
 15 16  2  0
 16 17  1  0
 17 18  1  0
 18 19  1  0
 19 20  1  0
 19 21  2  0
 16 22  1  0
 22 23  2  0
 23 24  1  0
 24 25  1  0
 25 26  1  0
 26 27  2  3
 27 28  1  0
 27 29  1  0
 23 30  1  0
 30 31  2  0
 10 32  1  0
 32 33  2  0
 33  7  1  0
 31 15  1  0
  1 34  1  0
  1 35  1  0
  1 36  1  0
  3 37  1  0
  3 38  1  0
  3 39  1  0
  4 40  1  0
  5 41  1  0
  5 42  1  0
  8 43  1  0
  9 44  1  0
 11 45  1  0
 12 46  1  0
 18 47  1  0
 18 48  1  0
 20 49  1  0
 22 50  1  0
 25 51  1  0
 25 52  1  0
 26 53  1  0
 28 54  1  0
 28 55  1  0
 28 56  1  0
 29 57  1  0
 29 58  1  0
 29 59  1  0
 30 60  1  0
 31 61  1  0
 32 62  1  0
 33 63  1  0
M  END
$$$$
