@<TRIPOS>MOLECULE
*****
 53 57 0 0 0
SMALL
GASTEIGER

@<TRIPOS>ATOM
      1 C          -1.8034   -4.2690    1.3595 C.3     1  UNL1       -0.0397
      2 C          -1.7742   -2.9433    0.6451 C.ar    1  UNL1       -0.0504
      3 C          -1.8020   -1.7642    1.3447 C.ar    1  UNL1       -0.0586
      4 C          -1.7755   -0.5494    0.6932 C.ar    1  UNL1       -0.0580
      5 C          -1.7201   -0.4389   -0.6798 C.ar    1  UNL1       -0.0435
      6 C          -1.6873    0.8715   -1.3941 C.3     1  UNL1       -0.0032
      7 C          -2.7624    1.7996   -0.9598 C.3     1  UNL1       -0.0298
      8 C          -2.2739    3.1180   -0.3976 C.3     1  UNL1        0.0110
      9 C          -1.7556    3.9569   -1.5699 C.3     1  UNL1       -0.0359
     10 C          -0.2411    4.0006   -1.3147 C.3     1  UNL1       -0.0352
     11 C          -0.1005    2.6660   -0.5600 C.3     1  UNL1        0.0208
     12 C          -0.3172    1.4975   -1.4558 C.3     1  UNL1        0.0422
     13 C           0.7643    0.4852   -1.3883 C.ar    1  UNL1        0.1430
     14 C           1.2700   -0.0687   -0.2355 C.ar    1  UNL1        0.0085
     15 C           2.2604   -0.9668   -0.5986 C.ar    1  UNL1        0.1136
     16 C           3.0783   -1.7946    0.3034 C.ar    1  UNL1        0.0037
     17 C           4.0360   -2.6540   -0.1765 C.ar    1  UNL1       -0.0511
     18 C           4.8041   -3.4314    0.6696 C.ar    1  UNL1       -0.0428
     19 C           4.6150   -3.3527    2.0352 C.ar    1  UNL1        0.0410
     20 CL          5.5741   -4.3271    3.1428 Cl      1  UNL1       -0.0835
     21 C           3.6658   -2.5019    2.5251 C.ar    1  UNL1       -0.0428
     22 C           2.8959   -1.7220    1.6662 C.ar    1  UNL1       -0.0511
     23 N           2.3157   -0.9226   -1.9376 N.ar    1  UNL1       -0.0781
     24 O           1.4484   -0.0839   -2.3513 O.2     1  UNL1       -0.3587
     25 N          -1.1123    2.8460    0.4335 N.3     1  UNL1       -0.2988
     26 C          -0.7888    3.9045    1.3323 C.3     1  UNL1       -0.0122
     27 C          -1.6926   -1.6563   -1.3722 C.ar    1  UNL1       -0.0580
     28 C          -1.7188   -2.8731   -0.7288 C.ar    1  UNL1       -0.0586
     29 H          -2.8575   -4.6292    1.3107 H       1  UNL1        0.0278
     30 H          -1.0889   -4.9739    0.8874 H       1  UNL1        0.0278
     31 H          -1.5628   -4.0617    2.4161 H       1  UNL1        0.0278
     32 H          -1.8454   -1.8295    2.4228 H       1  UNL1        0.0620
     33 H          -1.8016    0.3122    1.3098 H       1  UNL1        0.0620
     34 H          -1.9252    0.5811   -2.4707 H       1  UNL1        0.0357
     35 H          -3.4902    1.3098   -0.2448 H       1  UNL1        0.0286
     36 H          -3.4331    2.0935   -1.8225 H       1  UNL1        0.0286
     37 H          -3.0533    3.6410    0.1526 H       1  UNL1        0.0463
     38 H          -1.8767    3.4177   -2.5327 H       1  UNL1        0.0281
     39 H          -2.1896    4.9543   -1.5864 H       1  UNL1        0.0281
     40 H          -0.0546    4.8234   -0.6295 H       1  UNL1        0.0281
     41 H           0.3218    4.0027   -2.2467 H       1  UNL1        0.0281
     42 H           0.9082    2.6314   -0.0600 H       1  UNL1        0.0470
     43 H          -0.2420    1.9216   -2.5127 H       1  UNL1        0.0401
     44 H           1.0034    0.1126    0.8145 H       1  UNL1        0.0674
     45 H           4.1716   -2.7039   -1.2472 H       1  UNL1        0.0625
     46 H           5.5695   -4.1180    0.2807 H       1  UNL1        0.0632
     47 H           3.4991   -2.4220    3.5814 H       1  UNL1        0.0632
     48 H           2.1388   -1.0428    2.0486 H       1  UNL1        0.0625
     49 H          -1.3277    4.8394    1.0415 H       1  UNL1        0.0391
     50 H          -1.2074    3.6341    2.3394 H       1  UNL1        0.0391
     51 H           0.2867    4.0744    1.4658 H       1  UNL1        0.0391
     52 H          -1.6485   -1.6021   -2.4662 H       1  UNL1        0.0620
     53 H          -1.6968   -3.7916   -1.2819 H       1  UNL1        0.0620
@<TRIPOS>BOND
     1     1     2    1
     2     2     3   ar
     3     3     4   ar
     4     4     5   ar
     5     5     6    1
     6     6     7    1
     7     7     8    1
     8     8     9    1
     9     9    10    1
    10    10    11    1
    11    11    12    1
    12    12    13    1
    13    13    14   ar
    14    14    15   ar
    15    15    16    1
    16    16    17   ar
    17    17    18   ar
    18    18    19   ar
    19    19    20    1
    20    19    21   ar
    21    21    22   ar
    22    15    23   ar
    23    23    24   ar
    24    11    25    1
    25    25    26    1
    26     5    27   ar
    27    27    28   ar
    28    28     2   ar
    29    12     6    1
    30    24    13   ar
    31    25     8    1
    32    22    16   ar
    33     1    29    1
    34     1    30    1
    35     1    31    1
    36     3    32    1
    37     4    33    1
    38     6    34    1
    39     7    35    1
    40     7    36    1
    41     8    37    1
    42     9    38    1
    43     9    39    1
    44    10    40    1
    45    10    41    1
    46    11    42    1
    47    12    43    1
    48    14    44    1
    49    17    45    1
    50    18    46    1
    51    21    47    1
    52    22    48    1
    53    26    49    1
    54    26    50    1
    55    26    51    1
    56    27    52    1
    57    28    53    1
