@<TRIPOS>MOLECULE
*****
 43 46 0 0 0
SMALL
GASTEIGER

@<TRIPOS>ATOM
      1 N           9.3330   -2.0876    1.2912 N.1     1  UNL1       -0.1908
      2 C           8.2648   -1.8988    1.1196 C.1     1  UNL1        0.1007
      3 C           6.8367   -1.6234    0.8905 C.ar    1  UNL1        0.0712
      4 C           5.9056   -2.0270    1.8156 C.ar    1  UNL1        0.0459
      5 N           4.6096   -1.6594    1.6938 N.ar    1  UNL1       -0.2476
      6 C           4.2130   -0.8754    0.6317 C.ar    1  UNL1        0.1439
      7 C           2.8414   -0.3412    0.5916 C.2     1  UNL1        0.2680
      8 O           2.3167    0.0228    1.6558 O.2     1  UNL1       -0.2681
      9 N           2.0801   -0.2140   -0.6078 N.am    1  UNL1       -0.2802
     10 C           0.7904    0.3484   -0.7266 C.ar    1  UNL1        0.0342
     11 C           0.8346    1.6930   -1.2606 C.ar    1  UNL1       -0.0377
     12 C          -0.2847    2.3732   -1.4138 C.ar    1  UNL1       -0.0243
     13 C          -1.5284    1.7962   -1.0603 C.ar    1  UNL1        0.1291
     14 F          -2.5821    2.6092   -1.2701 F       1  UNL1       -0.2051
     15 C          -1.5703    0.5243   -0.5525 C.ar    1  UNL1        0.0198
     16 C          -2.8836   -0.0532   -0.1914 C.3     1  UNL1        0.1284
     17 C          -2.6750   -1.4256    0.5101 C.3     1  UNL1        0.1199
     18 F          -1.9403   -1.1884    1.6409 F       1  UNL1       -0.2462
     19 N          -3.5202    0.7492    0.8141 N.2     1  UNL1       -0.2225
     20 C          -4.5516    1.5218    0.6022 C.2     1  UNL1        0.2763
     21 N          -5.0624    2.2598    1.7327 N.pl3   1  UNL1       -0.3134
     22 O          -5.0919    1.5885   -0.6529 O.2     1  UNL1       -0.4622
     23 C          -4.8421    0.6059   -1.6628 C.3     1  UNL1        0.1090
     24 C          -5.1251   -0.7914   -1.2383 C.3     1  UNL1       -0.0065
     25 C          -3.7296   -0.2782   -1.4210 C.3     1  UNL1        0.0315
     26 C          -0.3875   -0.1992   -0.3892 C.ar    1  UNL1       -0.0322
     27 C           5.1616   -0.5212   -0.2343 C.ar    1  UNL1        0.0726
     28 CL          4.6746    0.5462   -1.6210 Cl      1  UNL1       -0.0811
     29 C           6.4858   -0.8299   -0.2111 C.ar    1  UNL1       -0.0223
     30 H           6.2515   -2.6615    2.6516 H       1  UNL1        0.0843
     31 H           2.5444   -0.6224   -1.4891 H       1  UNL1        0.1552
     32 H           1.8259    2.1055   -1.5130 H       1  UNL1        0.0637
     33 H          -0.2820    3.3952   -1.8290 H       1  UNL1        0.0647
     34 H          -3.6820   -1.8000    0.8390 H       1  UNL1        0.0643
     35 H          -2.2142   -2.1568   -0.1322 H       1  UNL1        0.0643
     36 H          -4.8223    1.9389    2.6970 H       1  UNL1        0.1466
     37 H          -5.6498    3.0842    1.5946 H       1  UNL1        0.1466
     38 H          -5.0513    0.9823   -2.6661 H       1  UNL1        0.0737
     39 H          -5.5482   -1.4852   -1.9772 H       1  UNL1        0.0306
     40 H          -5.4994   -0.9589   -0.2020 H       1  UNL1        0.0306
     41 H          -3.1949   -0.7195   -2.2746 H       1  UNL1        0.0365
     42 H          -0.4765   -1.1985   -0.0021 H       1  UNL1        0.0640
     43 H           7.2257   -0.5278   -0.9541 H       1  UNL1        0.0646
@<TRIPOS>BOND
     1     1     2    3
     2     2     3    1
     3     3     4   ar
     4     4     5   ar
     5     5     6   ar
     6     6     7    1
     7     7     8    2
     8     7     9   am
     9     9    10    1
    10    10    11   ar
    11    11    12   ar
    12    12    13   ar
    13    13    14    1
    14    13    15   ar
    15    15    16    1
    16    16    17    1
    17    17    18    1
    18    16    19    1
    19    19    20    2
    20    20    21    1
    21    20    22    1
    22    22    23    1
    23    23    24    1
    24    24    25    1
    25    15    26   ar
    26     6    27   ar
    27    27    28    1
    28    27    29   ar
    29    29     3   ar
    30    26    10   ar
    31    25    16    1
    32    25    23    1
    33     4    30    1
    34     9    31    1
    35    11    32    1
    36    12    33    1
    37    17    34    1
    38    17    35    1
    39    21    36    1
    40    21    37    1
    41    23    38    1
    42    24    39    1
    43    24    40    1
    44    25    41    1
    45    26    42    1
    46    29    43    1
