
     RDKit          3D

 43 46  0  0  0  0  0  0  0  0999 V2000
    9.3330   -2.0876    1.2912 N   0  0  0  0  0  0  0  0  0  0  0  0
    8.2648   -1.8988    1.1196 C   0  0  0  0  0  0  0  0  0  0  0  0
    6.8367   -1.6234    0.8905 C   0  0  0  0  0  0  0  0  0  0  0  0
    5.9056   -2.0270    1.8156 C   0  0  0  0  0  0  0  0  0  0  0  0
    4.6096   -1.6594    1.6938 N   0  0  0  0  0  0  0  0  0  0  0  0
    4.2130   -0.8754    0.6317 C   0  0  0  0  0  0  0  0  0  0  0  0
    2.8414   -0.3412    0.5916 C   0  0  0  0  0  0  0  0  0  0  0  0
    2.3167    0.0228    1.6558 O   0  0  0  0  0  0  0  0  0  0  0  0
    2.0801   -0.2140   -0.6078 N   0  0  0  0  0  0  0  0  0  0  0  0
    0.7904    0.3484   -0.7266 C   0  0  0  0  0  0  0  0  0  0  0  0
    0.8346    1.6930   -1.2606 C   0  0  0  0  0  0  0  0  0  0  0  0
   -0.2847    2.3732   -1.4138 C   0  0  0  0  0  0  0  0  0  0  0  0
   -1.5284    1.7962   -1.0603 C   0  0  0  0  0  0  0  0  0  0  0  0
   -2.5821    2.6092   -1.2701 F   0  0  0  0  0  0  0  0  0  0  0  0
   -1.5703    0.5243   -0.5525 C   0  0  0  0  0  0  0  0  0  0  0  0
   -2.8836   -0.0532   -0.1914 C   0  0  1  0  0  0  0  0  0  0  0  0
   -2.6750   -1.4256    0.5101 C   0  0  0  0  0  0  0  0  0  0  0  0
   -1.9403   -1.1884    1.6409 F   0  0  0  0  0  0  0  0  0  0  0  0
   -3.5202    0.7492    0.8141 N   0  0  0  0  0  0  0  0  0  0  0  0
   -4.5516    1.5218    0.6022 C   0  0  0  0  0  0  0  0  0  0  0  0
   -5.0624    2.2598    1.7327 N   0  0  0  0  0  0  0  0  0  0  0  0
   -5.0919    1.5885   -0.6529 O   0  0  0  0  0  0  0  0  0  0  0  0
   -4.8421    0.6059   -1.6628 C   0  0  2  0  0  0  0  0  0  0  0  0
   -5.1251   -0.7914   -1.2383 C   0  0  0  0  0  0  0  0  0  0  0  0
   -3.7296   -0.2782   -1.4210 C   0  0  2  0  0  0  0  0  0  0  0  0
   -0.3875   -0.1992   -0.3892 C   0  0  0  0  0  0  0  0  0  0  0  0
    5.1616   -0.5212   -0.2343 C   0  0  0  0  0  0  0  0  0  0  0  0
    4.6746    0.5462   -1.6210 Cl  0  0  0  0  0  0  0  0  0  0  0  0
    6.4858   -0.8299   -0.2111 C   0  0  0  0  0  0  0  0  0  0  0  0
    6.2515   -2.6615    2.6516 H   0  0  0  0  0  0  0  0  0  0  0  0
    2.5444   -0.6224   -1.4891 H   0  0  0  0  0  0  0  0  0  0  0  0
    1.8259    2.1055   -1.5130 H   0  0  0  0  0  0  0  0  0  0  0  0
   -0.2820    3.3952   -1.8290 H   0  0  0  0  0  0  0  0  0  0  0  0
   -3.6820   -1.8000    0.8390 H   0  0  0  0  0  0  0  0  0  0  0  0
   -2.2142   -2.1568   -0.1322 H   0  0  0  0  0  0  0  0  0  0  0  0
   -4.8223    1.9389    2.6970 H   0  0  0  0  0  0  0  0  0  0  0  0
   -5.6498    3.0842    1.5946 H   0  0  0  0  0  0  0  0  0  0  0  0
   -5.0513    0.9823   -2.6661 H   0  0  0  0  0  0  0  0  0  0  0  0
   -5.5482   -1.4852   -1.9772 H   0  0  0  0  0  0  0  0  0  0  0  0
   -5.4994   -0.9589   -0.2020 H   0  0  0  0  0  0  0  0  0  0  0  0
   -3.1949   -0.7195   -2.2746 H   0  0  0  0  0  0  0  0  0  0  0  0
   -0.4765   -1.1985   -0.0021 H   0  0  0  0  0  0  0  0  0  0  0  0
    7.2257   -0.5278   -0.9541 H   0  0  0  0  0  0  0  0  0  0  0  0
  1  2  3  0
  2  3  1  0
  3  4  2  0
  4  5  1  0
  5  6  2  0
  6  7  1  0
  7  8  2  0
  7  9  1  0
  9 10  1  0
 10 11  2  0
 11 12  1  0
 12 13  2  0
 13 14  1  0
 13 15  1  0
 15 16  1  0
 16 17  1  1
 17 18  1  0
 16 19  1  0
 19 20  2  0
 20 21  1  0
 20 22  1  0
 22 23  1  0
 23 24  1  0
 24 25  1  0
 15 26  2  0
  6 27  1  0
 27 28  1  0
 27 29  2  0
 29  3  1  0
 26 10  1  0
 25 16  1  0
 25 23  1  0
  4 30  1  0
  9 31  1  0
 11 32  1  0
 12 33  1  0
 17 34  1  0
 17 35  1  0
 21 36  1  0
 21 37  1  0
 23 38  1  6
 24 39  1  0
 24 40  1  0
 25 41  1  6
 26 42  1  0
 29 43  1  0
M  END
$$$$
