@<TRIPOS>MOLECULE
*****
 62 66 0 0 0
SMALL
GASTEIGER

@<TRIPOS>ATOM
      1 C          10.6079    1.4845   -0.1488 C.2     1  UNL1       -0.0938
      2 C          10.2656    0.4236    0.5432 C.2     1  UNL1       -0.0066
      3 C           8.9293   -0.1483    0.5164 C.2     1  UNL1        0.2416
      4 O           8.7617   -1.1735    1.2419 O.2     1  UNL1       -0.2705
      5 N           7.9196    0.4027   -0.2553 N.am    1  UNL1       -0.2669
      6 C           6.6001   -0.0817   -0.3433 C.ar    1  UNL1        0.1252
      7 C           6.1193   -1.1751    0.3256 C.ar    1  UNL1       -0.0197
      8 C           4.7855   -1.5691    0.1635 C.ar    1  UNL1       -0.0306
      9 C           3.9087   -0.8981   -0.6539 C.ar    1  UNL1        0.1236
     10 S           2.2779   -1.3984   -0.8377 S.O2    1  UNL1        0.0624
     11 O           1.8039   -1.1322   -2.2610 O.2     1  UNL1       -0.1528
     12 O           2.2346   -2.9140   -0.6951 O.2     1  UNL1       -0.1528
     13 N           1.1740   -0.7370    0.2291 N.3     1  UNL1       -0.1735
     14 C           1.0067    0.6705    0.2035 C.3     1  UNL1        0.0363
     15 C          -0.0328    0.9814   -0.8516 C.3     1  UNL1        0.0291
     16 N          -1.2830    0.2432   -0.5366 N.am    1  UNL1       -0.2985
     17 C          -2.4606    0.9989   -0.4721 C.2     1  UNL1        0.2218
     18 O          -2.3233    2.2618   -0.6881 O.2     1  UNL1       -0.2750
     19 C          -3.8269    0.5470   -0.1928 C.3     1  UNL1        0.0479
     20 C          -4.3747   -0.4664   -1.1481 C.3     1  UNL1       -0.0362
     21 C          -5.7633   -0.8623   -0.6882 C.3     1  UNL1       -0.0396
     22 C          -6.7117    0.3369   -0.8141 C.3     1  UNL1       -0.0473
     23 C          -6.1577    1.4558    0.0096 C.3     1  UNL1       -0.0396
     24 C          -6.2134    1.0802    1.4784 C.3     1  UNL1       -0.0473
     25 C          -5.3889   -0.1531    1.6470 C.3     1  UNL1       -0.0396
     26 C          -5.8044   -1.2902    0.7505 C.3     1  UNL1       -0.0473
     27 C          -3.9478    0.1954    1.2558 C.3     1  UNL1       -0.0362
     28 C          -4.7539    1.7784   -0.3766 C.3     1  UNL1       -0.0362
     29 C          -1.1153   -1.1616   -0.3401 C.3     1  UNL1        0.0291
     30 C           0.0565   -1.5017    0.5965 C.3     1  UNL1        0.0363
     31 C           4.4343    0.1967   -1.3081 C.ar    1  UNL1        0.0560
     32 N           5.7074    0.5785   -1.1578 N.ar    1  UNL1       -0.2382
     33 H           9.9351    2.0227   -0.7937 H       1  UNL1        0.0536
     34 H          11.6372    1.8770   -0.0915 H       1  UNL1        0.0536
     35 H          11.0667   -0.0219    1.1619 H       1  UNL1        0.0663
     36 H           8.1271    1.2683   -0.8449 H       1  UNL1        0.1565
     37 H           6.7514   -1.7543    0.9877 H       1  UNL1        0.0652
     38 H           4.4370   -2.4401    0.7082 H       1  UNL1        0.0639
     39 H           0.6447    1.1076    1.1562 H       1  UNL1        0.0459
     40 H           1.9558    1.1325   -0.1363 H       1  UNL1        0.0459
     41 H           0.3600    0.6537   -1.8279 H       1  UNL1        0.0478
     42 H          -0.1906    2.0591   -0.8593 H       1  UNL1        0.0478
     43 H          -3.7962   -1.3650   -1.3077 H       1  UNL1        0.0278
     44 H          -4.5578    0.1001   -2.1151 H       1  UNL1        0.0278
     45 H          -6.1082   -1.7086   -1.3014 H       1  UNL1        0.0301
     46 H          -7.6588   -0.0019   -0.3009 H       1  UNL1        0.0271
     47 H          -6.8846    0.6159   -1.8585 H       1  UNL1        0.0271
     48 H          -6.7558    2.3733   -0.1222 H       1  UNL1        0.0301
     49 H          -7.2349    0.9388    1.8497 H       1  UNL1        0.0271
     50 H          -5.7325    1.8948    2.0469 H       1  UNL1        0.0271
     51 H          -5.3331   -0.5225    2.6892 H       1  UNL1        0.0301
     52 H          -5.0669   -2.1079    0.9046 H       1  UNL1        0.0271
     53 H          -6.8270   -1.5797    0.9923 H       1  UNL1        0.0271
     54 H          -3.6173    1.1109    1.8234 H       1  UNL1        0.0278
     55 H          -3.3376   -0.6179    1.6235 H       1  UNL1        0.0278
     56 H          -4.7501    1.9635   -1.4854 H       1  UNL1        0.0278
     57 H          -4.3501    2.6541    0.1307 H       1  UNL1        0.0278
     58 H          -1.9683   -1.7041    0.0847 H       1  UNL1        0.0478
     59 H          -0.9228   -1.6726   -1.3313 H       1  UNL1        0.0478
     60 H          -0.2988   -1.4072    1.6261 H       1  UNL1        0.0459
     61 H           0.2758   -2.5820    0.3999 H       1  UNL1        0.0459
     62 H           3.7657    0.7405   -1.9559 H       1  UNL1        0.0850
@<TRIPOS>BOND
     1     1     2    2
     2     2     3    1
     3     3     4    2
     4     3     5   am
     5     5     6    1
     6     6     7   ar
     7     7     8   ar
     8     8     9   ar
     9     9    10    1
    10    10    11    2
    11    10    12    2
    12    10    13    1
    13    13    14    1
    14    14    15    1
    15    15    16    1
    16    16    17   am
    17    17    18    2
    18    17    19    1
    19    19    20    1
    20    20    21    1
    21    21    22    1
    22    22    23    1
    23    23    24    1
    24    24    25    1
    25    25    26    1
    26    25    27    1
    27    23    28    1
    28    16    29    1
    29    29    30    1
    30     9    31   ar
    31    31    32   ar
    32    32     6   ar
    33    30    13    1
    34    27    19    1
    35    28    19    1
    36    26    21    1
    37     1    33    1
    38     1    34    1
    39     2    35    1
    40     5    36    1
    41     7    37    1
    42     8    38    1
    43    14    39    1
    44    14    40    1
    45    15    41    1
    46    15    42    1
    47    20    43    1
    48    20    44    1
    49    21    45    1
    50    22    46    1
    51    22    47    1
    52    23    48    1
    53    24    49    1
    54    24    50    1
    55    25    51    1
    56    26    52    1
    57    26    53    1
    58    27    54    1
    59    27    55    1
    60    28    56    1
    61    28    57    1
    62    29    58    1
    63    29    59    1
    64    30    60    1
    65    30    61    1
    66    31    62    1
