
     RDKit          3D

 62 66  0  0  0  0  0  0  0  0999 V2000
   10.6079    1.4845   -0.1488 C   0  0  0  0  0  0  0  0  0  0  0  0
   10.2656    0.4236    0.5432 C   0  0  0  0  0  0  0  0  0  0  0  0
    8.9293   -0.1483    0.5164 C   0  0  0  0  0  0  0  0  0  0  0  0
    8.7617   -1.1735    1.2419 O   0  0  0  0  0  0  0  0  0  0  0  0
    7.9196    0.4027   -0.2553 N   0  0  0  0  0  0  0  0  0  0  0  0
    6.6001   -0.0817   -0.3433 C   0  0  0  0  0  0  0  0  0  0  0  0
    6.1193   -1.1751    0.3256 C   0  0  0  0  0  0  0  0  0  0  0  0
    4.7855   -1.5691    0.1635 C   0  0  0  0  0  0  0  0  0  0  0  0
    3.9087   -0.8981   -0.6539 C   0  0  0  0  0  0  0  0  0  0  0  0
    2.2779   -1.3984   -0.8377 S   0  0  0  0  0  6  0  0  0  0  0  0
    1.8039   -1.1322   -2.2610 O   0  0  0  0  0  0  0  0  0  0  0  0
    2.2346   -2.9140   -0.6951 O   0  0  0  0  0  0  0  0  0  0  0  0
    1.1740   -0.7370    0.2291 N   0  0  0  0  0  0  0  0  0  0  0  0
    1.0067    0.6705    0.2035 C   0  0  0  0  0  0  0  0  0  0  0  0
   -0.0328    0.9814   -0.8516 C   0  0  0  0  0  0  0  0  0  0  0  0
   -1.2830    0.2432   -0.5366 N   0  0  0  0  0  0  0  0  0  0  0  0
   -2.4606    0.9989   -0.4721 C   0  0  0  0  0  0  0  0  0  0  0  0
   -2.3233    2.2618   -0.6881 O   0  0  0  0  0  0  0  0  0  0  0  0
   -3.8269    0.5470   -0.1928 C   0  0  0  0  0  0  0  0  0  0  0  0
   -4.3747   -0.4664   -1.1481 C   0  0  0  0  0  0  0  0  0  0  0  0
   -5.7633   -0.8623   -0.6882 C   0  0  0  0  0  0  0  0  0  0  0  0
   -6.7117    0.3369   -0.8141 C   0  0  0  0  0  0  0  0  0  0  0  0
   -6.1577    1.4558    0.0096 C   0  0  0  0  0  0  0  0  0  0  0  0
   -6.2134    1.0802    1.4784 C   0  0  0  0  0  0  0  0  0  0  0  0
   -5.3889   -0.1531    1.6470 C   0  0  0  0  0  0  0  0  0  0  0  0
   -5.8044   -1.2902    0.7505 C   0  0  0  0  0  0  0  0  0  0  0  0
   -3.9478    0.1954    1.2558 C   0  0  0  0  0  0  0  0  0  0  0  0
   -4.7539    1.7784   -0.3766 C   0  0  0  0  0  0  0  0  0  0  0  0
   -1.1153   -1.1616   -0.3401 C   0  0  0  0  0  0  0  0  0  0  0  0
    0.0565   -1.5017    0.5965 C   0  0  0  0  0  0  0  0  0  0  0  0
    4.4343    0.1967   -1.3081 C   0  0  0  0  0  0  0  0  0  0  0  0
    5.7074    0.5785   -1.1578 N   0  0  0  0  0  0  0  0  0  0  0  0
    9.9351    2.0227   -0.7937 H   0  0  0  0  0  0  0  0  0  0  0  0
   11.6372    1.8770   -0.0915 H   0  0  0  0  0  0  0  0  0  0  0  0
   11.0667   -0.0219    1.1619 H   0  0  0  0  0  0  0  0  0  0  0  0
    8.1271    1.2683   -0.8449 H   0  0  0  0  0  0  0  0  0  0  0  0
    6.7514   -1.7543    0.9877 H   0  0  0  0  0  0  0  0  0  0  0  0
    4.4370   -2.4401    0.7082 H   0  0  0  0  0  0  0  0  0  0  0  0
    0.6447    1.1076    1.1562 H   0  0  0  0  0  0  0  0  0  0  0  0
    1.9558    1.1325   -0.1363 H   0  0  0  0  0  0  0  0  0  0  0  0
    0.3600    0.6537   -1.8279 H   0  0  0  0  0  0  0  0  0  0  0  0
   -0.1906    2.0591   -0.8593 H   0  0  0  0  0  0  0  0  0  0  0  0
   -3.7962   -1.3650   -1.3077 H   0  0  0  0  0  0  0  0  0  0  0  0
   -4.5578    0.1001   -2.1151 H   0  0  0  0  0  0  0  0  0  0  0  0
   -6.1082   -1.7086   -1.3014 H   0  0  0  0  0  0  0  0  0  0  0  0
   -7.6588   -0.0019   -0.3009 H   0  0  0  0  0  0  0  0  0  0  0  0
   -6.8846    0.6159   -1.8585 H   0  0  0  0  0  0  0  0  0  0  0  0
   -6.7558    2.3733   -0.1222 H   0  0  0  0  0  0  0  0  0  0  0  0
   -7.2349    0.9388    1.8497 H   0  0  0  0  0  0  0  0  0  0  0  0
   -5.7325    1.8948    2.0469 H   0  0  0  0  0  0  0  0  0  0  0  0
   -5.3331   -0.5225    2.6892 H   0  0  0  0  0  0  0  0  0  0  0  0
   -5.0669   -2.1079    0.9046 H   0  0  0  0  0  0  0  0  0  0  0  0
   -6.8270   -1.5797    0.9923 H   0  0  0  0  0  0  0  0  0  0  0  0
   -3.6173    1.1109    1.8234 H   0  0  0  0  0  0  0  0  0  0  0  0
   -3.3376   -0.6179    1.6235 H   0  0  0  0  0  0  0  0  0  0  0  0
   -4.7501    1.9635   -1.4854 H   0  0  0  0  0  0  0  0  0  0  0  0
   -4.3501    2.6541    0.1307 H   0  0  0  0  0  0  0  0  0  0  0  0
   -1.9683   -1.7041    0.0847 H   0  0  0  0  0  0  0  0  0  0  0  0
   -0.9228   -1.6726   -1.3313 H   0  0  0  0  0  0  0  0  0  0  0  0
   -0.2988   -1.4072    1.6261 H   0  0  0  0  0  0  0  0  0  0  0  0
    0.2758   -2.5820    0.3999 H   0  0  0  0  0  0  0  0  0  0  0  0
    3.7657    0.7405   -1.9559 H   0  0  0  0  0  0  0  0  0  0  0  0
  1  2  2  3
  2  3  1  0
  3  4  2  0
  3  5  1  0
  5  6  1  0
  6  7  2  0
  7  8  1  0
  8  9  2  0
  9 10  1  0
 10 11  2  0
 10 12  2  0
 10 13  1  0
 13 14  1  0
 14 15  1  0
 15 16  1  0
 16 17  1  0
 17 18  2  0
 17 19  1  0
 19 20  1  0
 20 21  1  0
 21 22  1  0
 22 23  1  0
 23 24  1  0
 24 25  1  0
 25 26  1  0
 25 27  1  0
 23 28  1  0
 16 29  1  0
 29 30  1  0
  9 31  1  0
 31 32  2  0
 32  6  1  0
 30 13  1  0
 27 19  1  0
 28 19  1  0
 26 21  1  0
  1 33  1  0
  1 34  1  0
  2 35  1  0
  5 36  1  0
  7 37  1  0
  8 38  1  0
 14 39  1  0
 14 40  1  0
 15 41  1  0
 15 42  1  0
 20 43  1  0
 20 44  1  0
 21 45  1  0
 22 46  1  0
 22 47  1  0
 23 48  1  0
 24 49  1  0
 24 50  1  0
 25 51  1  0
 26 52  1  0
 26 53  1  0
 27 54  1  0
 27 55  1  0
 28 56  1  0
 28 57  1  0
 29 58  1  0
 29 59  1  0
 30 60  1  0
 30 61  1  0
 31 62  1  0
M  END
$$$$
