@<TRIPOS>MOLECULE
*****
 58 62 0 0 0
SMALL
GASTEIGER

@<TRIPOS>ATOM
      1 O           2.8290   -4.2372   -0.0403 O.2     1  UNL1       -0.2817
      2 C           3.0933   -3.0465   -0.3003 C.2     1  UNL1        0.2496
      3 C           4.2446   -2.5899   -1.0523 C.2     1  UNL1        0.2915
      4 O           5.1418   -3.3377   -1.5497 O.2     1  UNL1       -0.2661
      5 N           4.1780   -1.1854   -1.1237 N.am    1  UNL1       -0.2598
      6 C           5.1172   -0.2990   -1.7822 C.3     1  UNL1        0.0452
      7 C           6.1838    0.0471   -0.7944 C.ar    1  UNL1       -0.0297
      8 C           6.1168    1.1267    0.0382 C.ar    1  UNL1       -0.0571
      9 C           7.1192    1.4213    0.9435 C.ar    1  UNL1       -0.0615
     10 C           8.2410    0.6333    1.0485 C.ar    1  UNL1       -0.0617
     11 C           8.3193   -0.4643    0.2087 C.ar    1  UNL1       -0.0615
     12 C           7.3283   -0.7512   -0.6828 C.ar    1  UNL1       -0.0571
     13 C           2.9950   -0.7455   -0.4243 C.ar    1  UNL1        0.0481
     14 C           2.4691    0.5150   -0.2007 C.ar    1  UNL1       -0.0377
     15 C           1.3031    0.6988    0.5075 C.ar    1  UNL1       -0.0335
     16 C           0.6383   -0.4005    1.0092 C.ar    1  UNL1        0.1063
     17 S          -0.8352   -0.2466    1.9174 S.O2    1  UNL1        0.0612
     18 O          -0.9007   -1.3305    2.9515 O.2     1  UNL1       -0.1528
     19 O          -0.7336    1.0610    2.6916 O.2     1  UNL1       -0.1528
     20 N          -2.2494   -0.2127    0.9841 N.3     1  UNL1       -0.1703
     21 C          -2.3768   -1.4496    0.2540 C.3     1  UNL1        0.0210
     22 C          -2.7437   -1.0860   -1.1720 C.3     1  UNL1       -0.0370
     23 C          -2.3141    0.3575   -1.3387 C.3     1  UNL1       -0.0313
     24 C          -2.3451    0.8616    0.0647 C.3     1  UNL1        0.0659
     25 C          -3.7203    1.5135    0.2691 C.3     1  UNL1        0.1067
     26 O          -4.7441    0.5786    0.0316 O.3     1  UNL1       -0.4904
     27 C          -6.0903    0.8826    0.1400 C.ar    1  UNL1        0.1206
     28 C          -6.5357    2.1480    0.4956 C.ar    1  UNL1       -0.0199
     29 C          -7.8836    2.4216    0.5958 C.ar    1  UNL1       -0.0583
     30 C          -8.8424    1.4612    0.3501 C.ar    1  UNL1       -0.0615
     31 C          -8.4030    0.2027   -0.0035 C.ar    1  UNL1       -0.0583
     32 C          -7.0553   -0.0713   -0.1038 C.ar    1  UNL1       -0.0199
     33 C           1.1566   -1.6575    0.7899 C.ar    1  UNL1       -0.0226
     34 C           2.3411   -1.8603    0.0716 C.ar    1  UNL1        0.0502
     35 H           4.6533    0.6215   -2.1518 H       1  UNL1        0.0518
     36 H           5.6027   -0.8905   -2.6041 H       1  UNL1        0.0518
     37 H           5.2552    1.7875    0.0011 H       1  UNL1        0.0621
     38 H           7.0612    2.2761    1.5997 H       1  UNL1        0.0618
     39 H           9.0417    0.8392    1.7477 H       1  UNL1        0.0618
     40 H           9.2071   -1.0959    0.2852 H       1  UNL1        0.0618
     41 H           7.4352   -1.6136   -1.3126 H       1  UNL1        0.0621
     42 H           2.9795    1.3872   -0.5909 H       1  UNL1        0.0637
     43 H           0.8948    1.7095    0.6786 H       1  UNL1        0.0638
     44 H          -3.1680   -2.1061    0.6717 H       1  UNL1        0.0444
     45 H          -1.4267   -2.0164    0.1893 H       1  UNL1        0.0444
     46 H          -3.8384   -1.2129   -1.3009 H       1  UNL1        0.0279
     47 H          -2.1851   -1.6796   -1.9207 H       1  UNL1        0.0279
     48 H          -2.9994    0.8887   -2.0177 H       1  UNL1        0.0282
     49 H          -1.2890    0.4378   -1.7677 H       1  UNL1        0.0282
     50 H          -1.5442    1.6219    0.1627 H       1  UNL1        0.0513
     51 H          -3.8218    2.4059   -0.3686 H       1  UNL1        0.0713
     52 H          -3.7975    1.8379    1.3259 H       1  UNL1        0.0713
     53 H          -5.7783    2.9081    0.6902 H       1  UNL1        0.0654
     54 H          -8.2339    3.4148    0.8749 H       1  UNL1        0.0619
     55 H          -9.9045    1.6869    0.4318 H       1  UNL1        0.0618
     56 H          -9.1580   -0.5432   -0.1942 H       1  UNL1        0.0619
     57 H          -6.7107   -1.0677   -0.3838 H       1  UNL1        0.0654
     58 H           0.6824   -2.5559    1.1603 H       1  UNL1        0.0645
@<TRIPOS>BOND
     1     1     2    2
     2     2     3    1
     3     3     4    2
     4     3     5   am
     5     5     6    1
     6     6     7    1
     7     7     8   ar
     8     8     9   ar
     9     9    10   ar
    10    10    11   ar
    11    11    12   ar
    12     5    13    1
    13    13    14   ar
    14    14    15   ar
    15    15    16   ar
    16    16    17    1
    17    17    18    2
    18    17    19    2
    19    17    20    1
    20    20    21    1
    21    21    22    1
    22    22    23    1
    23    23    24    1
    24    24    25    1
    25    25    26    1
    26    26    27    1
    27    27    28   ar
    28    28    29   ar
    29    29    30   ar
    30    30    31   ar
    31    31    32   ar
    32    16    33   ar
    33    33    34   ar
    34    34     2    1
    35    12     7   ar
    36    34    13   ar
    37    24    20    1
    38    32    27   ar
    39     6    35    1
    40     6    36    1
    41     8    37    1
    42     9    38    1
    43    10    39    1
    44    11    40    1
    45    12    41    1
    46    14    42    1
    47    15    43    1
    48    21    44    1
    49    21    45    1
    50    22    46    1
    51    22    47    1
    52    23    48    1
    53    23    49    1
    54    24    50    1
    55    25    51    1
    56    25    52    1
    57    28    53    1
    58    29    54    1
    59    30    55    1
    60    31    56    1
    61    32    57    1
    62    33    58    1
