@<TRIPOS>MOLECULE
*****
 38 39 0 0 0
SMALL
GASTEIGER

@<TRIPOS>ATOM
      1 C          -5.3675    2.1883    0.3936 C.3     1  UNL1       -0.0650
      2 C          -3.9742    1.6783    0.6910 C.3     1  UNL1       -0.0519
      3 C          -3.3505    1.0520   -0.5278 C.3     1  UNL1       -0.0279
      4 C          -1.9846    0.5552   -0.2292 C.ar    1  UNL1       -0.0464
      5 C          -0.8705    1.3350   -0.4202 C.ar    1  UNL1       -0.0494
      6 C           0.3841    0.7972   -0.1107 C.ar    1  UNL1        0.0005
      7 C           0.5507   -0.4833    0.3782 C.ar    1  UNL1        0.0504
      8 N           1.8805   -0.6936    0.5735 N.ar    1  UNL1       -0.3573
      9 C           2.5950    0.3873    0.2356 C.ar    1  UNL1        0.0258
     10 C           4.0483    0.6870    0.2537 C.3     1  UNL1        0.0640
     11 C           4.7438    0.3142   -0.9957 C.2     1  UNL1        0.2162
     12 N           6.1415    0.6485   -0.8601 N.am    1  UNL1       -0.3290
     13 O           5.0096   -0.1034   -2.1452 O.2     1  UNL1       -0.2756
     14 C           1.6729    1.3317   -0.1955 C.ar    1  UNL1       -0.0329
     15 C          -0.5554   -1.2883    0.5796 C.ar    1  UNL1       -0.0126
     16 C          -0.4015   -2.6566    1.0990 C.3     1  UNL1        0.0718
     17 C           0.0699   -3.6054    0.0775 C.2     1  UNL1        0.3091
     18 O           0.3685   -4.9520    0.0292 O.3     1  UNL1       -0.4804
     19 O           0.3037   -3.2162   -1.1182 O.2     1  UNL1       -0.2507
     20 C          -1.7902   -0.7334    0.2655 C.ar    1  UNL1       -0.0529
     21 H          -5.9970    1.3753   -0.0367 H       1  UNL1        0.0230
     22 H          -5.7781    2.6180    1.3050 H       1  UNL1        0.0230
     23 H          -5.3179    3.0012   -0.3551 H       1  UNL1        0.0230
     24 H          -4.0206    0.9350    1.5349 H       1  UNL1        0.0266
     25 H          -3.3421    2.5117    1.0529 H       1  UNL1        0.0266
     26 H          -3.3047    1.8702   -1.3038 H       1  UNL1        0.0313
     27 H          -4.0049    0.2800   -0.9454 H       1  UNL1        0.0313
     28 H          -0.9704    2.3456   -0.8033 H       1  UNL1        0.0627
     29 H           2.3261   -1.5556    0.9315 H       1  UNL1        0.1656
     30 H           4.2268    1.7732    0.4327 H       1  UNL1        0.0422
     31 H           4.5480    0.1570    1.1174 H       1  UNL1        0.0422
     32 H           7.0849    0.3747   -0.4532 H       1  UNL1        0.1449
     33 H           6.8843    1.3366   -1.1105 H       1  UNL1        0.1449
     34 H           1.8355    2.3407   -0.5549 H       1  UNL1        0.0641
     35 H          -1.2865   -3.0519    1.6190 H       1  UNL1        0.0427
     36 H           0.4337   -2.5898    1.8600 H       1  UNL1        0.0427
     37 H          -0.1114   -5.6453   -0.5011 H       1  UNL1        0.2951
     38 H          -2.6800   -1.3189    0.4042 H       1  UNL1        0.0624
@<TRIPOS>BOND
     1     1     2    1
     2     2     3    1
     3     3     4    1
     4     4     5   ar
     5     5     6   ar
     6     6     7   ar
     7     7     8   ar
     8     8     9   ar
     9     9    10    1
    10    10    11    1
    11    11    12   am
    12    11    13    2
    13     9    14   ar
    14     7    15   ar
    15    15    16    1
    16    16    17    1
    17    17    18    1
    18    17    19    2
    19    15    20   ar
    20    20     4   ar
    21    14     6   ar
    22     1    21    1
    23     1    22    1
    24     1    23    1
    25     2    24    1
    26     2    25    1
    27     3    26    1
    28     3    27    1
    29     5    28    1
    30     8    29    1
    31    10    30    1
    32    10    31    1
    33    12    32    1
    34    12    33    1
    35    14    34    1
    36    16    35    1
    37    16    36    1
    38    18    37    1
    39    20    38    1
