@<TRIPOS>MOLECULE
*****
 55 57 0 0 0
SMALL
GASTEIGER

@<TRIPOS>ATOM
      1 C           1.1274   -3.7118   -1.9862 C.3     0  UNK0       -0.0585
      2 C           0.5899   -2.2490   -1.8743 C.3     0  UNK0       -0.0183
      3 C          -0.7568   -2.4264   -1.2177 C.3     0  UNK0       -0.0585
      4 C           1.5648   -1.4559   -1.1213 C.ar    0  UNK0       -0.0056
      5 C           2.9330   -1.8073   -1.2700 C.ar    0  UNK0        0.0334
      6 N           3.8787   -1.1802   -0.5692 N.ar    0  UNK0       -0.2545
      7 C           3.6245   -0.1955    0.3078 C.ar    0  UNK0        0.0755
      8 C           4.7271    0.4507    1.0484 C.ar    0  UNK0        0.0369
      9 C           4.4919    1.4475    1.9388 C.ar    0  UNK0       -0.0314
     10 C           5.5617    2.0349    2.6209 C.ar    0  UNK0        0.0418
     11 CL          5.2768    3.3358    3.7859 Cl      0  UNK0       -0.0835
     12 C           6.8604    1.6294    2.4153 C.ar    0  UNK0       -0.0406
     13 C           7.0789    0.6163    1.5076 C.ar    0  UNK0       -0.0244
     14 C           6.0273    0.0370    0.8354 C.ar    0  UNK0        0.1326
     15 F           6.2398   -0.9593   -0.0575 F       0  UNK0       -0.2048
     16 C           2.3212    0.1645    0.4709 C.ar    0  UNK0       -0.0141
     17 C           1.2831   -0.4672   -0.2479 C.ar    0  UNK0        0.0383
     18 N          -0.0587   -0.0173   -0.0194 N.pl3   0  UNK0       -0.3135
     19 C          -0.7626    0.6067   -1.0614 C.ar    0  UNK0        0.0465
     20 C          -0.0509    0.8277   -2.2660 C.ar    0  UNK0       -0.0217
     21 C          -0.7088    1.4235   -3.3096 C.ar    0  UNK0        0.0293
     22 N          -1.9948    1.7998   -3.2230 N.ar    0  UNK0       -0.2624
     23 C          -2.6595    1.5847   -2.0740 C.ar    0  UNK0        0.0415
     24 C          -2.0699    0.9798   -0.9484 C.ar    0  UNK0        0.0758
     25 C          -2.8375    0.7653    0.2523 C.2     0  UNK0        0.2476
     26 O          -2.3635    0.2026    1.2619 O.2     0  UNK0       -0.2701
     27 N          -4.2110    1.1680    0.4201 N.am    1  ALA1       -0.3065
     28 CA         -4.9470    0.9309    1.6497 C.3     1  ALA1        0.0437
     29 CB         -5.4569    2.1944    2.2739 C.3     1  ALA1       -0.0445
     30 C          -6.1219    0.0048    1.4146 C.3     1  ALA1        0.0623
     31 O          -5.7535   -1.2317    0.9334 O.3     1  ALA1       -0.3932
     32 H           0.2413   -4.3572   -2.1074 H       0  UNK0        0.0235
     33 H           1.6096   -3.9366   -1.0178 H       0  UNK0        0.0235
     34 H           1.8346   -3.7959   -2.8346 H       0  UNK0        0.0235
     35 H           0.4730   -1.9244   -2.9330 H       0  UNK0        0.0344
     36 H          -1.0593   -3.5342   -1.2762 H       0  UNK0        0.0235
     37 H          -0.7162   -2.2337   -0.1525 H       0  UNK0        0.0235
     38 H          -1.5872   -1.9468   -1.7797 H       0  UNK0        0.0235
     39 H           3.1963   -2.5937   -1.9638 H       0  UNK0        0.0833
     40 H           3.5227    1.8242    2.1607 H       0  UNK0        0.0639
     41 H           7.6990    2.0919    2.9519 H       0  UNK0        0.0633
     42 H           8.1161    0.2969    1.3476 H       0  UNK0        0.0647
     43 H           2.0318    0.9329    1.1433 H       0  UNK0        0.0658
     44 H          -0.4124   -0.1756    0.9254 H       0  UNK0        0.1522
     45 H           0.9856    0.5443   -2.3567 H       0  UNK0        0.0651
     46 H          -0.1803    1.6046   -4.2510 H       0  UNK0        0.0830
     47 H          -3.6937    1.8787   -1.9822 H       0  UNK0        0.0838
     48 H          -4.6790    1.6396   -0.3620 H       1  ALA1        0.1494
     49 HA         -4.2712    0.4220    2.3495 H       1  ALA1        0.0518
     50 HB1        -4.7131    2.6673    2.9460 H       1  ALA1        0.0248
     51 HB2        -5.7988    2.9390    1.5148 H       1  ALA1        0.0248
     52 HB3        -6.3469    1.9628    2.9055 H       1  ALA1        0.0248
     53 H1         -6.7557   -0.0919    2.2929 H       1  ALA1        0.0575
     54 H2         -6.7604    0.4802    0.6158 H       1  ALA1        0.0575
     55 H          -5.5694   -1.1974   -0.0276 H       1  ALA1        0.2095
@<TRIPOS>BOND
     1     1     2    1
     2     2     3    1
     3     2     4    1
     4     4     5   ar
     5     5     6   ar
     6     6     7   ar
     7     7     8    1
     8     8     9   ar
     9     9    10   ar
    10    10    11    1
    11    10    12   ar
    12    12    13   ar
    13    13    14   ar
    14    14    15    1
    15     7    16   ar
    16    16    17   ar
    17    17    18    1
    18    18    19    1
    19    19    20   ar
    20    20    21   ar
    21    21    22   ar
    22    22    23   ar
    23    23    24   ar
    24    24    25    1
    25    25    26    2
    26    25    27   am
    27    27    28    1
    28    28    29    1
    29    28    30    1
    30    30    31    1
    31    17     4   ar
    32    24    19   ar
    33    14     8   ar
    34     1    32    1
    35     1    33    1
    36     1    34    1
    37     2    35    1
    38     3    36    1
    39     3    37    1
    40     3    38    1
    41     5    39    1
    42     9    40    1
    43    12    41    1
    44    13    42    1
    45    16    43    1
    46    18    44    1
    47    20    45    1
    48    21    46    1
    49    23    47    1
    50    27    48    1
    51    28    49    1
    52    29    50    1
    53    29    51    1
    54    29    52    1
    55    30    53    1
    56    30    54    1
    57    31    55    1
