
     RDKit          3D

 55 57  0  0  0  0  0  0  0  0999 V2000
    1.1274   -3.7118   -1.9862 C   0  0  0  0  0  0  0  0  0  0  0  0
    0.5899   -2.2490   -1.8743 C   0  0  0  0  0  0  0  0  0  0  0  0
   -0.7568   -2.4264   -1.2177 C   0  0  0  0  0  0  0  0  0  0  0  0
    1.5648   -1.4559   -1.1213 C   0  0  0  0  0  0  0  0  0  0  0  0
    2.9330   -1.8073   -1.2700 C   0  0  0  0  0  0  0  0  0  0  0  0
    3.8787   -1.1802   -0.5692 N   0  0  0  0  0  0  0  0  0  0  0  0
    3.6245   -0.1955    0.3078 C   0  0  0  0  0  0  0  0  0  0  0  0
    4.7271    0.4507    1.0484 C   0  0  0  0  0  0  0  0  0  0  0  0
    4.4919    1.4475    1.9388 C   0  0  0  0  0  0  0  0  0  0  0  0
    5.5617    2.0349    2.6209 C   0  0  0  0  0  0  0  0  0  0  0  0
    5.2768    3.3358    3.7859 Cl  0  0  0  0  0  0  0  0  0  0  0  0
    6.8604    1.6294    2.4153 C   0  0  0  0  0  0  0  0  0  0  0  0
    7.0789    0.6163    1.5076 C   0  0  0  0  0  0  0  0  0  0  0  0
    6.0273    0.0370    0.8354 C   0  0  0  0  0  0  0  0  0  0  0  0
    6.2398   -0.9593   -0.0575 F   0  0  0  0  0  0  0  0  0  0  0  0
    2.3212    0.1645    0.4709 C   0  0  0  0  0  0  0  0  0  0  0  0
    1.2831   -0.4672   -0.2479 C   0  0  0  0  0  0  0  0  0  0  0  0
   -0.0587   -0.0173   -0.0194 N   0  0  0  0  0  0  0  0  0  0  0  0
   -0.7626    0.6067   -1.0614 C   0  0  0  0  0  0  0  0  0  0  0  0
   -0.0509    0.8277   -2.2660 C   0  0  0  0  0  0  0  0  0  0  0  0
   -0.7088    1.4235   -3.3096 C   0  0  0  0  0  0  0  0  0  0  0  0
   -1.9948    1.7998   -3.2230 N   0  0  0  0  0  0  0  0  0  0  0  0
   -2.6595    1.5847   -2.0740 C   0  0  0  0  0  0  0  0  0  0  0  0
   -2.0699    0.9798   -0.9484 C   0  0  0  0  0  0  0  0  0  0  0  0
   -2.8375    0.7653    0.2523 C   0  0  0  0  0  0  0  0  0  0  0  0
   -2.3635    0.2026    1.2619 O   0  0  0  0  0  0  0  0  0  0  0  0
   -4.2110    1.1680    0.4201 N   0  0  0  0  0  0  0  0  0  0  0  0
   -4.9470    0.9309    1.6497 C   0  0  1  0  0  0  0  0  0  0  0  0
   -5.4569    2.1944    2.2739 C   0  0  0  0  0  0  0  0  0  0  0  0
   -6.1219    0.0048    1.4146 C   0  0  0  0  0  0  0  0  0  0  0  0
   -5.7535   -1.2317    0.9334 O   0  0  0  0  0  0  0  0  0  0  0  0
    0.2413   -4.3572   -2.1074 H   0  0  0  0  0  0  0  0  0  0  0  0
    1.6096   -3.9366   -1.0178 H   0  0  0  0  0  0  0  0  0  0  0  0
    1.8346   -3.7959   -2.8346 H   0  0  0  0  0  0  0  0  0  0  0  0
    0.4730   -1.9244   -2.9330 H   0  0  0  0  0  0  0  0  0  0  0  0
   -1.0593   -3.5342   -1.2762 H   0  0  0  0  0  0  0  0  0  0  0  0
   -0.7162   -2.2337   -0.1525 H   0  0  0  0  0  0  0  0  0  0  0  0
   -1.5872   -1.9468   -1.7797 H   0  0  0  0  0  0  0  0  0  0  0  0
    3.1963   -2.5937   -1.9638 H   0  0  0  0  0  0  0  0  0  0  0  0
    3.5227    1.8242    2.1607 H   0  0  0  0  0  0  0  0  0  0  0  0
    7.6990    2.0919    2.9519 H   0  0  0  0  0  0  0  0  0  0  0  0
    8.1161    0.2969    1.3476 H   0  0  0  0  0  0  0  0  0  0  0  0
    2.0318    0.9329    1.1433 H   0  0  0  0  0  0  0  0  0  0  0  0
   -0.4124   -0.1756    0.9254 H   0  0  0  0  0  0  0  0  0  0  0  0
    0.9856    0.5443   -2.3567 H   0  0  0  0  0  0  0  0  0  0  0  0
   -0.1803    1.6046   -4.2510 H   0  0  0  0  0  0  0  0  0  0  0  0
   -3.6937    1.8787   -1.9822 H   0  0  0  0  0  0  0  0  0  0  0  0
   -4.6790    1.6396   -0.3620 H   0  0  0  0  0  0  0  0  0  0  0  0
   -4.2712    0.4220    2.3495 H   0  0  0  0  0  0  0  0  0  0  0  0
   -4.7131    2.6673    2.9460 H   0  0  0  0  0  0  0  0  0  0  0  0
   -5.7988    2.9390    1.5148 H   0  0  0  0  0  0  0  0  0  0  0  0
   -6.3469    1.9628    2.9055 H   0  0  0  0  0  0  0  0  0  0  0  0
   -6.7557   -0.0919    2.2929 H   0  0  0  0  0  0  0  0  0  0  0  0
   -6.7604    0.4802    0.6158 H   0  0  0  0  0  0  0  0  0  0  0  0
   -5.5694   -1.1974   -0.0276 H   0  0  0  0  0  0  0  0  0  0  0  0
  1  2  1  0
  2  3  1  0
  2  4  1  0
  4  5  2  0
  5  6  1  0
  6  7  2  0
  7  8  1  0
  8  9  2  0
  9 10  1  0
 10 11  1  0
 10 12  2  0
 12 13  1  0
 13 14  2  0
 14 15  1  0
  7 16  1  0
 16 17  2  0
 17 18  1  0
 18 19  1  0
 19 20  2  0
 20 21  1  0
 21 22  2  0
 22 23  1  0
 23 24  2  0
 24 25  1  0
 25 26  2  0
 25 27  1  0
 27 28  1  0
 28 29  1  0
 28 30  1  0
 30 31  1  0
 17  4  1  0
 24 19  1  0
 14  8  1  0
  1 32  1  0
  1 33  1  0
  1 34  1  0
  2 35  1  0
  3 36  1  0
  3 37  1  0
  3 38  1  0
  5 39  1  0
  9 40  1  0
 12 41  1  0
 13 42  1  0
 16 43  1  0
 18 44  1  0
 20 45  1  0
 21 46  1  0
 23 47  1  0
 27 48  1  0
 28 49  1  1
 29 50  1  0
 29 51  1  0
 29 52  1  0
 30 53  1  0
 30 54  1  0
 31 55  1  0
M  END
$$$$
