
     RDKit          3D

 72 77  0  0  0  0  0  0  0  0999 V2000
   -5.4155    5.8427   -2.2741 C   0  0  0  0  0  0  0  0  0  0  0  0
   -6.4293    4.8300   -2.2903 N   0  0  0  0  0  0  0  0  0  0  0  0
   -5.9759    3.4938   -2.4498 C   0  0  1  0  0  0  0  0  0  0  0  0
   -5.4214    3.1739   -3.8065 C   0  0  0  0  0  0  0  0  0  0  0  0
   -4.9401    3.1012   -1.4224 C   0  0  0  0  0  0  0  0  0  0  0  0
   -4.5709    3.8928   -0.5434 O   0  0  0  0  0  0  0  0  0  0  0  0
   -4.3693    1.8219   -1.4472 N   0  0  0  0  0  0  0  0  0  0  0  0
   -3.4393    1.1263   -0.6941 C   0  0  0  0  0  0  0  0  0  0  0  0
   -3.9321    0.1569    0.1024 C   0  0  0  0  0  0  0  0  0  0  0  0
   -3.1215   -0.7643    0.8094 C   0  0  0  0  0  0  0  0  0  0  0  0
   -1.8124   -0.5975    0.6325 C   0  0  0  0  0  0  0  0  0  0  0  0
   -0.7856   -1.5166    1.1772 C   0  0  0  0  0  0  0  0  0  0  0  0
   -0.4083   -1.7027    2.4509 C   0  0  0  0  0  0  0  0  0  0  0  0
   -1.1175   -1.4412    3.6694 C   0  0  0  0  0  0  0  0  0  0  0  0
   -1.5903   -0.3120    4.3415 C   0  0  0  0  0  0  0  0  0  0  0  0
   -2.2590   -0.7714    5.4177 N   0  0  0  0  0  0  0  0  0  0  0  0
   -2.2733   -2.0555    5.5227 N   0  0  0  0  0  0  0  0  0  0  0  0
   -2.9122   -2.8708    6.5433 C   0  0  0  0  0  0  0  0  0  0  0  0
   -1.5759   -2.5095    4.4632 C   0  0  0  0  0  0  0  0  0  0  0  0
    0.8000   -2.4176    2.3725 N   0  0  0  0  0  0  0  0  0  0  0  0
    1.0842   -2.6443    1.1033 C   0  0  0  0  0  0  0  0  0  0  0  0
    2.1790   -3.3455    0.4821 C   0  0  0  0  0  0  0  0  0  0  0  0
    2.1638   -3.4325   -0.8690 C   0  0  0  0  0  0  0  0  0  0  0  0
    3.3725   -4.1177   -1.5512 C   0  0  0  0  0  0  0  0  0  0  0  0
    1.2246   -2.9217   -1.6588 C   0  0  0  0  0  0  0  0  0  0  0  0
    0.1874   -2.2465   -1.0074 C   0  0  0  0  0  0  0  0  0  0  0  0
    0.0998   -2.0975    0.3348 N   0  0  0  0  0  0  0  0  0  0  0  0
   -1.2174    0.4639   -0.2225 C   0  0  0  0  0  0  0  0  0  0  0  0
    0.1484    0.4315   -0.2244 C   0  0  0  0  0  0  0  0  0  0  0  0
    1.4615    0.3973   -0.2358 C   0  0  0  0  0  0  0  0  0  0  0  0
    2.8473    0.3840   -0.2563 C   0  0  0  0  0  0  0  0  0  0  0  0
    3.6872    0.9089    0.7563 C   0  0  0  0  0  0  0  0  0  0  0  0
    5.0095    0.8878    0.6286 C   0  0  0  0  0  0  0  0  0  0  0  0
    5.7135    0.3726   -0.4561 C   0  0  0  0  0  0  0  0  0  0  0  0
    7.0317    0.4262   -0.5088 C   0  0  0  0  0  0  0  0  0  0  0  0
    7.9177    1.0635    0.5331 C   0  0  0  0  0  0  0  0  0  0  0  0
    7.6638   -0.0903   -1.6191 N   0  0  0  0  0  0  0  0  0  0  0  0
    6.9620   -0.6378   -2.6427 C   0  0  0  0  0  0  0  0  0  0  0  0
    5.5487   -0.6766   -2.5733 C   0  0  0  0  0  0  0  0  0  0  0  0
    4.9358   -0.1574   -1.4534 C   0  0  0  0  0  0  0  0  0  0  0  0
    3.5762   -0.1529   -1.3613 C   0  0  0  0  0  0  0  0  0  0  0  0
   -2.0807    1.2736   -0.8454 N   0  0  0  0  0  0  0  0  0  0  0  0
   -4.5258    5.6172   -2.8898 H   0  0  0  0  0  0  0  0  0  0  0  0
   -5.8583    6.7847   -2.6927 H   0  0  0  0  0  0  0  0  0  0  0  0
   -5.1458    6.0611   -1.2198 H   0  0  0  0  0  0  0  0  0  0  0  0
   -7.0009    5.0392   -3.1828 H   0  0  0  0  0  0  0  0  0  0  0  0
   -6.8872    2.8400   -2.3026 H   0  0  0  0  0  0  0  0  0  0  0  0
   -5.0879    4.0959   -4.3692 H   0  0  0  0  0  0  0  0  0  0  0  0
   -4.6201    2.4142   -3.8038 H   0  0  0  0  0  0  0  0  0  0  0  0
   -6.2981    2.7799   -4.4382 H   0  0  0  0  0  0  0  0  0  0  0  0
   -4.8286    1.2061   -2.2730 H   0  0  0  0  0  0  0  0  0  0  0  0
   -5.0146    0.0671    0.2199 H   0  0  0  0  0  0  0  0  0  0  0  0
   -3.5615   -1.5453    1.4256 H   0  0  0  0  0  0  0  0  0  0  0  0
   -1.4544    0.6835    4.0293 H   0  0  0  0  0  0  0  0  0  0  0  0
   -3.1953   -3.8781    6.0901 H   0  0  0  0  0  0  0  0  0  0  0  0
   -3.8430   -2.3744    6.8548 H   0  0  0  0  0  0  0  0  0  0  0  0
   -2.2168   -3.0002    7.3851 H   0  0  0  0  0  0  0  0  0  0  0  0
   -1.4217   -3.5710    4.2639 H   0  0  0  0  0  0  0  0  0  0  0  0
    2.9332   -3.7756    1.0968 H   0  0  0  0  0  0  0  0  0  0  0  0
    3.8445   -4.7687   -0.8249 H   0  0  0  0  0  0  0  0  0  0  0  0
    3.0225   -4.5410   -2.4838 H   0  0  0  0  0  0  0  0  0  0  0  0
    4.1007   -3.2852   -1.8179 H   0  0  0  0  0  0  0  0  0  0  0  0
    1.1476   -2.9521   -2.7391 H   0  0  0  0  0  0  0  0  0  0  0  0
   -0.6262   -1.8226   -1.6162 H   0  0  0  0  0  0  0  0  0  0  0  0
    3.1386    1.2964    1.5918 H   0  0  0  0  0  0  0  0  0  0  0  0
    5.6641    1.2805    1.4505 H   0  0  0  0  0  0  0  0  0  0  0  0
    8.0053    0.2673    1.3190 H   0  0  0  0  0  0  0  0  0  0  0  0
    8.9295    1.2869    0.0937 H   0  0  0  0  0  0  0  0  0  0  0  0
    7.4222    1.9295    0.9520 H   0  0  0  0  0  0  0  0  0  0  0  0
    7.4673   -1.0554   -3.4939 H   0  0  0  0  0  0  0  0  0  0  0  0
    4.9791   -1.0724   -3.3835 H   0  0  0  0  0  0  0  0  0  0  0  0
    2.9647   -0.5766   -2.1686 H   0  0  0  0  0  0  0  0  0  0  0  0
  1  2  1  0
  2  3  1  0
  3  4  1  0
  3  5  1  0
  5  6  2  0
  5  7  1  0
  7  8  1  0
  8  9  2  0
  9 10  1  0
 10 11  2  0
 11 12  1  0
 12 13  2  0
 13 14  1  0
 14 15  1  0
 15 16  2  0
 16 17  1  0
 17 18  1  0
 17 19  1  0
 13 20  1  0
 20 21  2  0
 21 22  1  0
 22 23  2  0
 23 24  1  0
 23 25  1  0
 25 26  2  0
 26 27  1  0
 11 28  1  0
 28 29  1  0
 29 30  3  0
 30 31  1  0
 31 32  2  0
 32 33  1  0
 33 34  2  0
 34 35  1  0
 35 36  1  0
 35 37  2  0
 37 38  1  0
 38 39  2  0
 39 40  1  0
 40 41  2  0
 28 42  2  0
 42  8  1  0
 27 12  1  0
 41 31  1  0
 19 14  2  0
 27 21  1  0
 40 34  1  0
  1 43  1  0
  1 44  1  0
  1 45  1  0
  2 46  1  0
  3 47  1  1
  4 48  1  0
  4 49  1  0
  4 50  1  0
  7 51  1  0
  9 52  1  0
 10 53  1  0
 15 54  1  0
 18 55  1  0
 18 56  1  0
 18 57  1  0
 19 58  1  0
 22 59  1  0
 24 60  1  0
 24 61  1  0
 24 62  1  0
 25 63  1  0
 26 64  1  0
 32 65  1  0
 33 66  1  0
 36 67  1  0
 36 68  1  0
 36 69  1  0
 38 70  1  0
 39 71  1  0
 41 72  1  0
M  END
$$$$
