@<TRIPOS>MOLECULE
*****
 72 77 0 0 0
SMALL
GASTEIGER

@<TRIPOS>ATOM
      1 C          -5.4155    5.8427   -2.2741 C.3     1  UNL1       -0.0151
      2 N          -6.4293    4.8300   -2.2903 N.3     1  UNL1       -0.3089
      3 C          -5.9759    3.4938   -2.4498 C.3     1  UNL1        0.0820
      4 C          -5.4214    3.1739   -3.8065 C.3     1  UNL1       -0.0411
      5 C          -4.9401    3.1012   -1.4224 C.2     1  UNL1        0.2350
      6 O          -4.5709    3.8928   -0.5434 O.2     1  UNL1       -0.2737
      7 N          -4.3693    1.8219   -1.4472 N.am    1  UNL1       -0.2691
      8 C          -3.4393    1.1263   -0.6941 C.ar    1  UNL1        0.1263
      9 C          -3.9321    0.1569    0.1024 C.ar    1  UNL1       -0.0208
     10 C          -3.1215   -0.7643    0.8094 C.ar    1  UNL1       -0.0466
     11 C          -1.8124   -0.5975    0.6325 C.ar    1  UNL1        0.0349
     12 C          -0.7856   -1.5166    1.1772 C.ar    1  UNL1        0.0837
     13 C          -0.4083   -1.7027    2.4509 C.ar    1  UNL1        0.1007
     14 C          -1.1175   -1.4412    3.6694 C.ar    1  UNL1        0.0399
     15 C          -1.5903   -0.3120    4.3415 C.ar    1  UNL1        0.0586
     16 N          -2.2590   -0.7714    5.4177 N.ar    1  UNL1       -0.1792
     17 N          -2.2733   -2.0555    5.5227 N.ar    1  UNL1       -0.2738
     18 C          -2.9122   -2.8708    6.5433 C.3     1  UNL1        0.0302
     19 C          -1.5759   -2.5095    4.4632 C.ar    1  UNL1        0.0344
     20 N           0.8000   -2.4176    2.3725 N.ar    1  UNL1       -0.2271
     21 C           1.0842   -2.6443    1.1033 C.ar    1  UNL1        0.1390
     22 C           2.1790   -3.3455    0.4821 C.ar    1  UNL1       -0.0158
     23 C           2.1638   -3.4325   -0.8690 C.ar    1  UNL1       -0.0456
     24 C           3.3725   -4.1177   -1.5512 C.3     1  UNL1       -0.0395
     25 C           1.2246   -2.9217   -1.6588 C.ar    1  UNL1       -0.0421
     26 C           0.1874   -2.2465   -1.0074 C.ar    1  UNL1        0.0120
     27 N           0.0998   -2.0975    0.3348 N.ar    1  UNL1       -0.2986
     28 C          -1.2174    0.4639   -0.2225 C.ar    1  UNL1        0.1250
     29 C           0.1484    0.4315   -0.2244 C.1     1  UNL1       -0.0404
     30 C           1.4615    0.3973   -0.2358 C.1     1  UNL1       -0.0595
     31 C           2.8473    0.3840   -0.2563 C.ar    1  UNL1        0.0259
     32 C           3.6872    0.9089    0.7563 C.ar    1  UNL1       -0.0457
     33 C           5.0095    0.8878    0.6286 C.ar    1  UNL1       -0.0512
     34 C           5.7135    0.3726   -0.4561 C.ar    1  UNL1        0.0032
     35 C           7.0317    0.4262   -0.5088 C.ar    1  UNL1        0.0459
     36 C           7.9177    1.0635    0.5331 C.3     1  UNL1       -0.0218
     37 N           7.6638   -0.0903   -1.6191 N.ar    1  UNL1       -0.2595
     38 C           6.9620   -0.6378   -2.6427 C.ar    1  UNL1        0.0285
     39 C           5.5487   -0.6766   -2.5733 C.ar    1  UNL1       -0.0358
     40 C           4.9358   -0.1574   -1.4534 C.ar    1  UNL1       -0.0136
     41 C           3.5762   -0.1529   -1.3613 C.ar    1  UNL1       -0.0385
     42 N          -2.0807    1.2736   -0.8454 N.ar    1  UNL1       -0.2229
     43 H          -4.5258    5.6172   -2.8898 H       1  UNL1        0.0388
     44 H          -5.8583    6.7847   -2.6927 H       1  UNL1        0.0388
     45 H          -5.1458    6.0611   -1.2198 H       1  UNL1        0.0388
     46 H          -7.0009    5.0392   -3.1828 H       1  UNL1        0.1223
     47 H          -6.8872    2.8400   -2.3026 H       1  UNL1        0.0554
     48 H          -5.0879    4.0959   -4.3692 H       1  UNL1        0.0249
     49 H          -4.6201    2.4142   -3.8038 H       1  UNL1        0.0249
     50 H          -6.2981    2.7799   -4.4382 H       1  UNL1        0.0249
     51 H          -4.8286    1.2061   -2.2730 H       1  UNL1        0.1563
     52 H          -5.0146    0.0671    0.2199 H       1  UNL1        0.0652
     53 H          -3.5615   -1.5453    1.4256 H       1  UNL1        0.0626
     54 H          -1.4544    0.6835    4.0293 H       1  UNL1        0.0854
     55 H          -3.1953   -3.8781    6.0901 H       1  UNL1        0.0473
     56 H          -3.8430   -2.3744    6.8548 H       1  UNL1        0.0473
     57 H          -2.2168   -3.0002    7.3851 H       1  UNL1        0.0473
     58 H          -1.4217   -3.5710    4.2639 H       1  UNL1        0.0833
     59 H           2.9332   -3.7756    1.0968 H       1  UNL1        0.0657
     60 H           3.8445   -4.7687   -0.8249 H       1  UNL1        0.0278
     61 H           3.0225   -4.5410   -2.4838 H       1  UNL1        0.0278
     62 H           4.1007   -3.2852   -1.8179 H       1  UNL1        0.0278
     63 H           1.1476   -2.9521   -2.7391 H       1  UNL1        0.0635
     64 H          -0.6262   -1.8226   -1.6162 H       1  UNL1        0.0813
     65 H           3.1386    1.2964    1.5918 H       1  UNL1        0.0630
     66 H           5.6641    1.2805    1.4505 H       1  UNL1        0.0625
     67 H           8.0053    0.2673    1.3190 H       1  UNL1        0.0293
     68 H           8.9295    1.2869    0.0937 H       1  UNL1        0.0293
     69 H           7.4222    1.9295    0.9520 H       1  UNL1        0.0293
     70 H           7.4673   -1.0554   -3.4939 H       1  UNL1        0.0830
     71 H           4.9791   -1.0724   -3.3835 H       1  UNL1        0.0639
     72 H           2.9647   -0.5766   -2.1686 H       1  UNL1        0.0636
@<TRIPOS>BOND
     1     1     2    1
     2     2     3    1
     3     3     4    1
     4     3     5    1
     5     5     6    2
     6     5     7   am
     7     7     8    1
     8     8     9   ar
     9     9    10   ar
    10    10    11   ar
    11    11    12    1
    12    12    13   ar
    13    13    14    1
    14    14    15   ar
    15    15    16   ar
    16    16    17   ar
    17    17    18    1
    18    17    19   ar
    19    13    20   ar
    20    20    21   ar
    21    21    22   ar
    22    22    23   ar
    23    23    24    1
    24    23    25   ar
    25    25    26   ar
    26    26    27   ar
    27    11    28   ar
    28    28    29    1
    29    29    30    3
    30    30    31    1
    31    31    32   ar
    32    32    33   ar
    33    33    34   ar
    34    34    35   ar
    35    35    36    1
    36    35    37   ar
    37    37    38   ar
    38    38    39   ar
    39    39    40   ar
    40    40    41   ar
    41    28    42   ar
    42    42     8   ar
    43    27    12   ar
    44    41    31   ar
    45    19    14   ar
    46    27    21   ar
    47    40    34   ar
    48     1    43    1
    49     1    44    1
    50     1    45    1
    51     2    46    1
    52     3    47    1
    53     4    48    1
    54     4    49    1
    55     4    50    1
    56     7    51    1
    57     9    52    1
    58    10    53    1
    59    15    54    1
    60    18    55    1
    61    18    56    1
    62    18    57    1
    63    19    58    1
    64    22    59    1
    65    24    60    1
    66    24    61    1
    67    24    62    1
    68    25    63    1
    69    26    64    1
    70    32    65    1
    71    33    66    1
    72    36    67    1
    73    36    68    1
    74    36    69    1
    75    38    70    1
    76    39    71    1
    77    41    72    1
