
     RDKit          3D

 29 29  0  0  0  0  0  0  0  0999 V2000
    2.3337   -1.5056    0.1749 C   0  0  0  0  0  0  0  0  0  0  0  0
    2.1950   -0.1960   -0.5325 C   0  0  2  0  0  0  0  0  0  0  0  0
    2.5651    0.9296    0.3910 C   0  0  0  0  0  0  0  0  0  0  0  0
    2.4034    2.5375   -0.4518 S   0  0  0  0  0  0  0  0  0  0  0  0
    0.8254   -0.0907   -1.0791 C   0  0  0  0  0  0  0  0  0  0  0  0
    0.7612    0.0203   -2.3534 O   0  0  0  0  0  0  0  0  0  0  0  0
   -0.3649   -0.1026   -0.3281 N   0  0  0  0  0  0  0  0  0  0  0  0
   -0.5186   -0.2164    1.0890 C   0  0  0  0  0  0  0  0  0  0  0  0
   -1.8137   -0.9947    1.2382 C   0  0  0  0  0  0  0  0  0  0  0  0
   -2.4502   -1.0459   -0.1248 C   0  0  0  0  0  0  0  0  0  0  0  0
   -1.6846    0.0080   -0.8953 C   0  0  1  0  0  0  0  0  0  0  0  0
   -2.2751    1.3608   -0.6575 C   0  0  0  0  0  0  0  0  0  0  0  0
   -1.6273    2.2287   -0.0493 O   0  0  0  0  0  0  0  0  0  0  0  0
   -3.5395    1.6761   -1.1023 O   0  0  0  0  0  0  0  0  0  0  0  0
    1.4385   -2.1575    0.0755 H   0  0  0  0  0  0  0  0  0  0  0  0
    3.1634   -2.1263   -0.2780 H   0  0  0  0  0  0  0  0  0  0  0  0
    2.5716   -1.3962    1.2727 H   0  0  0  0  0  0  0  0  0  0  0  0
    2.9650   -0.1737   -1.3562 H   0  0  0  0  0  0  0  0  0  0  0  0
    3.6185    0.7856    0.6817 H   0  0  0  0  0  0  0  0  0  0  0  0
    1.9391    0.9665    1.2819 H   0  0  0  0  0  0  0  0  0  0  0  0
    3.5369    2.7251   -1.2839 H   0  0  0  0  0  0  0  0  0  0  0  0
    0.3100   -0.7343    1.6144 H   0  0  0  0  0  0  0  0  0  0  0  0
   -0.6762    0.8114    1.5307 H   0  0  0  0  0  0  0  0  0  0  0  0
   -1.6153   -2.0275    1.5779 H   0  0  0  0  0  0  0  0  0  0  0  0
   -2.4776   -0.4957    1.9838 H   0  0  0  0  0  0  0  0  0  0  0  0
   -2.2717   -2.0404   -0.6220 H   0  0  0  0  0  0  0  0  0  0  0  0
   -3.5286   -0.8359   -0.1220 H   0  0  0  0  0  0  0  0  0  0  0  0
   -1.6929   -0.2188   -1.9856 H   0  0  0  0  0  0  0  0  0  0  0  0
   -4.0907    2.3087   -0.5119 H   0  0  0  0  0  0  0  0  0  0  0  0
  1  2  1  0
  2  3  1  0
  3  4  1  0
  2  5  1  0
  5  6  2  0
  5  7  1  0
  7  8  1  0
  8  9  1  0
  9 10  1  0
 10 11  1  0
 11 12  1  0
 12 13  2  0
 12 14  1  0
 11  7  1  0
  1 15  1  0
  1 16  1  0
  1 17  1  0
  2 18  1  6
  3 19  1  0
  3 20  1  0
  4 21  1  0
  8 22  1  0
  8 23  1  0
  9 24  1  0
  9 25  1  0
 10 26  1  0
 10 27  1  0
 11 28  1  6
 14 29  1  0
M  END
$$$$
