@<TRIPOS>MOLECULE
*****
 29 29 0 0 0
SMALL
GASTEIGER

@<TRIPOS>ATOM
      1 C           2.3337   -1.5056    0.1749 C.3     1  UNL1       -0.0533
      2 C           2.1950   -0.1960   -0.5325 C.3     1  UNL1        0.0417
      3 C           2.5651    0.9296    0.3910 C.3     1  UNL1        0.0015
      4 S           2.4034    2.5375   -0.4518 S.3     1  UNL1       -0.1775
      5 C           0.8254   -0.0907   -1.0791 C.2     1  UNL1        0.2198
      6 O           0.7612    0.0203   -2.3534 O.2     1  UNL1       -0.2753
      7 N          -0.3649   -0.1026   -0.3281 N.am    1  UNL1       -0.2878
      8 C          -0.5186   -0.2164    1.0890 C.3     1  UNL1        0.0156
      9 C          -1.8137   -0.9947    1.2382 C.3     1  UNL1       -0.0349
     10 C          -2.4502   -1.0459   -0.1248 C.3     1  UNL1       -0.0225
     11 C          -1.6846    0.0080   -0.8953 C.3     1  UNL1        0.1228
     12 C          -2.2751    1.3608   -0.6575 C.2     1  UNL1        0.3255
     13 O          -1.6273    2.2287   -0.0493 O.2     1  UNL1       -0.2489
     14 O          -3.5395    1.6761   -1.1023 O.3     1  UNL1       -0.4793
     15 H           1.4385   -2.1575    0.0755 H       1  UNL1        0.0237
     16 H           3.1634   -2.1263   -0.2780 H       1  UNL1        0.0237
     17 H           2.5716   -1.3962    1.2727 H       1  UNL1        0.0237
     18 H           2.9650   -0.1737   -1.3562 H       1  UNL1        0.0399
     19 H           3.6185    0.7856    0.6817 H       1  UNL1        0.0381
     20 H           1.9391    0.9665    1.2819 H       1  UNL1        0.0381
     21 H           3.5369    2.7251   -1.2839 H       1  UNL1        0.1017
     22 H           0.3100   -0.7343    1.6144 H       1  UNL1        0.0465
     23 H          -0.6762    0.8114    1.5307 H       1  UNL1        0.0465
     24 H          -1.6153   -2.0275    1.5779 H       1  UNL1        0.0281
     25 H          -2.4776   -0.4957    1.9838 H       1  UNL1        0.0281
     26 H          -2.2717   -2.0404   -0.6220 H       1  UNL1        0.0289
     27 H          -3.5286   -0.8359   -0.1220 H       1  UNL1        0.0289
     28 H          -1.6929   -0.2188   -1.9856 H       1  UNL1        0.0616
     29 H          -4.0907    2.3087   -0.5119 H       1  UNL1        0.2951
@<TRIPOS>BOND
     1     1     2    1
     2     2     3    1
     3     3     4    1
     4     2     5    1
     5     5     6    2
     6     5     7   am
     7     7     8    1
     8     8     9    1
     9     9    10    1
    10    10    11    1
    11    11    12    1
    12    12    13    2
    13    12    14    1
    14    11     7    1
    15     1    15    1
    16     1    16    1
    17     1    17    1
    18     2    18    1
    19     3    19    1
    20     3    20    1
    21     4    21    1
    22     8    22    1
    23     8    23    1
    24     9    24    1
    25     9    25    1
    26    10    26    1
    27    10    27    1
    28    11    28    1
    29    14    29    1
