
     RDKit          3D

 35 35  0  0  0  0  0  0  0  0999 V2000
   -4.5150    0.5409    2.0485 N   0  0  0  0  0  0  0  0  0  0  0  0
   -5.0950    0.1463    0.7779 C   0  0  0  0  0  0  0  0  0  0  0  0
   -4.5179    1.0155   -0.2949 C   0  0  0  0  0  0  0  0  0  0  0  0
   -3.0135    0.9142   -0.4122 C   0  0  0  0  0  0  0  0  0  0  0  0
   -2.5694   -0.4743   -0.7310 C   0  0  0  0  0  0  0  0  0  0  0  0
   -1.1229   -0.5839   -0.8521 N   0  0  0  0  0  0  0  0  0  0  0  0
   -0.2250   -0.2748    0.2025 C   0  0  0  0  0  0  0  0  0  0  0  0
   -0.6664    0.1168    1.3134 O   0  0  0  0  0  0  0  0  0  0  0  0
    1.2246   -0.3805    0.0923 C   0  0  0  0  0  0  0  0  0  0  0  0
    1.9960   -0.0521    1.1861 C   0  0  0  0  0  0  0  0  0  0  0  0
    3.3924   -0.1266    1.1620 C   0  0  0  0  0  0  0  0  0  0  0  0
    4.0499   -0.5385    0.0219 C   0  0  0  0  0  0  0  0  0  0  0  0
    3.2923   -0.8668   -1.0693 C   0  0  0  0  0  0  0  0  0  0  0  0
    1.9157   -0.7880   -1.0296 C   0  0  0  0  0  0  0  0  0  0  0  0
    5.7933   -0.6443   -0.0462 S   0  0  0  0  0  0  0  0  0  0  0  0
    6.4707    0.8419   -0.5780 N   0  0  0  0  0  0  0  0  0  0  0  0
    6.1306   -1.7727   -1.0025 O   0  0  0  0  0  0  0  0  0  0  0  0
    6.3726   -0.9838    1.2980 O   0  0  0  0  0  0  0  0  0  0  0  0
   -4.1424   -0.2735    2.5935 H   0  0  0  0  0  0  0  0  0  0  0  0
   -5.1806    1.1103    2.6247 H   0  0  0  0  0  0  0  0  0  0  0  0
   -4.8831   -0.9203    0.6265 H   0  0  0  0  0  0  0  0  0  0  0  0
   -6.2123    0.3215    0.7894 H   0  0  0  0  0  0  0  0  0  0  0  0
   -4.8370    2.0662   -0.2196 H   0  0  0  0  0  0  0  0  0  0  0  0
   -4.9062    0.6101   -1.2767 H   0  0  0  0  0  0  0  0  0  0  0  0
   -2.6330    1.6699   -1.1326 H   0  0  0  0  0  0  0  0  0  0  0  0
   -2.5688    1.2439    0.5725 H   0  0  0  0  0  0  0  0  0  0  0  0
   -2.9583   -1.1602    0.0603 H   0  0  0  0  0  0  0  0  0  0  0  0
   -3.0227   -0.8053   -1.6851 H   0  0  0  0  0  0  0  0  0  0  0  0
   -0.6851   -0.9027   -1.7445 H   0  0  0  0  0  0  0  0  0  0  0  0
    1.5682    0.2869    2.1407 H   0  0  0  0  0  0  0  0  0  0  0  0
    3.9727    0.1413    2.0473 H   0  0  0  0  0  0  0  0  0  0  0  0
    3.8021   -1.1868   -1.9553 H   0  0  0  0  0  0  0  0  0  0  0  0
    1.3370   -1.0522   -1.9037 H   0  0  0  0  0  0  0  0  0  0  0  0
    5.9205    1.2759   -1.3597 H   0  0  0  0  0  0  0  0  0  0  0  0
    6.5158    1.4858    0.2517 H   0  0  0  0  0  0  0  0  0  0  0  0
  1  2  1  0
  2  3  1  0
  3  4  1  0
  4  5  1  0
  5  6  1  0
  6  7  1  0
  7  8  2  0
  7  9  1  0
  9 10  2  0
 10 11  1  0
 11 12  2  0
 12 13  1  0
 13 14  2  0
 12 15  1  0
 15 16  1  0
 15 17  2  0
 15 18  2  0
 14  9  1  0
  1 19  1  0
  1 20  1  0
  2 21  1  0
  2 22  1  0
  3 23  1  0
  3 24  1  0
  4 25  1  0
  4 26  1  0
  5 27  1  0
  5 28  1  0
  6 29  1  0
 10 30  1  0
 11 31  1  0
 13 32  1  0
 14 33  1  0
 16 34  1  0
 16 35  1  0
M  END
$$$$
