@<TRIPOS>MOLECULE
*****
 35 37 0 0 0
SMALL
GASTEIGER

@<TRIPOS>ATOM
      1 C          -4.9866   -1.7232    1.6311 C.3     1  UNL1       -0.0397
      2 C          -4.3805   -0.7061    0.7111 C.ar    1  UNL1       -0.0488
      3 C          -5.2245    0.1055   -0.0173 C.ar    1  UNL1       -0.0454
      4 C          -4.6503    1.0471   -0.8690 C.ar    1  UNL1        0.0111
      5 BR         -5.7910    2.1689   -1.8760 Br      1  UNL1       -0.0509
      6 C          -3.2765    1.1205   -0.9410 C.ar    1  UNL1       -0.0847
      7 O          -2.7753    2.0752   -1.8042 O.co2   1  UNL1       -0.8725
      8 C          -2.4123    0.3245   -0.2268 C.ar    1  UNL1       -0.0081
      9 C          -3.0254   -0.5812    0.5927 C.ar    1  UNL1       -0.0502
     10 C          -0.9638    0.4047   -0.3052 C.ar    1  UNL1        0.0469
     11 C          -0.0938   -0.3846    0.4028 C.ar    1  UNL1       -0.0287
     12 C           1.2058   -0.0556    0.1005 C.ar    1  UNL1        0.0011
     13 C           2.4071   -0.5568    0.5473 C.ar    1  UNL1       -0.0378
     14 C           3.5814   -0.0196    0.0578 C.ar    1  UNL1        0.0615
     15 C           3.5079    0.9996   -0.8609 C.ar    1  UNL1       -0.0451
     16 C           2.3072    1.5065   -1.3128 C.ar    1  UNL1       -0.0370
     17 C           1.1376    0.9539   -0.8095 C.ar    1  UNL1        0.0470
     18 N          -0.1637    1.2021   -1.0277 N.ar    1  UNL1       -0.3542
     19 C           4.9048   -0.4803    0.4675 C.2     1  UNL1        0.2662
     20 N           5.2999   -1.7814    0.8882 N.pl3   1  UNL1       -0.2497
     21 N           5.8867    0.3582    0.4687 N.2     1  UNL1       -0.2884
     22 H          -4.2763   -2.5881    1.7592 H       1  UNL1        0.0278
     23 H          -5.8569   -2.1642    1.1065 H       1  UNL1        0.0278
     24 H          -5.2934   -1.2917    2.5819 H       1  UNL1        0.0278
     25 H          -6.2992    0.0209    0.0636 H       1  UNL1        0.0631
     26 H          -2.4385   -1.2580    1.2006 H       1  UNL1        0.0627
     27 H          -0.3534   -1.1663    1.1089 H       1  UNL1        0.0645
     28 H           2.4927   -1.3571    1.2687 H       1  UNL1        0.0632
     29 H           4.3749    1.4826   -1.3002 H       1  UNL1        0.0627
     30 H           2.2249    2.3159   -2.0424 H       1  UNL1        0.0638
     31 H          -0.4644    1.9342   -1.6866 H       1  UNL1        0.1659
     32 H           5.9313   -2.3084    0.2662 H       1  UNL1        0.2883
     33 H           4.9983   -2.2387    1.7762 H       1  UNL1        0.2883
     34 H           6.0891    1.3654    0.2549 H       1  UNL1        0.3009
     35 H           6.3763    1.2754    0.3413 H       1  UNL1        0.3009
@<TRIPOS>UNITY_ATOM_ATTR
7 1
charge -1
21 1
charge 1
@<TRIPOS>BOND
     1     1     2    1
     2     2     3   ar
     3     3     4   ar
     4     4     5    1
     5     4     6   ar
     6     6     7    1
     7     6     8   ar
     8     8     9   ar
     9     8    10    1
    10    10    11   ar
    11    11    12   ar
    12    12    13   ar
    13    13    14   ar
    14    14    15   ar
    15    15    16   ar
    16    16    17   ar
    17    17    18   ar
    18    14    19    1
    19    19    20    1
    20    19    21    2
    21     9     2   ar
    22    18    10   ar
    23    17    12   ar
    24     1    22    1
    25     1    23    1
    26     1    24    1
    27     3    25    1
    28     9    26    1
    29    11    27    1
    30    13    28    1
    31    15    29    1
    32    16    30    1
    33    18    31    1
    34    20    32    1
    35    20    33    1
    36    21    34    1
    37    21    35    1
