
     RDKit          3D

 71 74  0  0  0  0  0  0  0  0999 V2000
   -0.7414    1.1318   -0.5278 C   0  0  2  0  0  0  0  0  0  0  0  0
   -0.2122    1.9976   -1.6438 C   0  0  0  0  0  0  0  0  0  0  0  0
    1.3101    1.9140   -1.4617 C   0  0  0  0  0  0  0  0  0  0  0  0
    1.5398    0.8758   -0.3781 C   0  0  2  0  0  0  0  0  0  0  0  0
    1.3845    1.5238    0.8694 O   0  0  0  0  0  0  0  0  0  0  0  0
    2.1407    2.5841    1.2897 C   0  0  0  0  0  0  0  0  0  0  0  0
    3.0512    3.1051    0.6295 O   0  0  0  0  0  0  0  0  0  0  0  0
    1.9036    3.1445    2.5361 O   0  0  0  0  0  0  0  0  0  0  0  0
    2.7034    4.2544    2.9629 C   0  0  0  0  0  0  0  0  0  0  0  0
    2.3191    4.7433    4.3358 C   0  0  0  0  0  0  0  0  0  0  0  0
    2.7854    0.1376   -0.5463 C   0  0  0  0  0  0  0  0  0  0  0  0
    2.9052   -0.4067   -1.6264 O   0  0  0  0  0  0  0  0  0  0  0  0
    3.9630   -0.1205    0.2842 C   0  0  0  0  0  0  0  0  0  0  0  0
    4.9239   -0.9291   -0.3616 O   0  0  0  0  0  0  0  0  0  0  0  0
    4.6934   -2.2167   -0.8164 C   0  0  0  0  0  0  0  0  0  0  0  0
    3.5757   -2.7702   -0.6799 O   0  0  0  0  0  0  0  0  0  0  0  0
    5.8846   -2.8224   -1.4538 C   0  0  0  0  0  0  0  0  0  0  0  0
    5.5258   -4.2170   -1.9110 C   0  0  0  0  0  0  0  0  0  0  0  0
    0.3072    0.0161   -0.6047 C   0  0  2  0  0  0  0  0  0  0  0  0
    0.3395   -0.6665   -1.9268 C   0  0  0  0  0  0  0  0  0  0  0  0
    0.0411   -0.9520    0.4783 C   0  0  0  0  0  0  0  0  0  0  0  0
   -1.3160   -1.5664    0.2854 C   0  0  2  0  0  0  0  0  0  0  0  0
   -1.2700   -2.5234   -0.7247 O   0  0  0  0  0  0  0  0  0  0  0  0
   -2.4104   -0.5630    0.1428 C   0  0  1  0  0  0  0  0  0  0  0  0
   -2.1096    0.5646   -0.7944 C   0  0  1  0  0  0  0  0  0  0  0  0
   -3.1134    1.6633   -0.5373 C   0  0  0  0  0  0  0  0  0  0  0  0
   -4.5481    1.1850   -0.5520 C   0  0  0  0  0  0  0  0  0  0  0  0
   -4.7499   -0.1459    0.0268 C   0  0  0  0  0  0  0  0  0  0  0  0
   -5.8161   -0.3499    0.7880 C   0  0  0  0  0  0  0  0  0  0  0  0
   -6.0281   -1.6675    1.3706 C   0  0  0  0  0  0  0  0  0  0  0  0
   -7.0264   -1.8646    2.0851 O   0  0  0  0  0  0  0  0  0  0  0  0
   -5.0913   -2.7565    1.1303 C   0  0  0  0  0  0  0  0  0  0  0  0
   -4.0741   -2.4203    0.3555 C   0  0  0  0  0  0  0  0  0  0  0  0
   -3.7031   -1.1623   -0.3121 C   0  0  2  0  0  0  0  0  0  0  0  0
   -3.7615   -1.3568   -1.8129 C   0  0  0  0  0  0  0  0  0  0  0  0
   -0.6240    1.6144    0.4499 H   0  0  0  0  0  0  0  0  0  0  0  0
   -0.5869    3.0261   -1.6187 H   0  0  0  0  0  0  0  0  0  0  0  0
   -0.4739    1.4737   -2.6007 H   0  0  0  0  0  0  0  0  0  0  0  0
    1.6268    2.9213   -1.2018 H   0  0  0  0  0  0  0  0  0  0  0  0
    1.8225    1.6456   -2.4114 H   0  0  0  0  0  0  0  0  0  0  0  0
    3.7755    4.0788    2.8718 H   0  0  0  0  0  0  0  0  0  0  0  0
    2.4465    5.0889    2.2463 H   0  0  0  0  0  0  0  0  0  0  0  0
    2.5242    5.8331    4.3730 H   0  0  0  0  0  0  0  0  0  0  0  0
    2.9248    4.2721    5.1371 H   0  0  0  0  0  0  0  0  0  0  0  0
    1.2317    4.6136    4.5156 H   0  0  0  0  0  0  0  0  0  0  0  0
    4.5055    0.7871    0.6139 H   0  0  0  0  0  0  0  0  0  0  0  0
    3.5871   -0.6171    1.2252 H   0  0  0  0  0  0  0  0  0  0  0  0
    6.2267   -2.2551   -2.3419 H   0  0  0  0  0  0  0  0  0  0  0  0
    6.7541   -2.8530   -0.7644 H   0  0  0  0  0  0  0  0  0  0  0  0
    6.4078   -4.9037   -1.8666 H   0  0  0  0  0  0  0  0  0  0  0  0
    4.7703   -4.6818   -1.2430 H   0  0  0  0  0  0  0  0  0  0  0  0
    5.1973   -4.1621   -2.9644 H   0  0  0  0  0  0  0  0  0  0  0  0
    0.8627   -0.1233   -2.7244 H   0  0  0  0  0  0  0  0  0  0  0  0
    0.9122   -1.6180   -1.7819 H   0  0  0  0  0  0  0  0  0  0  0  0
   -0.6498   -0.9366   -2.3249 H   0  0  0  0  0  0  0  0  0  0  0  0
    0.2164   -0.5812    1.5070 H   0  0  0  0  0  0  0  0  0  0  0  0
    0.7692   -1.8049    0.3394 H   0  0  0  0  0  0  0  0  0  0  0  0
   -1.5405   -2.1437    1.2128 H   0  0  0  0  0  0  0  0  0  0  0  0
   -0.6900   -3.2630   -0.3946 H   0  0  0  0  0  0  0  0  0  0  0  0
   -2.6023   -0.1140    1.1410 H   0  0  0  0  0  0  0  0  0  0  0  0
   -2.1762    0.3318   -1.8603 H   0  0  0  0  0  0  0  0  0  0  0  0
   -2.9997    2.4946   -1.2629 H   0  0  0  0  0  0  0  0  0  0  0  0
   -2.8972    2.1448    0.4613 H   0  0  0  0  0  0  0  0  0  0  0  0
   -4.9027    1.1945   -1.5991 H   0  0  0  0  0  0  0  0  0  0  0  0
   -5.2151    1.9337   -0.0316 H   0  0  0  0  0  0  0  0  0  0  0  0
   -6.5051    0.4652    0.9601 H   0  0  0  0  0  0  0  0  0  0  0  0
   -5.1798   -3.7519    1.5246 H   0  0  0  0  0  0  0  0  0  0  0  0
   -3.3332   -3.1976    0.1377 H   0  0  0  0  0  0  0  0  0  0  0  0
   -4.6397   -2.0320   -2.0231 H   0  0  0  0  0  0  0  0  0  0  0  0
   -2.8823   -1.8119   -2.2577 H   0  0  0  0  0  0  0  0  0  0  0  0
   -3.9885   -0.4317   -2.3756 H   0  0  0  0  0  0  0  0  0  0  0  0
  1  2  1  0
  2  3  1  0
  3  4  1  0
  4  5  1  1
  5  6  1  0
  6  7  2  0
  6  8  1  0
  8  9  1  0
  9 10  1  0
  4 11  1  0
 11 12  2  0
 11 13  1  0
 13 14  1  0
 14 15  1  0
 15 16  2  0
 15 17  1  0
 17 18  1  0
  4 19  1  0
 19 20  1  6
 19 21  1  0
 21 22  1  0
 22 23  1  0
 22 24  1  0
 24 25  1  0
 25 26  1  0
 26 27  1  0
 27 28  1  0
 28 29  2  0
 29 30  1  0
 30 31  2  0
 30 32  1  0
 32 33  2  0
 33 34  1  0
 34 35  1  6
 19  1  1  0
 34 24  1  0
 25  1  1  0
 34 28  1  0
  1 36  1  1
  2 37  1  0
  2 38  1  0
  3 39  1  0
  3 40  1  0
  9 41  1  0
  9 42  1  0
 10 43  1  0
 10 44  1  0
 10 45  1  0
 13 46  1  0
 13 47  1  0
 17 48  1  0
 17 49  1  0
 18 50  1  0
 18 51  1  0
 18 52  1  0
 20 53  1  0
 20 54  1  0
 20 55  1  0
 21 56  1  0
 21 57  1  0
 22 58  1  1
 23 59  1  0
 24 60  1  1
 25 61  1  6
 26 62  1  0
 26 63  1  0
 27 64  1  0
 27 65  1  0
 29 66  1  0
 32 67  1  0
 33 68  1  0
 35 69  1  0
 35 70  1  0
 35 71  1  0
M  END
$$$$
