@<TRIPOS>MOLECULE
*****
 57 57 0 0 0
SMALL
GASTEIGER

@<TRIPOS>ATOM
      1 N           2.7703   -3.4275   -2.0751 N.3     1  UNK1       -0.3184
      2 C           2.7983   -2.8503   -0.7513 C.3     1  UNK1        0.1037
      3 C           2.1758   -1.4919   -0.8330 C.3     1  UNK1       -0.0191
      4 C           2.1895   -0.8589    0.5414 C.3     1  UNK1        0.0259
      5 C           1.5505    0.4904    0.3681 C.2     1  UNK1        0.2137
      6 O           1.2278    0.6143   -0.8528 O.2     1  UNK1       -0.2758
      7 N           1.3731    1.4127    1.4346 N.am    1  UNK1       -0.3033
      8 C           0.7409    2.6469    1.0602 C.3     1  UNK1        0.1085
      9 C          -0.5334    2.8371    1.8506 C.3     1  UNK1        0.0252
     10 S          -1.7353    1.5307    1.5983 S.3     1  UNK1       -0.0990
     11 C          -2.3138    1.5862   -0.1126 C.3     1  UNK1        0.2066
     12 O          -3.0335    2.7169   -0.4256 O.3     1  UNK1       -0.3587
     13 O          -3.0538    0.4260   -0.4307 O.3     1  UNK1       -0.3379
     14 C          -2.3255   -0.2466   -1.4101 C.3     1  UNK1        0.0765
     15 C          -3.0012   -1.4907   -1.8276 C.ar    1  UNK1       -0.0214
     16 C          -3.9175   -1.5871   -2.8542 C.ar    1  UNK1       -0.0500
     17 C          -4.5151   -2.8059   -3.1891 C.ar    1  UNK1        0.0159
     18 C          -4.1844   -3.9580   -2.4747 C.ar    1  UNK1        0.2732
     19 C          -3.2663   -3.8208   -1.4577 C.ar    1  UNK1        0.0159
     20 C          -2.6511   -2.6292   -1.0949 C.ar    1  UNK1       -0.0500
     21 N          -4.7637   -5.2259   -2.7743 N.pl3   1  UNK1        0.0796
     22 O          -4.3512   -6.2803   -1.9937 O.co2   1  UNK1       -0.5760
     23 O          -5.5897   -5.3082   -3.7019 O.2     1  UNK1        0.0414
     24 C           1.6151    3.8262    1.3769 C.2     1  UNK1        0.2346
     25 O           1.1812    4.9933    1.0976 O.2     1  UNK1       -0.2737
     26 N           2.9012    3.6193    1.9781 N.am    2  GLY2       -0.3033
     27 CA          3.7735    4.7398    2.2983 C.3     2  GLY2        0.1089
     28 C           3.0551    5.6061    3.2514 C.2     2  GLY2        0.3221
     29 O           3.5088    6.7774    3.8184 O.3     2  GLY2       -0.4795
     30 OXT         1.8868    5.2869    3.6257 O.2     2  GLY2       -0.2492
     31 C           1.9308   -3.6826    0.1388 C.2     1  UNK1        0.3217
     32 O           1.1800   -4.3361    1.0762 O.3     1  UNK1       -0.4795
     33 O           1.5340   -4.5479   -0.6665 O.2     1  UNK1       -0.2493
     34 H           3.3631   -2.9384   -2.7529 H       1  UNK1        0.1190
     35 H           2.8872   -4.4446   -2.0302 H       1  UNK1        0.1190
     36 H           3.8208   -2.7679   -0.3862 H       1  UNK1        0.0574
     37 H           1.1180   -1.5220   -1.1776 H       1  UNK1        0.0290
     38 H           2.7361   -0.8039   -1.5079 H       1  UNK1        0.0290
     39 H           1.5700   -1.4424    1.2648 H       1  UNK1        0.0359
     40 H           3.2178   -0.7041    0.9103 H       1  UNK1        0.0359
     41 H           1.6958    1.1577    2.3884 H       1  UNK1        0.1495
     42 H           0.4967    2.6653   -0.0003 H       1  UNK1        0.0603
     43 H          -0.9326    3.8434    1.5387 H       1  UNK1        0.0401
     44 H          -0.2946    2.9692    2.9371 H       1  UNK1        0.0401
     45 H          -1.3959    1.5581   -0.7633 H       1  UNK1        0.1036
     46 H          -3.7304    2.8531    0.2564 H       1  UNK1        0.2133
     47 H          -1.3132   -0.4244   -1.0104 H       1  UNK1        0.0611
     48 H          -2.2722    0.4796   -2.2734 H       1  UNK1        0.0611
     49 H          -4.1654   -0.6956   -3.3980 H       1  UNK1        0.0623
     50 H          -5.2229   -2.9040   -3.9750 H       1  UNK1        0.0685
     51 H          -2.9864   -4.7011   -0.8804 H       1  UNK1        0.0685
     52 H          -1.9404   -2.5937   -0.2874 H       1  UNK1        0.0623
     53 H           3.1596    2.6171    2.1656 H       2  GLY2        0.1493
     54 HA1         4.6850    4.2946    2.7750 H       2  GLY2        0.0577
     55 HA2         4.1256    5.2719    1.4033 H       2  GLY2        0.0577
     56 H           2.9131    7.6008    3.9497 H       2  GLY2        0.2951
     57 H           0.3076   -3.9309    1.3899 H       1  UNK1        0.2951
@<TRIPOS>UNITY_ATOM_ATTR
21 1
charge 1
22 1
charge -1
@<TRIPOS>BOND
     1     1     2    1
     2     2     3    1
     3     3     4    1
     4     4     5    1
     5     5     6    2
     6     5     7   am
     7     7     8    1
     8     8     9    1
     9     9    10    1
    10    10    11    1
    11    11    12    1
    12    11    13    1
    13    13    14    1
    14    14    15    1
    15    15    16   ar
    16    16    17   ar
    17    17    18   ar
    18    18    19   ar
    19    19    20   ar
    20    18    21    1
    21    21    22    1
    22    21    23    2
    23     8    24    1
    24    24    25    2
    25    24    26   am
    26    26    27    1
    27    27    28    1
    28    28    29    1
    29    28    30    2
    30     2    31    1
    31    31    32    1
    32    31    33    2
    33    20    15   ar
    34     1    34    1
    35     1    35    1
    36     2    36    1
    37     3    37    1
    38     3    38    1
    39     4    39    1
    40     4    40    1
    41     7    41    1
    42     8    42    1
    43     9    43    1
    44     9    44    1
    45    11    45    1
    46    12    46    1
    47    14    47    1
    48    14    48    1
    49    16    49    1
    50    17    50    1
    51    19    51    1
    52    20    52    1
    53    26    53    1
    54    27    54    1
    55    27    55    1
    56    29    56    1
    57    32    57    1
