
     RDKit          3D

 44 46  0  0  0  0  0  0  0  0999 V2000
   -4.9656    0.7793    1.3511 C   0  0  0  0  0  0  0  0  0  0  0  0
   -3.5742    0.6720    1.0173 N   0  0  0  0  0  0  0  0  0  0  0  0
   -3.1704   -0.7125    0.8486 C   0  0  1  0  0  0  0  0  0  0  0  0
   -4.1328   -1.1313   -0.2707 C   0  0  0  0  0  0  0  0  0  0  0  0
   -3.8554    0.0089   -1.2568 C   0  0  0  0  0  0  0  0  0  0  0  0
   -3.4351    1.1445   -0.3682 C   0  0  2  0  0  0  0  0  0  0  0  0
   -1.9884    1.5367   -0.5156 C   0  0  0  0  0  0  0  0  0  0  0  0
   -1.0885    0.5495    0.1787 C   0  0  1  0  0  0  0  0  0  0  0  0
   -1.7984   -0.8094    0.2634 C   0  0  0  0  0  0  0  0  0  0  0  0
    0.0914    0.2836   -0.5270 O   0  0  0  0  0  0  0  0  0  0  0  0
    1.3632    0.3597   -0.0373 C   0  0  0  0  0  0  0  0  0  0  0  0
    1.3583    0.7121    1.1761 O   0  0  0  0  0  0  0  0  0  0  0  0
    2.4110    0.0155   -1.0364 C   0  0  0  0  0  0  0  0  0  0  0  0
    2.1516   -1.3719   -1.5585 C   0  0  0  0  0  0  0  0  0  0  0  0
    2.1817   -2.3028   -0.5497 O   0  0  0  0  0  0  0  0  0  0  0  0
    3.7712    0.1034   -0.4903 C   0  0  0  0  0  0  0  0  0  0  0  0
    4.2843   -0.6319    0.5653 C   0  0  0  0  0  0  0  0  0  0  0  0
    5.5767   -0.4903    1.0201 C   0  0  0  0  0  0  0  0  0  0  0  0
    6.4286    0.4178    0.4191 C   0  0  0  0  0  0  0  0  0  0  0  0
    5.9596    1.1576   -0.6206 C   0  0  0  0  0  0  0  0  0  0  0  0
    4.6631    1.0031   -1.0629 C   0  0  0  0  0  0  0  0  0  0  0  0
   -5.3068    0.0196    2.1028 H   0  0  0  0  0  0  0  0  0  0  0  0
   -5.0969    1.8025    1.8098 H   0  0  0  0  0  0  0  0  0  0  0  0
   -5.6400    0.8110    0.4540 H   0  0  0  0  0  0  0  0  0  0  0  0
   -3.3035   -1.3182    1.7590 H   0  0  0  0  0  0  0  0  0  0  0  0
   -3.8271   -2.1102   -0.6790 H   0  0  0  0  0  0  0  0  0  0  0  0
   -5.1758   -1.1396    0.0554 H   0  0  0  0  0  0  0  0  0  0  0  0
   -3.0717   -0.2696   -1.9911 H   0  0  0  0  0  0  0  0  0  0  0  0
   -4.8284    0.1898   -1.7836 H   0  0  0  0  0  0  0  0  0  0  0  0
   -4.1282    1.9801   -0.5446 H   0  0  0  0  0  0  0  0  0  0  0  0
   -1.8894    2.5407   -0.0125 H   0  0  0  0  0  0  0  0  0  0  0  0
   -1.6997    1.7104   -1.5756 H   0  0  0  0  0  0  0  0  0  0  0  0
   -0.9138    0.8466    1.2337 H   0  0  0  0  0  0  0  0  0  0  0  0
   -1.1176   -1.4633    0.8823 H   0  0  0  0  0  0  0  0  0  0  0  0
   -1.7564   -1.2309   -0.7619 H   0  0  0  0  0  0  0  0  0  0  0  0
    2.2399    0.7130   -1.8883 H   0  0  0  0  0  0  0  0  0  0  0  0
    1.0906   -1.3422   -1.9445 H   0  0  0  0  0  0  0  0  0  0  0  0
    2.7605   -1.6255   -2.4369 H   0  0  0  0  0  0  0  0  0  0  0  0
    1.4906   -3.0035   -0.5957 H   0  0  0  0  0  0  0  0  0  0  0  0
    3.6112   -1.3390    1.0288 H   0  0  0  0  0  0  0  0  0  0  0  0
    5.9518   -1.0778    1.8470 H   0  0  0  0  0  0  0  0  0  0  0  0
    7.4414    0.5134    0.7924 H   0  0  0  0  0  0  0  0  0  0  0  0
    6.6012    1.8851   -1.1213 H   0  0  0  0  0  0  0  0  0  0  0  0
    4.3359    1.6136   -1.8927 H   0  0  0  0  0  0  0  0  0  0  0  0
  1  2  1  0
  2  3  1  0
  3  4  1  0
  4  5  1  0
  5  6  1  0
  6  7  1  0
  7  8  1  0
  8  9  1  0
  8 10  1  0
 10 11  1  0
 11 12  2  0
 11 13  1  0
 13 14  1  0
 14 15  1  0
 13 16  1  0
 16 17  2  0
 17 18  1  0
 18 19  2  0
 19 20  1  0
 20 21  2  0
  6  2  1  0
 21 16  1  0
  9  3  1  0
  1 22  1  0
  1 23  1  0
  1 24  1  0
  3 25  1  1
  4 26  1  0
  4 27  1  0
  5 28  1  0
  5 29  1  0
  6 30  1  1
  7 31  1  0
  7 32  1  0
  8 33  1  1
  9 34  1  0
  9 35  1  0
 13 36  1  0
 14 37  1  0
 14 38  1  0
 15 39  1  0
 17 40  1  0
 18 41  1  0
 19 42  1  0
 20 43  1  0
 21 44  1  0
M  END
$$$$
