@<TRIPOS>MOLECULE
*****
 44 46 0 0 0
SMALL
GASTEIGER

@<TRIPOS>ATOM
      1 C          -4.9656    0.7793    1.3511 C.3     1  UNL1       -0.0122
      2 N          -3.5742    0.6720    1.0173 N.3     1  UNL1       -0.2992
      3 C          -3.1704   -0.7125    0.8486 C.3     1  UNL1        0.0138
      4 C          -4.1328   -1.1313   -0.2707 C.3     1  UNL1       -0.0358
      5 C          -3.8554    0.0089   -1.2568 C.3     1  UNL1       -0.0358
      6 C          -3.4351    1.1445   -0.3682 C.3     1  UNL1        0.0138
      7 C          -1.9884    1.5367   -0.5156 C.3     1  UNL1        0.0000
      8 C          -1.0885    0.5495    0.1787 C.3     1  UNL1        0.1059
      9 C          -1.7984   -0.8094    0.2634 C.3     1  UNL1        0.0000
     10 O           0.0914    0.2836   -0.5270 O.3     1  UNL1       -0.4608
     11 C           1.3632    0.3597   -0.0373 C.2     1  UNL1        0.3171
     12 O           1.3583    0.7121    1.1761 O.2     1  UNL1       -0.2501
     13 C           2.4110    0.0155   -1.0364 C.3     1  UNL1        0.1044
     14 C           2.1516   -1.3719   -1.5585 C.3     1  UNL1        0.0612
     15 O           2.1817   -2.3028   -0.5497 O.3     1  UNL1       -0.3939
     16 C           3.7712    0.1034   -0.4903 C.ar    1  UNL1       -0.0315
     17 C           4.2843   -0.6319    0.5653 C.ar    1  UNL1       -0.0577
     18 C           5.5767   -0.4903    1.0201 C.ar    1  UNL1       -0.0615
     19 C           6.4286    0.4178    0.4191 C.ar    1  UNL1       -0.0617
     20 C           5.9596    1.1576   -0.6206 C.ar    1  UNL1       -0.0615
     21 C           4.6631    1.0031   -1.0629 C.ar    1  UNL1       -0.0577
     22 H          -5.3068    0.0196    2.1028 H       1  UNL1        0.0391
     23 H          -5.0969    1.8025    1.8098 H       1  UNL1        0.0391
     24 H          -5.6400    0.8110    0.4540 H       1  UNL1        0.0391
     25 H          -3.3035   -1.3182    1.7590 H       1  UNL1        0.0464
     26 H          -3.8271   -2.1102   -0.6790 H       1  UNL1        0.0281
     27 H          -5.1758   -1.1396    0.0554 H       1  UNL1        0.0281
     28 H          -3.0717   -0.2696   -1.9911 H       1  UNL1        0.0281
     29 H          -4.8284    0.1898   -1.7836 H       1  UNL1        0.0281
     30 H          -4.1282    1.9801   -0.5446 H       1  UNL1        0.0464
     31 H          -1.8894    2.5407   -0.0125 H       1  UNL1        0.0316
     32 H          -1.6997    1.7104   -1.5756 H       1  UNL1        0.0316
     33 H          -0.9138    0.8466    1.2337 H       1  UNL1        0.0735
     34 H          -1.1176   -1.4633    0.8823 H       1  UNL1        0.0316
     35 H          -1.7564   -1.2309   -0.7619 H       1  UNL1        0.0316
     36 H           2.2399    0.7130   -1.8883 H       1  UNL1        0.0485
     37 H           1.0906   -1.3422   -1.9445 H       1  UNL1        0.0568
     38 H           2.7605   -1.6255   -2.4369 H       1  UNL1        0.0568
     39 H           1.4906   -3.0035   -0.5957 H       1  UNL1        0.2094
     40 H           3.6112   -1.3390    1.0288 H       1  UNL1        0.0621
     41 H           5.9518   -1.0778    1.8470 H       1  UNL1        0.0618
     42 H           7.4414    0.5134    0.7924 H       1  UNL1        0.0618
     43 H           6.6012    1.8851   -1.1213 H       1  UNL1        0.0618
     44 H           4.3359    1.6136   -1.8927 H       1  UNL1        0.0621
@<TRIPOS>BOND
     1     1     2    1
     2     2     3    1
     3     3     4    1
     4     4     5    1
     5     5     6    1
     6     6     7    1
     7     7     8    1
     8     8     9    1
     9     8    10    1
    10    10    11    1
    11    11    12    2
    12    11    13    1
    13    13    14    1
    14    14    15    1
    15    13    16    1
    16    16    17   ar
    17    17    18   ar
    18    18    19   ar
    19    19    20   ar
    20    20    21   ar
    21     6     2    1
    22    21    16   ar
    23     9     3    1
    24     1    22    1
    25     1    23    1
    26     1    24    1
    27     3    25    1
    28     4    26    1
    29     4    27    1
    30     5    28    1
    31     5    29    1
    32     6    30    1
    33     7    31    1
    34     7    32    1
    35     8    33    1
    36     9    34    1
    37     9    35    1
    38    13    36    1
    39    14    37    1
    40    14    38    1
    41    15    39    1
    42    17    40    1
    43    18    41    1
    44    19    42    1
    45    20    43    1
    46    21    44    1
