@<TRIPOS>MOLECULE
*****
 53 55 0 0 0
SMALL
GASTEIGER

@<TRIPOS>ATOM
      1 C          -1.8710   -0.6194    0.1498 C.3     1  UNL1        0.0158
      2 C          -2.6677   -1.7190   -0.4720 C.2     1  UNL1       -0.0770
      3 C          -3.9118   -1.8026   -0.0100 C.2     1  UNL1       -0.0759
      4 C          -4.8535   -2.8376   -0.5126 C.3     1  UNL1       -0.0438
      5 C          -4.3097   -0.8079    1.0337 C.3     1  UNL1       -0.0316
      6 C          -3.9831    0.6116    0.5539 C.3     1  UNL1       -0.0421
      7 C          -2.6309    0.6677   -0.1152 C.3     1  UNL1        0.0091
      8 C          -1.7869    1.8064    0.4045 C.3     1  UNL1        0.1087
      9 C          -1.4008    1.6495    1.8455 C.3     1  UNL1       -0.0249
     10 C          -2.4803    3.1415    0.2360 C.3     1  UNL1       -0.0249
     11 O          -0.6009    1.8468   -0.3678 O.3     1  UNL1       -0.4855
     12 C           0.1031    0.6786   -0.6410 C.ar    1  UNL1        0.1288
     13 C          -0.5069   -0.5377   -0.3922 C.ar    1  UNL1        0.0428
     14 C           0.2781   -1.6258   -0.6980 C.ar    1  UNL1        0.1243
     15 O          -0.2355   -2.8999   -0.4872 O.3     1  UNL1       -0.5063
     16 C           1.5549   -1.5496   -1.2053 C.ar    1  UNL1       -0.0165
     17 C           2.1002   -0.3082   -1.4286 C.ar    1  UNL1       -0.0404
     18 C           3.4645   -0.2012   -1.9708 C.3     1  UNL1       -0.0275
     19 C           4.4876   -0.1554   -0.8420 C.3     1  UNL1       -0.0491
     20 C           4.2278    1.0553    0.0630 C.3     1  UNL1       -0.0530
     21 C           5.3085    0.9884    1.1429 C.3     1  UNL1       -0.0559
     22 C           5.1275   -0.3234    1.8610 C.3     1  UNL1       -0.0653
     23 C           1.3885    0.8577   -1.1523 C.ar    1  UNL1       -0.0162
     24 H          -1.8032   -0.8123    1.2426 H       1  UNL1        0.0398
     25 H          -2.4064   -2.4571   -1.2319 H       1  UNL1        0.0578
     26 H          -5.2477   -2.4732   -1.4823 H       1  UNL1        0.0274
     27 H          -5.6626   -3.0528    0.1964 H       1  UNL1        0.0274
     28 H          -4.2843   -3.7899   -0.6702 H       1  UNL1        0.0274
     29 H          -5.3766   -0.8814    1.2528 H       1  UNL1        0.0310
     30 H          -3.7082   -0.9729    1.9545 H       1  UNL1        0.0310
     31 H          -4.1174    1.3021    1.3858 H       1  UNL1        0.0272
     32 H          -4.7458    0.8320   -0.2405 H       1  UNL1        0.0272
     33 H          -2.7123    0.7981   -1.2147 H       1  UNL1        0.0348
     34 H          -1.5856    2.5905    2.4197 H       1  UNL1        0.0268
     35 H          -0.3196    1.4147    1.9805 H       1  UNL1        0.0268
     36 H          -1.9777    0.8697    2.3838 H       1  UNL1        0.0268
     37 H          -2.3941    3.5600   -0.7811 H       1  UNL1        0.0268
     38 H          -3.5379    3.0721    0.5500 H       1  UNL1        0.0268
     39 H          -1.9823    3.8553    0.9254 H       1  UNL1        0.0268
     40 H          -0.0538   -3.3998    0.3721 H       1  UNL1        0.2921
     41 H           2.1602   -2.4192   -1.4409 H       1  UNL1        0.0657
     42 H           3.6963   -1.0784   -2.5767 H       1  UNL1        0.0313
     43 H           3.6014    0.7381   -2.5482 H       1  UNL1        0.0313
     44 H           4.3731   -1.0768   -0.2536 H       1  UNL1        0.0268
     45 H           5.4782   -0.0512   -1.3003 H       1  UNL1        0.0268
     46 H           3.2373    0.8516    0.5477 H       1  UNL1        0.0265
     47 H           4.2405    1.9891   -0.5070 H       1  UNL1        0.0265
     48 H           6.2873    1.0509    0.6593 H       1  UNL1        0.0263
     49 H           5.1339    1.8011    1.8980 H       1  UNL1        0.0263
     50 H           5.6450   -1.1511    1.3430 H       1  UNL1        0.0230
     51 H           4.0404   -0.5615    1.8537 H       1  UNL1        0.0230
     52 H           5.4343   -0.2990    2.9272 H       1  UNL1        0.0230
     53 H           1.7856    1.8357   -1.3153 H       1  UNL1        0.0657
@<TRIPOS>BOND
     1     1     2    1
     2     2     3    2
     3     3     4    1
     4     3     5    1
     5     5     6    1
     6     6     7    1
     7     7     8    1
     8     8     9    1
     9     8    10    1
    10     8    11    1
    11    11    12    1
    12    12    13   ar
    13    13    14   ar
    14    14    15    1
    15    14    16   ar
    16    16    17   ar
    17    17    18    1
    18    18    19    1
    19    19    20    1
    20    20    21    1
    21    21    22    1
    22    17    23   ar
    23     7     1    1
    24    23    12   ar
    25    13     1    1
    26     1    24    1
    27     2    25    1
    28     4    26    1
    29     4    27    1
    30     4    28    1
    31     5    29    1
    32     5    30    1
    33     6    31    1
    34     6    32    1
    35     7    33    1
    36     9    34    1
    37     9    35    1
    38     9    36    1
    39    10    37    1
    40    10    38    1
    41    10    39    1
    42    15    40    1
    43    16    41    1
    44    18    42    1
    45    18    43    1
    46    19    44    1
    47    19    45    1
    48    20    46    1
    49    20    47    1
    50    21    48    1
    51    21    49    1
    52    22    50    1
    53    22    51    1
    54    22    52    1
    55    23    53    1
