
     RDKit          3D

 53 55  0  0  0  0  0  0  0  0999 V2000
   -1.8710   -0.6194    0.1498 C   0  0  2  0  0  0  0  0  0  0  0  0
   -2.6677   -1.7190   -0.4720 C   0  0  0  0  0  0  0  0  0  0  0  0
   -3.9118   -1.8026   -0.0100 C   0  0  0  0  0  0  0  0  0  0  0  0
   -4.8535   -2.8376   -0.5126 C   0  0  0  0  0  0  0  0  0  0  0  0
   -4.3097   -0.8079    1.0337 C   0  0  0  0  0  0  0  0  0  0  0  0
   -3.9831    0.6116    0.5539 C   0  0  0  0  0  0  0  0  0  0  0  0
   -2.6309    0.6677   -0.1152 C   0  0  1  0  0  0  0  0  0  0  0  0
   -1.7869    1.8064    0.4045 C   0  0  0  0  0  0  0  0  0  0  0  0
   -1.4008    1.6495    1.8455 C   0  0  0  0  0  0  0  0  0  0  0  0
   -2.4803    3.1415    0.2360 C   0  0  0  0  0  0  0  0  0  0  0  0
   -0.6009    1.8468   -0.3678 O   0  0  0  0  0  0  0  0  0  0  0  0
    0.1031    0.6786   -0.6410 C   0  0  0  0  0  0  0  0  0  0  0  0
   -0.5069   -0.5377   -0.3922 C   0  0  0  0  0  0  0  0  0  0  0  0
    0.2781   -1.6258   -0.6980 C   0  0  0  0  0  0  0  0  0  0  0  0
   -0.2355   -2.8999   -0.4872 O   0  0  0  0  0  0  0  0  0  0  0  0
    1.5549   -1.5496   -1.2053 C   0  0  0  0  0  0  0  0  0  0  0  0
    2.1002   -0.3082   -1.4286 C   0  0  0  0  0  0  0  0  0  0  0  0
    3.4645   -0.2012   -1.9708 C   0  0  0  0  0  0  0  0  0  0  0  0
    4.4876   -0.1554   -0.8420 C   0  0  0  0  0  0  0  0  0  0  0  0
    4.2278    1.0553    0.0630 C   0  0  0  0  0  0  0  0  0  0  0  0
    5.3085    0.9884    1.1429 C   0  0  0  0  0  0  0  0  0  0  0  0
    5.1275   -0.3234    1.8610 C   0  0  0  0  0  0  0  0  0  0  0  0
    1.3885    0.8577   -1.1523 C   0  0  0  0  0  0  0  0  0  0  0  0
   -1.8032   -0.8123    1.2426 H   0  0  0  0  0  0  0  0  0  0  0  0
   -2.4064   -2.4571   -1.2319 H   0  0  0  0  0  0  0  0  0  0  0  0
   -5.2477   -2.4732   -1.4823 H   0  0  0  0  0  0  0  0  0  0  0  0
   -5.6626   -3.0528    0.1964 H   0  0  0  0  0  0  0  0  0  0  0  0
   -4.2843   -3.7899   -0.6702 H   0  0  0  0  0  0  0  0  0  0  0  0
   -5.3766   -0.8814    1.2528 H   0  0  0  0  0  0  0  0  0  0  0  0
   -3.7082   -0.9729    1.9545 H   0  0  0  0  0  0  0  0  0  0  0  0
   -4.1174    1.3021    1.3858 H   0  0  0  0  0  0  0  0  0  0  0  0
   -4.7458    0.8320   -0.2405 H   0  0  0  0  0  0  0  0  0  0  0  0
   -2.7123    0.7981   -1.2147 H   0  0  0  0  0  0  0  0  0  0  0  0
   -1.5856    2.5905    2.4197 H   0  0  0  0  0  0  0  0  0  0  0  0
   -0.3196    1.4147    1.9805 H   0  0  0  0  0  0  0  0  0  0  0  0
   -1.9777    0.8697    2.3838 H   0  0  0  0  0  0  0  0  0  0  0  0
   -2.3941    3.5600   -0.7811 H   0  0  0  0  0  0  0  0  0  0  0  0
   -3.5379    3.0721    0.5500 H   0  0  0  0  0  0  0  0  0  0  0  0
   -1.9823    3.8553    0.9254 H   0  0  0  0  0  0  0  0  0  0  0  0
   -0.0538   -3.3998    0.3721 H   0  0  0  0  0  0  0  0  0  0  0  0
    2.1602   -2.4192   -1.4409 H   0  0  0  0  0  0  0  0  0  0  0  0
    3.6963   -1.0784   -2.5767 H   0  0  0  0  0  0  0  0  0  0  0  0
    3.6014    0.7381   -2.5482 H   0  0  0  0  0  0  0  0  0  0  0  0
    4.3731   -1.0768   -0.2536 H   0  0  0  0  0  0  0  0  0  0  0  0
    5.4782   -0.0512   -1.3003 H   0  0  0  0  0  0  0  0  0  0  0  0
    3.2373    0.8516    0.5477 H   0  0  0  0  0  0  0  0  0  0  0  0
    4.2405    1.9891   -0.5070 H   0  0  0  0  0  0  0  0  0  0  0  0
    6.2873    1.0509    0.6593 H   0  0  0  0  0  0  0  0  0  0  0  0
    5.1339    1.8011    1.8980 H   0  0  0  0  0  0  0  0  0  0  0  0
    5.6450   -1.1511    1.3430 H   0  0  0  0  0  0  0  0  0  0  0  0
    4.0404   -0.5615    1.8537 H   0  0  0  0  0  0  0  0  0  0  0  0
    5.4343   -0.2990    2.9272 H   0  0  0  0  0  0  0  0  0  0  0  0
    1.7856    1.8357   -1.3153 H   0  0  0  0  0  0  0  0  0  0  0  0
  1  2  1  0
  2  3  2  0
  3  4  1  0
  3  5  1  0
  5  6  1  0
  6  7  1  0
  7  8  1  0
  8  9  1  0
  8 10  1  0
  8 11  1  0
 11 12  1  0
 12 13  2  0
 13 14  1  0
 14 15  1  0
 14 16  2  0
 16 17  1  0
 17 18  1  0
 18 19  1  0
 19 20  1  0
 20 21  1  0
 21 22  1  0
 17 23  2  0
  7  1  1  0
 23 12  1  0
 13  1  1  0
  1 24  1  1
  2 25  1  0
  4 26  1  0
  4 27  1  0
  4 28  1  0
  5 29  1  0
  5 30  1  0
  6 31  1  0
  6 32  1  0
  7 33  1  6
  9 34  1  0
  9 35  1  0
  9 36  1  0
 10 37  1  0
 10 38  1  0
 10 39  1  0
 15 40  1  0
 16 41  1  0
 18 42  1  0
 18 43  1  0
 19 44  1  0
 19 45  1  0
 20 46  1  0
 20 47  1  0
 21 48  1  0
 21 49  1  0
 22 50  1  0
 22 51  1  0
 22 52  1  0
 23 53  1  0
M  END
$$$$
