
     RDKit          3D

 56 60  0  0  0  0  0  0  0  0999 V2000
    8.7280    0.0331    0.6665 C   0  0  0  0  0  0  0  0  0  0  0  0
    7.5797   -0.7129    1.0652 O   0  0  0  0  0  0  0  0  0  0  0  0
    6.3172   -0.1460    0.8408 C   0  0  0  0  0  0  0  0  0  0  0  0
    5.1730   -0.8168    1.2031 C   0  0  0  0  0  0  0  0  0  0  0  0
    3.9214   -0.3267    1.0155 N   0  0  0  0  0  0  0  0  0  0  0  0
    3.8225    0.8789    0.4440 C   0  0  0  0  0  0  0  0  0  0  0  0
    2.5921    1.4377    0.2260 C   0  0  0  0  0  0  0  0  0  0  0  0
    1.3779    0.7884    0.5734 N   0  0  0  0  0  0  0  0  0  0  0  0
    0.6725   -0.0184   -0.3930 C   0  0  0  0  0  0  0  0  0  0  0  0
    1.2184   -0.2094   -1.6437 C   0  0  0  0  0  0  0  0  0  0  0  0
    0.5962   -0.9596   -2.6179 C   0  0  0  0  0  0  0  0  0  0  0  0
   -0.6371   -1.5385   -2.2977 C   0  0  0  0  0  0  0  0  0  0  0  0
   -1.1924   -2.2718   -3.2871 F   0  0  0  0  0  0  0  0  0  0  0  0
   -1.2042   -1.3649   -1.0613 C   0  0  0  0  0  0  0  0  0  0  0  0
   -2.5109   -1.9723   -0.7585 C   0  0  2  0  0  0  0  0  0  0  0  0
   -2.4578   -3.4974   -0.8855 C   0  0  0  0  0  0  0  0  0  0  0  0
   -3.5275   -1.4116   -1.7638 C   0  0  0  0  0  0  0  0  0  0  0  0
   -3.7428    0.3024   -1.2917 S   0  0  0  0  0  6  0  0  0  0  0  0
   -2.4009    0.9781   -1.3949 O   0  0  0  0  0  0  0  0  0  0  0  0
   -4.7674    0.9542   -2.1769 O   0  0  0  0  0  0  0  0  0  0  0  0
   -4.2740    0.2852    0.3872 C   0  0  0  0  0  0  0  0  0  0  0  0
   -4.1392    1.6250    1.0958 C   0  0  0  0  0  0  0  0  0  0  0  0
   -5.6218    1.8441    0.8347 C   0  0  0  0  0  0  0  0  0  0  0  0
   -5.8127    2.6631   -0.2715 F   0  0  0  0  0  0  0  0  0  0  0  0
   -6.3518    2.2340    1.9294 F   0  0  0  0  0  0  0  0  0  0  0  0
   -5.7828    0.3674    0.5340 C   0  0  0  0  0  0  0  0  0  0  0  0
   -3.6488   -0.8379    1.1029 C   0  0  0  0  0  0  0  0  0  0  0  0
   -3.9333   -0.8382    2.5416 N   0  0  0  0  0  0  0  0  0  0  0  0
   -2.9511   -1.7102    0.5776 N   0  0  0  0  0  0  0  0  0  0  0  0
   -0.5414   -0.5936   -0.0911 C   0  0  0  0  0  0  0  0  0  0  0  0
    2.4440    2.6616   -0.3488 N   0  0  0  0  0  0  0  0  0  0  0  0
    3.5153    3.3549   -0.7190 C   0  0  0  0  0  0  0  0  0  0  0  0
    4.7807    2.8140   -0.5110 C   0  0  0  0  0  0  0  0  0  0  0  0
    4.9528    1.5766    0.0695 C   0  0  0  0  0  0  0  0  0  0  0  0
    6.1864    1.0619    0.2693 N   0  0  0  0  0  0  0  0  0  0  0  0
    9.5880   -0.2186    1.3074 H   0  0  0  0  0  0  0  0  0  0  0  0
    8.5386    1.1195    0.6827 H   0  0  0  0  0  0  0  0  0  0  0  0
    9.0111   -0.2293   -0.3836 H   0  0  0  0  0  0  0  0  0  0  0  0
    5.3220   -1.7999    1.6670 H   0  0  0  0  0  0  0  0  0  0  0  0
    0.9907    0.8942    1.5367 H   0  0  0  0  0  0  0  0  0  0  0  0
    2.1902    0.2746   -1.8269 H   0  0  0  0  0  0  0  0  0  0  0  0
    1.0407   -1.0957   -3.5894 H   0  0  0  0  0  0  0  0  0  0  0  0
   -1.9081   -3.8231   -1.7643 H   0  0  0  0  0  0  0  0  0  0  0  0
   -3.4937   -3.8930   -0.8404 H   0  0  0  0  0  0  0  0  0  0  0  0
   -1.9168   -3.8612    0.0161 H   0  0  0  0  0  0  0  0  0  0  0  0
   -3.1886   -1.4164   -2.7898 H   0  0  0  0  0  0  0  0  0  0  0  0
   -4.5201   -1.9208   -1.6113 H   0  0  0  0  0  0  0  0  0  0  0  0
   -3.9819    1.5408    2.2032 H   0  0  0  0  0  0  0  0  0  0  0  0
   -3.4810    2.3439    0.6052 H   0  0  0  0  0  0  0  0  0  0  0  0
   -6.2971    0.1787   -0.4308 H   0  0  0  0  0  0  0  0  0  0  0  0
   -6.2131   -0.2248    1.3440 H   0  0  0  0  0  0  0  0  0  0  0  0
   -4.8720   -1.2031    2.8018 H   0  0  0  0  0  0  0  0  0  0  0  0
   -3.2315   -0.4964    3.1976 H   0  0  0  0  0  0  0  0  0  0  0  0
   -1.0034   -0.4744    0.8629 H   0  0  0  0  0  0  0  0  0  0  0  0
    3.3781    4.3220   -1.1725 H   0  0  0  0  0  0  0  0  0  0  0  0
    5.6675    3.3483   -0.7989 H   0  0  0  0  0  0  0  0  0  0  0  0
  1  2  1  0
  2  3  1  0
  3  4  2  0
  4  5  1  0
  5  6  2  0
  6  7  1  0
  7  8  1  0
  8  9  1  0
  9 10  2  0
 10 11  1  0
 11 12  2  0
 12 13  1  0
 12 14  1  0
 14 15  1  0
 15 16  1  1
 15 17  1  0
 17 18  1  0
 18 19  2  0
 18 20  2  0
 18 21  1  0
 21 22  1  0
 22 23  1  0
 23 24  1  0
 23 25  1  0
 23 26  1  0
 21 27  1  0
 27 28  1  0
 27 29  2  0
 14 30  2  0
  7 31  2  0
 31 32  1  0
 32 33  2  0
 33 34  1  0
 34 35  2  0
 35  3  1  0
 34  6  1  0
 30  9  1  0
 29 15  1  0
 26 21  1  0
  1 36  1  0
  1 37  1  0
  1 38  1  0
  4 39  1  0
  8 40  1  0
 10 41  1  0
 11 42  1  0
 16 43  1  0
 16 44  1  0
 16 45  1  0
 17 46  1  0
 17 47  1  0
 22 48  1  0
 22 49  1  0
 26 50  1  0
 26 51  1  0
 28 52  1  0
 28 53  1  0
 30 54  1  0
 32 55  1  0
 33 56  1  0
M  END
$$$$
