@<TRIPOS>MOLECULE
*****
 56 60 0 0 0
SMALL
GASTEIGER

@<TRIPOS>ATOM
      1 C           8.7280    0.0331    0.6665 C.3     1  UNL1        0.0805
      2 O           7.5797   -0.7129    1.0652 O.3     1  UNL1       -0.4786
      3 C           6.3172   -0.1460    0.8408 C.ar    1  UNL1        0.2338
      4 C           5.1730   -0.8168    1.2031 C.ar    1  UNL1        0.0899
      5 N           3.9214   -0.3267    1.0155 N.ar    1  UNL1       -0.2447
      6 C           3.8225    0.8789    0.4440 C.ar    1  UNL1        0.1293
      7 C           2.5921    1.4377    0.2260 C.ar    1  UNL1        0.1506
      8 N           1.3779    0.7884    0.5734 N.pl3   1  UNL1       -0.2977
      9 C           0.6725   -0.0184   -0.3930 C.ar    1  UNL1        0.0330
     10 C           1.2184   -0.2094   -1.6437 C.ar    1  UNL1       -0.0378
     11 C           0.5962   -0.9596   -2.6179 C.ar    1  UNL1       -0.0243
     12 C          -0.6371   -1.5385   -2.2977 C.ar    1  UNL1        0.1311
     13 F          -1.1924   -2.2718   -3.2871 F       1  UNL1       -0.2050
     14 C          -1.2042   -1.3649   -1.0613 C.ar    1  UNL1        0.0420
     15 C          -2.5109   -1.9723   -0.7585 C.3     1  UNL1        0.1959
     16 C          -2.4578   -3.4974   -0.8855 C.3     1  UNL1       -0.0112
     17 C          -3.5275   -1.4116   -1.7638 C.3     1  UNL1        0.1184
     18 S          -3.7428    0.3024   -1.2917 S.O2    1  UNL1       -0.0091
     19 O          -2.4009    0.9781   -1.3949 O.2     1  UNL1       -0.1731
     20 O          -4.7674    0.9542   -2.1769 O.2     1  UNL1       -0.1731
     21 C          -4.2740    0.2852    0.3872 C.3     1  UNL1        0.1993
     22 C          -4.1392    1.6250    1.0958 C.3     1  UNL1        0.0474
     23 C          -5.6218    1.8441    0.8347 C.3     1  UNL1        0.2541
     24 F          -5.8127    2.6631   -0.2715 F       1  UNL1       -0.2055
     25 F          -6.3518    2.2340    1.9294 F       1  UNL1       -0.2055
     26 C          -5.7828    0.3674    0.5340 C.3     1  UNL1        0.0474
     27 C          -3.6488   -0.8379    1.1029 C.2     1  UNL1        0.3076
     28 N          -3.9333   -0.8382    2.5416 N.pl3   1  UNL1       -0.2488
     29 N          -2.9511   -1.7102    0.5776 N.2     1  UNL1       -0.0727
     30 C          -0.5414   -0.5936   -0.0911 C.ar    1  UNL1       -0.0301
     31 N           2.4440    2.6616   -0.3488 N.ar    1  UNL1       -0.2379
     32 C           3.5153    3.3549   -0.7190 C.ar    1  UNL1        0.0318
     33 C           4.7807    2.8140   -0.5110 C.ar    1  UNL1       -0.0158
     34 C           4.9528    1.5766    0.0695 C.ar    1  UNL1        0.0978
     35 N           6.1864    1.0619    0.2693 N.ar    1  UNL1       -0.2099
     36 H           9.5880   -0.2186    1.3074 H       1  UNL1        0.0660
     37 H           8.5386    1.1195    0.6827 H       1  UNL1        0.0660
     38 H           9.0111   -0.2293   -0.3836 H       1  UNL1        0.0660
     39 H           5.3220   -1.7999    1.6670 H       1  UNL1        0.0884
     40 H           0.9907    0.8942    1.5367 H       1  UNL1        0.1536
     41 H           2.1902    0.2746   -1.8269 H       1  UNL1        0.0637
     42 H           1.0407   -1.0957   -3.5894 H       1  UNL1        0.0647
     43 H          -1.9081   -3.8231   -1.7643 H       1  UNL1        0.0279
     44 H          -3.4937   -3.8930   -0.8404 H       1  UNL1        0.0279
     45 H          -1.9168   -3.8612    0.0161 H       1  UNL1        0.0279
     46 H          -3.1886   -1.4164   -2.7898 H       1  UNL1        0.0550
     47 H          -4.5201   -1.9208   -1.6113 H       1  UNL1        0.0550
     48 H          -3.9819    1.5408    2.2032 H       1  UNL1        0.0350
     49 H          -3.4810    2.3439    0.6052 H       1  UNL1        0.0350
     50 H          -6.2971    0.1787   -0.4308 H       1  UNL1        0.0350
     51 H          -6.2131   -0.2248    1.3440 H       1  UNL1        0.0350
     52 H          -4.8720   -1.2031    2.8018 H       1  UNL1        0.2881
     53 H          -3.2315   -0.4964    3.1976 H       1  UNL1        0.2881
     54 H          -1.0034   -0.4744    0.8629 H       1  UNL1        0.0641
     55 H           3.3781    4.3220   -1.1725 H       1  UNL1        0.0831
     56 H           5.6675    3.3483   -0.7989 H       1  UNL1        0.0655
@<TRIPOS>BOND
     1     1     2    1
     2     2     3    1
     3     3     4   ar
     4     4     5   ar
     5     5     6   ar
     6     6     7   ar
     7     7     8    1
     8     8     9    1
     9     9    10   ar
    10    10    11   ar
    11    11    12   ar
    12    12    13    1
    13    12    14   ar
    14    14    15    1
    15    15    16    1
    16    15    17    1
    17    17    18    1
    18    18    19    2
    19    18    20    2
    20    18    21    1
    21    21    22    1
    22    22    23    1
    23    23    24    1
    24    23    25    1
    25    23    26    1
    26    21    27    1
    27    27    28    1
    28    27    29    2
    29    14    30   ar
    30     7    31   ar
    31    31    32   ar
    32    32    33   ar
    33    33    34   ar
    34    34    35   ar
    35    35     3   ar
    36    34     6   ar
    37    30     9   ar
    38    29    15    1
    39    26    21    1
    40     1    36    1
    41     1    37    1
    42     1    38    1
    43     4    39    1
    44     8    40    1
    45    10    41    1
    46    11    42    1
    47    16    43    1
    48    16    44    1
    49    16    45    1
    50    17    46    1
    51    17    47    1
    52    22    48    1
    53    22    49    1
    54    26    50    1
    55    26    51    1
    56    28    52    1
    57    28    53    1
    58    30    54    1
    59    32    55    1
    60    33    56    1
