@<TRIPOS>MOLECULE
*****
 77 81 0 0 0
SMALL
GASTEIGER

@<TRIPOS>ATOM
      1 C         -11.4761   -1.1375   -1.3364 C.3     1  UNL1       -0.0524
      2 C         -10.3696   -0.2573   -1.8747 C.3     1  UNL1       -0.0039
      3 N          -9.3497    0.0155   -0.8911 N.3     1  UNL1       -0.3002
      4 C          -9.8333    0.8494    0.1803 C.3     1  UNL1        0.0117
      5 C          -9.1905    0.3561    1.4789 C.3     1  UNL1        0.0120
      6 N          -7.7593    0.2129    1.2654 N.3     1  UNL1       -0.2957
      7 C          -7.0401    0.0978    2.5221 C.3     1  UNL1        0.0247
      8 C          -5.6020   -0.0415    2.2293 C.ar    1  UNL1       -0.0216
      9 C          -5.0329   -1.3102    2.3650 C.ar    1  UNL1       -0.0551
     10 C          -3.7113   -1.4930    2.1087 C.ar    1  UNL1       -0.0402
     11 C          -2.9005   -0.4233    1.7071 C.ar    1  UNL1        0.0340
     12 N          -1.5422   -0.7212    1.4680 N.am    1  UNL1       -0.2842
     13 C          -0.5357    0.1828    1.0513 C.2     1  UNL1        0.2343
     14 O          -0.8157    1.3748    0.8586 O.2     1  UNL1       -0.2738
     15 C           0.8574   -0.2765    0.8398 C.3     1  UNL1        0.0861
     16 N           1.6554    0.8372    0.4220 N.pl3   1  UNL1       -0.3354
     17 C           3.0628    0.7100    0.1443 C.ar    1  UNL1        0.0275
     18 C           3.7137   -0.4980    0.2715 C.ar    1  UNL1       -0.0403
     19 C           5.0693   -0.5949   -0.0018 C.ar    1  UNL1       -0.0522
     20 C           5.8209    0.4889   -0.4066 C.ar    1  UNL1       -0.0163
     21 C           7.2448    0.3806   -0.6919 C.ar    1  UNL1        0.0004
     22 C           7.7546   -0.7874   -1.1988 C.ar    1  UNL1       -0.0493
     23 C           9.1075   -0.9538   -1.4941 C.ar    1  UNL1       -0.0209
     24 C           9.9656    0.0733   -1.2759 C.ar    1  UNL1        0.1249
     25 N          11.3529    0.0437   -1.5286 N.am    1  UNL1       -0.2702
     26 C          12.0705   -1.0546   -2.0439 C.2     1  UNL1        0.2213
     27 O          11.5390   -2.1281   -2.3316 O.2     1  UNL1       -0.2751
     28 C          13.5442   -0.9043   -2.2487 C.3     1  UNL1        0.0360
     29 C          14.0280    0.3903   -2.8706 C.3     1  UNL1       -0.0412
     30 C          14.3244    0.0400   -1.4243 C.3     1  UNL1       -0.0412
     31 N           9.4540    1.2290   -0.7730 N.ar    1  UNL1       -0.2395
     32 C           8.1548    1.3959   -0.4869 C.ar    1  UNL1        0.0374
     33 C           5.1586    1.6969   -0.5313 C.ar    1  UNL1       -0.0522
     34 C           3.8105    1.7935   -0.2594 C.ar    1  UNL1       -0.0403
     35 C          -3.4886    0.8065    1.5837 C.ar    1  UNL1       -0.0285
     36 C          -4.8485    1.0224    1.8418 C.ar    1  UNL1        0.0609
     37 C          -5.4639    2.3585    1.7039 C.3     1  UNL1        0.4178
     38 F          -6.0134    2.8328    2.8769 F       1  UNL1       -0.1659
     39 F          -6.3910    2.3862    0.6585 F       1  UNL1       -0.1659
     40 F          -4.4750    3.2835    1.3501 F       1  UNL1       -0.1659
     41 C          -7.4415   -0.8216    0.3316 C.3     1  UNL1        0.0120
     42 C          -8.7028   -1.1797   -0.4380 C.3     1  UNL1        0.0117
     43 H         -12.1718   -1.3356   -2.1731 H       1  UNL1        0.0242
     44 H         -12.0752   -0.5766   -0.5707 H       1  UNL1        0.0242
     45 H         -11.0612   -2.0684   -0.9417 H       1  UNL1        0.0242
     46 H          -9.8760   -0.8394   -2.6942 H       1  UNL1        0.0424
     47 H         -10.7641    0.6840   -2.2595 H       1  UNL1        0.0424
     48 H         -10.9183    0.8771    0.2834 H       1  UNL1        0.0439
     49 H          -9.4599    1.8939    0.0419 H       1  UNL1        0.0439
     50 H          -9.6487   -0.5913    1.7645 H       1  UNL1        0.0439
     51 H          -9.3305    1.1257    2.2636 H       1  UNL1        0.0439
     52 H          -7.4016   -0.8280    2.9993 H       1  UNL1        0.0476
     53 H          -7.2556    0.9436    3.1988 H       1  UNL1        0.0476
     54 H          -5.6264   -2.1668    2.6752 H       1  UNL1        0.0621
     55 H          -3.2950   -2.4977    2.2243 H       1  UNL1        0.0636
     56 H          -1.1979   -1.7132    1.6028 H       1  UNL1        0.1549
     57 H           1.2359   -0.6976    1.8167 H       1  UNL1        0.0557
     58 H           0.8963   -1.1315    0.1335 H       1  UNL1        0.0557
     59 H           1.2261    1.7702    0.3105 H       1  UNL1        0.1466
     60 H           3.1562   -1.3720    0.5870 H       1  UNL1        0.0636
     61 H           5.5870   -1.5468    0.0975 H       1  UNL1        0.0624
     62 H           7.0499   -1.6060   -1.3691 H       1  UNL1        0.0625
     63 H           9.4277   -1.9241   -1.8972 H       1  UNL1        0.0652
     64 H          11.9445    0.9044   -1.3257 H       1  UNL1        0.1562
     65 H          14.0761   -1.7880   -2.6521 H       1  UNL1        0.0394
     66 H          14.9027    0.3735   -3.5543 H       1  UNL1        0.0273
     67 H          13.2163    1.1144   -3.0913 H       1  UNL1        0.0273
     68 H          13.8839    0.7315   -0.7069 H       1  UNL1        0.0273
     69 H          15.3924   -0.2215   -1.1906 H       1  UNL1        0.0273
     70 H           7.8227    2.3310   -0.0942 H       1  UNL1        0.0836
     71 H           5.7537    2.5534   -0.8520 H       1  UNL1        0.0624
     72 H           3.2969    2.7392   -0.3575 H       1  UNL1        0.0636
     73 H          -2.9265    1.6722    1.2798 H       1  UNL1        0.0642
     74 H          -7.1540   -1.7387    0.8828 H       1  UNL1        0.0439
     75 H          -6.6763   -0.5228   -0.4172 H       1  UNL1        0.0439
     76 H          -8.3706   -1.7450   -1.3306 H       1  UNL1        0.0439
     77 H          -9.3639   -1.8263    0.1648 H       1  UNL1        0.0439
@<TRIPOS>BOND
     1     1     2    1
     2     2     3    1
     3     3     4    1
     4     4     5    1
     5     5     6    1
     6     6     7    1
     7     7     8    1
     8     8     9   ar
     9     9    10   ar
    10    10    11   ar
    11    11    12    1
    12    12    13   am
    13    13    14    2
    14    13    15    1
    15    15    16    1
    16    16    17    1
    17    17    18   ar
    18    18    19   ar
    19    19    20   ar
    20    20    21    1
    21    21    22   ar
    22    22    23   ar
    23    23    24   ar
    24    24    25    1
    25    25    26   am
    26    26    27    2
    27    26    28    1
    28    28    29    1
    29    29    30    1
    30    24    31   ar
    31    31    32   ar
    32    20    33   ar
    33    33    34   ar
    34    11    35   ar
    35    35    36   ar
    36    36    37    1
    37    37    38    1
    38    37    39    1
    39    37    40    1
    40     6    41    1
    41    41    42    1
    42    42     3    1
    43    36     8   ar
    44    34    17   ar
    45    32    21   ar
    46    30    28    1
    47     1    43    1
    48     1    44    1
    49     1    45    1
    50     2    46    1
    51     2    47    1
    52     4    48    1
    53     4    49    1
    54     5    50    1
    55     5    51    1
    56     7    52    1
    57     7    53    1
    58     9    54    1
    59    10    55    1
    60    12    56    1
    61    15    57    1
    62    15    58    1
    63    16    59    1
    64    18    60    1
    65    19    61    1
    66    22    62    1
    67    23    63    1
    68    25    64    1
    69    28    65    1
    70    29    66    1
    71    29    67    1
    72    30    68    1
    73    30    69    1
    74    32    70    1
    75    33    71    1
    76    34    72    1
    77    35    73    1
    78    41    74    1
    79    41    75    1
    80    42    76    1
    81    42    77    1
