@<TRIPOS>MOLECULE
*****
 40 42 0 0 0
SMALL
GASTEIGER

@<TRIPOS>ATOM
      1 C           1.4542   -0.6652   -1.4556 C.3     1  UNL1       -0.0480
      2 C           1.6326    0.1434   -0.1564 C.3     1  UNL1        0.0231
      3 C           0.5594   -0.2473    0.8434 C.3     1  UNL1        0.0327
      4 N          -0.7722   -0.0094    0.4052 N.pl3   1  UNL1       -0.2968
      5 C          -1.2757    1.3129    0.3965 C.ar    1  UNL1        0.0479
      6 C          -0.5016    2.3485    0.8698 C.ar    1  UNL1       -0.0393
      7 C          -0.8965    3.6700    0.9234 C.ar    1  UNL1       -0.0599
      8 C          -2.1709    4.0211    0.4728 C.ar    1  UNL1       -0.0606
      9 C          -2.9807    3.0143   -0.0092 C.ar    1  UNL1       -0.0462
     10 C          -2.5106    1.7329   -0.0267 C.ar    1  UNL1        0.0341
     11 S          -3.6623    0.5433   -0.6602 S.3     1  UNL1       -0.0857
     12 C          -2.8447   -1.0386   -0.5465 C.ar    1  UNL1        0.0341
     13 C          -3.5938   -2.0931   -0.9839 C.ar    1  UNL1       -0.0462
     14 C          -3.0507   -3.3515   -0.9474 C.ar    1  UNL1       -0.0606
     15 C          -1.7697   -3.5028   -0.4706 C.ar    1  UNL1       -0.0599
     16 C          -1.0870   -2.3820   -0.0497 C.ar    1  UNL1       -0.0393
     17 C          -1.5639   -1.0893   -0.0553 C.ar    1  UNL1        0.0479
     18 N           2.9499   -0.0220    0.2869 N.3     1  UNL1       -0.3042
     19 C           3.4341   -1.3094    0.5991 C.3     1  UNL1       -0.0127
     20 C           3.9175    0.8969   -0.2407 C.3     1  UNL1       -0.0127
     21 H           1.4583   -1.7413   -1.2866 H       1  UNL1        0.0245
     22 H           2.3172   -0.4479   -2.1185 H       1  UNL1        0.0245
     23 H           0.5611   -0.2946   -2.0315 H       1  UNL1        0.0245
     24 H           1.4896    1.1890   -0.4781 H       1  UNL1        0.0475
     25 H           0.6931    0.3851    1.7792 H       1  UNL1        0.0483
     26 H           0.8242   -1.2409    1.1752 H       1  UNL1        0.0483
     27 H           0.4777    2.2675    1.2615 H       1  UNL1        0.0636
     28 H          -0.3225    4.5102    1.2854 H       1  UNL1        0.0618
     29 H          -2.5245    5.0392    0.4944 H       1  UNL1        0.0618
     30 H          -3.9629    3.3079   -0.3526 H       1  UNL1        0.0629
     31 H          -4.6014   -2.0004   -1.3627 H       1  UNL1        0.0629
     32 H          -3.6239   -4.1989   -1.2876 H       1  UNL1        0.0618
     33 H          -1.3913   -4.5129   -0.4638 H       1  UNL1        0.0618
     34 H          -0.0993   -2.6540    0.2916 H       1  UNL1        0.0636
     35 H           2.9661   -2.1106    0.0346 H       1  UNL1        0.0391
     36 H           3.4879   -1.4803    1.6973 H       1  UNL1        0.0391
     37 H           4.5179   -1.3253    0.2837 H       1  UNL1        0.0391
     38 H           3.6870    1.9454    0.0627 H       1  UNL1        0.0391
     39 H           4.9198    0.5842    0.1127 H       1  UNL1        0.0391
     40 H           3.8585    0.8058   -1.3552 H       1  UNL1        0.0391
@<TRIPOS>BOND
     1     1     2    1
     2     2     3    1
     3     3     4    1
     4     4     5    1
     5     5     6   ar
     6     6     7   ar
     7     7     8   ar
     8     8     9   ar
     9     9    10   ar
    10    10    11    1
    11    11    12    1
    12    12    13   ar
    13    13    14   ar
    14    14    15   ar
    15    15    16   ar
    16    16    17   ar
    17     2    18    1
    18    18    19    1
    19    18    20    1
    20    17     4    1
    21    10     5   ar
    22    17    12   ar
    23     1    21    1
    24     1    22    1
    25     1    23    1
    26     2    24    1
    27     3    25    1
    28     3    26    1
    29     6    27    1
    30     7    28    1
    31     8    29    1
    32     9    30    1
    33    13    31    1
    34    14    32    1
    35    15    33    1
    36    16    34    1
    37    19    35    1
    38    19    36    1
    39    19    37    1
    40    20    38    1
    41    20    39    1
    42    20    40    1
