@<TRIPOS>MOLECULE
*****
 60 61 0 0 0
SMALL
GASTEIGER

@<TRIPOS>ATOM
      1 O          -5.6180   -0.0319   -0.3103 O.2     1  UNL1       -0.3007
      2 C          -4.5377   -0.3735    0.1375 C.2     1  UNL1        0.1254
      3 C          -3.0949   -0.7337    0.4741 C.3     1  UNL1        0.0369
      4 C          -3.1686   -2.2104    0.7834 C.3     1  UNL1       -0.0357
      5 C          -3.6801   -2.9958   -0.4166 C.3     1  UNL1       -0.0620
      6 C          -4.2862   -2.3399    1.8307 C.3     1  UNL1       -0.0620
      7 C          -2.3243   -0.3772   -0.7435 C.3     1  UNL1        0.0527
      8 N          -0.9246   -0.5778   -0.7521 N.am    1  UNL1       -0.2927
      9 C          -0.7926   -0.1360   -2.1398 C.3     1  UNL1        0.0169
     10 C          -1.5488    1.2004   -2.2291 C.3     1  UNL1       -0.0183
     11 C          -2.3813    1.1214   -0.9605 C.3     1  UNL1        0.0491
     12 N          -3.6585    1.6978   -1.0210 N.3     1  UNL1       -0.1899
     13 S          -3.9895    3.0224   -0.0209 S.O2    1  UNL1        0.0268
     14 O          -5.4351    3.4209   -0.2938 O.2     1  UNL1       -0.1585
     15 O          -3.1783    4.2165   -0.4369 O.2     1  UNL1       -0.1585
     16 C          -3.8741    2.7242    1.7033 C.3     1  UNL1        0.0705
     17 C           0.1374   -0.9897    0.0821 C.2     1  UNL1        0.2395
     18 O           0.0512   -1.3327    1.2857 O.2     1  UNL1       -0.2706
     19 C           1.4961   -1.0449   -0.4456 C.2     1  UNL1       -0.0024
     20 C           2.4993   -1.4291    0.3273 C.2     1  UNL1       -0.0652
     21 C           3.9288   -1.5189   -0.1204 C.3     1  UNL1        0.0175
     22 N           4.7797   -0.6621    0.6543 N.3     1  UNL1       -0.2987
     23 C           6.1563   -0.7343    0.2397 C.3     1  UNL1       -0.0008
     24 C           6.9504    0.4805    0.6808 C.3     1  UNL1       -0.0402
     25 C           6.4009    1.7592    0.0671 C.3     1  UNL1       -0.0507
     26 C           4.9314    1.6357   -0.1881 C.3     1  UNL1       -0.0402
     27 C           4.2585    0.6676    0.7526 C.3     1  UNL1       -0.0008
     28 H          -5.4636   -0.4119    0.6559 H       1  UNL1        0.1030
     29 H          -2.8431   -0.1826    1.3684 H       1  UNL1        0.0396
     30 H          -2.2929   -2.6418    1.2599 H       1  UNL1        0.0303
     31 H          -4.0911   -2.3594   -1.2123 H       1  UNL1        0.0233
     32 H          -2.7879   -3.5694   -0.7907 H       1  UNL1        0.0233
     33 H          -4.4171   -3.7597   -0.1238 H       1  UNL1        0.0233
     34 H          -4.1163   -1.5215    2.5556 H       1  UNL1        0.0233
     35 H          -4.1239   -3.2959    2.3706 H       1  UNL1        0.0233
     36 H          -5.2815   -2.3193    1.3413 H       1  UNL1        0.0233
     37 H          -2.8362   -0.8143   -1.6593 H       1  UNL1        0.0523
     38 H          -1.2208   -0.8859   -2.8366 H       1  UNL1        0.0465
     39 H           0.2799    0.0439   -2.3226 H       1  UNL1        0.0465
     40 H          -2.1427    1.1478   -3.1448 H       1  UNL1        0.0296
     41 H          -0.8060    1.9956   -2.1969 H       1  UNL1        0.0296
     42 H          -1.7680    1.6568   -0.1885 H       1  UNL1        0.0496
     43 H          -4.1468    1.6873   -1.9185 H       1  UNL1        0.1480
     44 H          -4.4683    3.5034    2.2668 H       1  UNL1        0.0479
     45 H          -4.2907    1.7674    2.0433 H       1  UNL1        0.0479
     46 H          -2.8251    2.9086    2.0800 H       1  UNL1        0.0479
     47 H           1.8728   -0.8099   -1.4426 H       1  UNL1        0.0667
     48 H           2.3446   -1.7100    1.3600 H       1  UNL1        0.0586
     49 H           4.0003   -1.2049   -1.1778 H       1  UNL1        0.0470
     50 H           4.2606   -2.5570   -0.0137 H       1  UNL1        0.0470
     51 H           6.6772   -1.6258    0.6017 H       1  UNL1        0.0427
     52 H           6.1733   -0.7170   -0.8805 H       1  UNL1        0.0427
     53 H           7.9880    0.3103    0.3361 H       1  UNL1        0.0278
     54 H           7.0031    0.5631    1.7862 H       1  UNL1        0.0278
     55 H           6.6258    2.6141    0.7623 H       1  UNL1        0.0266
     56 H           6.9379    1.9925   -0.8829 H       1  UNL1        0.0266
     57 H           4.6884    1.3971   -1.2337 H       1  UNL1        0.0278
     58 H           4.4773    2.6374    0.0395 H       1  UNL1        0.0278
     59 H           3.1834    0.6601    0.4777 H       1  UNL1        0.0427
     60 H           4.3123    1.0418    1.7805 H       1  UNL1        0.0427
@<TRIPOS>BOND
     1     1     2    2
     2     2     3    1
     3     3     4    1
     4     4     5    1
     5     4     6    1
     6     3     7    1
     7     7     8    1
     8     8     9    1
     9     9    10    1
    10    10    11    1
    11    11    12    1
    12    12    13    1
    13    13    14    2
    14    13    15    2
    15    13    16    1
    16     8    17   am
    17    17    18    2
    18    17    19    1
    19    19    20    2
    20    20    21    1
    21    21    22    1
    22    22    23    1
    23    23    24    1
    24    24    25    1
    25    25    26    1
    26    26    27    1
    27    11     7    1
    28    27    22    1
    29     2    28    1
    30     3    29    1
    31     4    30    1
    32     5    31    1
    33     5    32    1
    34     5    33    1
    35     6    34    1
    36     6    35    1
    37     6    36    1
    38     7    37    1
    39     9    38    1
    40     9    39    1
    41    10    40    1
    42    10    41    1
    43    11    42    1
    44    12    43    1
    45    16    44    1
    46    16    45    1
    47    16    46    1
    48    19    47    1
    49    20    48    1
    50    21    49    1
    51    21    50    1
    52    23    51    1
    53    23    52    1
    54    24    53    1
    55    24    54    1
    56    25    55    1
    57    25    56    1
    58    26    57    1
    59    26    58    1
    60    27    59    1
    61    27    60    1
