@<TRIPOS>MOLECULE
*****
 57 60 0 0 0
SMALL
GASTEIGER

@<TRIPOS>ATOM
      1 C           3.8389   -1.7970    2.4708 C.3     1  UNL1        0.0788
      2 O           3.2763   -1.1221    1.3681 O.3     1  UNL1       -0.4944
      3 C           3.8922   -0.9737    0.1643 C.ar    1  UNL1        0.1322
      4 C           5.1664   -1.5363    0.0365 C.ar    1  UNL1       -0.0192
      5 C           5.8318   -1.4185   -1.1488 C.ar    1  UNL1       -0.0583
      6 C           5.2492   -0.7562   -2.1907 C.ar    1  UNL1       -0.0608
      7 C           3.9981   -0.2135   -2.0386 C.ar    1  UNL1       -0.0461
      8 C           3.2624   -0.2984   -0.8514 C.ar    1  UNL1        0.0786
      9 C           1.9606    0.3025   -0.7915 C.2     1  UNL1        0.2518
     10 O           1.5427    0.8938   -1.8552 O.2     1  UNL1       -0.2697
     11 N           1.0835    0.3107    0.3274 N.am    1  UNL1       -0.2798
     12 C          -0.1773    0.9518    0.2140 C.ar    1  UNL1        0.0570
     13 C          -0.2997    2.3251    0.4570 C.ar    1  UNL1       -0.0130
     14 C          -1.5622    2.9068    0.3456 C.ar    1  UNL1        0.0714
     15 C          -2.6625    2.1496    0.0048 C.ar    1  UNL1        0.0714
     16 C          -2.5462    0.7929   -0.2358 C.ar    1  UNL1       -0.0131
     17 C          -1.2743    0.2124   -0.1224 C.ar    1  UNL1        0.0536
     18 N          -1.1840   -1.1608   -0.3599 N.pl3   1  UNL1       -0.3232
     19 C          -0.4432   -1.8127   -1.3981 C.3     1  UNL1        0.0251
     20 C          -1.2952   -2.9191   -1.9937 C.3     1  UNL1        0.0117
     21 N          -1.6390   -3.9166   -1.0014 N.3     1  UNL1       -0.3127
     22 C          -1.3970   -3.4287    0.3464 C.3     1  UNL1        0.0143
     23 C          -1.9311   -2.0460    0.5546 C.3     1  UNL1        0.0333
     24 C          -1.7061   -1.6530    1.9909 C.3     1  UNL1       -0.0453
     25 N          -3.7270    2.9701   -0.0256 N.ar    1  UNL1       -0.2950
     26 C          -5.1137    2.5975   -0.3429 C.3     1  UNL1        0.0167
     27 C          -3.2667    4.1895    0.2908 C.ar    1  UNL1        0.3297
     28 O          -4.0094    5.2175    0.3574 O.2     1  UNL1       -0.2463
     29 N          -1.9587    4.1718    0.5191 N.ar    1  UNL1       -0.2950
     30 C          -1.0714    5.2626    0.8863 C.3     1  UNL1        0.0167
     31 H           3.9817   -2.8747    2.2618 H       1  UNL1        0.0660
     32 H           4.8697   -1.3554    2.6029 H       1  UNL1        0.0660
     33 H           3.2699   -1.6418    3.3959 H       1  UNL1        0.0660
     34 H           5.6400   -2.0634    0.8525 H       1  UNL1        0.0654
     35 H           6.8267   -1.8302   -1.3235 H       1  UNL1        0.0619
     36 H           5.7431   -0.6417   -3.1439 H       1  UNL1        0.0618
     37 H           3.5572    0.3087   -2.8843 H       1  UNL1        0.0626
     38 H           1.3501   -0.1361    1.2033 H       1  UNL1        0.1552
     39 H           0.5444    2.9138    0.7199 H       1  UNL1        0.0658
     40 H          -3.4111    0.2187   -0.4996 H       1  UNL1        0.0658
     41 H           0.5490   -2.1829   -1.0971 H       1  UNL1        0.0476
     42 H          -0.2921   -1.0864   -2.2222 H       1  UNL1        0.0476
     43 H          -0.6761   -3.4207   -2.7638 H       1  UNL1        0.0439
     44 H          -2.1817   -2.5028   -2.5060 H       1  UNL1        0.0439
     45 H          -2.6898   -4.0497   -1.0673 H       1  UNL1        0.1221
     46 H          -1.7821   -4.0987    1.1130 H       1  UNL1        0.0442
     47 H          -0.2915   -3.3798    0.4719 H       1  UNL1        0.0442
     48 H          -3.0186   -1.9625    0.3609 H       1  UNL1        0.0509
     49 H          -2.3454   -0.7936    2.2744 H       1  UNL1        0.0248
     50 H          -2.0036   -2.5096    2.6266 H       1  UNL1        0.0248
     51 H          -0.6662   -1.3663    2.2098 H       1  UNL1        0.0248
     52 H          -5.8271    3.1271    0.2923 H       1  UNL1        0.0457
     53 H          -5.1744    1.5097   -0.3120 H       1  UNL1        0.0457
     54 H          -5.2482    2.8995   -1.4172 H       1  UNL1        0.0457
     55 H          -1.6458    6.0122    1.4895 H       1  UNL1        0.0457
     56 H          -0.7322    5.8216   -0.0176 H       1  UNL1        0.0457
     57 H          -0.1833    4.8826    1.4020 H       1  UNL1        0.0457
@<TRIPOS>BOND
     1     1     2    1
     2     2     3    1
     3     3     4   ar
     4     4     5   ar
     5     5     6   ar
     6     6     7   ar
     7     7     8   ar
     8     8     9    1
     9     9    10    2
    10     9    11   am
    11    11    12    1
    12    12    13   ar
    13    13    14   ar
    14    14    15   ar
    15    15    16   ar
    16    16    17   ar
    17    17    18    1
    18    18    19    1
    19    19    20    1
    20    20    21    1
    21    21    22    1
    22    22    23    1
    23    23    24    1
    24    15    25   ar
    25    25    26    1
    26    25    27   ar
    27    27    28    2
    28    27    29   ar
    29    29    30    1
    30     8     3   ar
    31    17    12   ar
    32    23    18    1
    33    29    14   ar
    34     1    31    1
    35     1    32    1
    36     1    33    1
    37     4    34    1
    38     5    35    1
    39     6    36    1
    40     7    37    1
    41    11    38    1
    42    13    39    1
    43    16    40    1
    44    19    41    1
    45    19    42    1
    46    20    43    1
    47    20    44    1
    48    21    45    1
    49    22    46    1
    50    22    47    1
    51    23    48    1
    52    24    49    1
    53    24    50    1
    54    24    51    1
    55    26    52    1
    56    26    53    1
    57    26    54    1
    58    30    55    1
    59    30    56    1
    60    30    57    1
