@<TRIPOS>MOLECULE
*****
 51 54 0 0 0
SMALL
GASTEIGER

@<TRIPOS>ATOM
      1 O          -0.2830    3.3709    0.2535 O.2     1  UNL1       -0.2524
      2 C          -1.1404    2.4496    0.1495 C.2     1  UNL1        0.3068
      3 N          -1.6685    2.0006   -1.0718 N.am    1  UNL1       -0.2383
      4 C          -2.5941    0.9733   -0.7634 C.2     1  UNL1        0.2457
      5 O          -3.3372    0.4195   -1.6517 O.2     1  UNL1       -0.2729
      6 C          -2.5584    0.6758    0.6670 C.3     1  UNL1        0.1305
      7 C          -2.1470   -0.6682    1.1024 C.3     1  UNL1        0.0418
      8 N          -0.8667   -1.1957    0.8401 N.am    1  UNL1       -0.3125
      9 C          -0.2096   -1.4307   -0.3951 C.2     1  UNL1        0.2168
     10 O          -0.8384   -1.0995   -1.4294 O.2     1  UNL1       -0.2755
     11 C           1.1154   -2.0276   -0.5167 C.3     1  UNL1        0.0423
     12 C           2.2726   -1.4270    0.1265 C.3     1  UNL1       -0.0163
     13 C           2.7232   -0.0934   -0.1906 C.ar    1  UNL1       -0.0466
     14 C           2.2881    0.9724    0.5604 C.ar    1  UNL1       -0.0580
     15 C           2.7113    2.2783    0.3025 C.ar    1  UNL1       -0.0499
     16 C           3.5845    2.5324   -0.7234 C.ar    1  UNL1        0.0548
     17 C           4.0046    3.9518   -0.9546 C.3     1  UNL1        0.4174
     18 F           4.2406    4.2134   -2.2685 F       1  UNL1       -0.1659
     19 F           5.1599    4.1237   -0.1858 F       1  UNL1       -0.1659
     20 F           3.0529    4.8052   -0.4090 F       1  UNL1       -0.1659
     21 C           4.0276    1.4937   -1.4799 C.ar    1  UNL1       -0.0499
     22 C           3.6100    0.2077   -1.2241 C.ar    1  UNL1       -0.0580
     23 C           1.0291   -3.4801    0.0110 C.3     1  UNL1       -0.0296
     24 C           0.1255   -4.4416   -0.6188 C.3     1  UNL1       -0.0492
     25 C           1.6039   -4.5812   -0.8737 C.3     1  UNL1       -0.0492
     26 C          -3.9959    0.9189    1.1986 C.3     1  UNL1       -0.0096
     27 C          -5.1090    0.1273    0.6124 C.3     1  UNL1       -0.0474
     28 C          -4.9956    1.5863    0.3388 C.3     1  UNL1       -0.0474
     29 N          -1.7053    1.7286    1.2278 N.am    1  UNL1       -0.2834
     30 H          -1.4333    2.3494   -2.0448 H       1  UNL1        0.1591
     31 H          -2.9595   -1.4147    0.7488 H       1  UNL1        0.0488
     32 H          -2.3069   -0.7222    2.2373 H       1  UNL1        0.0488
     33 H          -0.2549   -1.4783    1.6775 H       1  UNL1        0.1488
     34 H           1.3192   -2.1773   -1.6070 H       1  UNL1        0.0400
     35 H           2.2158   -1.5066    1.2587 H       1  UNL1        0.0321
     36 H           3.1560   -2.1174   -0.0881 H       1  UNL1        0.0321
     37 H           1.5971    0.8647    1.3900 H       1  UNL1        0.0620
     38 H           2.3619    3.1066    0.9048 H       1  UNL1        0.0623
     39 H           4.7266    1.6988   -2.3012 H       1  UNL1        0.0623
     40 H           3.9407   -0.6447   -1.8043 H       1  UNL1        0.0620
     41 H           1.2490   -3.6314    1.0882 H       1  UNL1        0.0308
     42 H          -0.5289   -4.1725   -1.4916 H       1  UNL1        0.0268
     43 H          -0.3490   -5.2270    0.0084 H       1  UNL1        0.0268
     44 H           2.1727   -5.3986   -0.4116 H       1  UNL1        0.0268
     45 H           1.9554   -4.2879   -1.8785 H       1  UNL1        0.0268
     46 H          -4.0214    1.1246    2.2864 H       1  UNL1        0.0327
     47 H          -4.8745   -0.5738   -0.2074 H       1  UNL1        0.0269
     48 H          -5.9278   -0.2116    1.2983 H       1  UNL1        0.0269
     49 H          -4.8048    1.9250   -0.6788 H       1  UNL1        0.0269
     50 H          -5.7648    2.2279    0.8619 H       1  UNL1        0.0269
     51 H          -1.5685    1.8822    2.2321 H       1  UNL1        0.1513
@<TRIPOS>BOND
     1     1     2    2
     2     2     3   am
     3     3     4   am
     4     4     5    2
     5     4     6    1
     6     6     7    1
     7     7     8    1
     8     8     9   am
     9     9    10    2
    10     9    11    1
    11    11    12    1
    12    12    13    1
    13    13    14   ar
    14    14    15   ar
    15    15    16   ar
    16    16    17    1
    17    17    18    1
    18    17    19    1
    19    17    20    1
    20    16    21   ar
    21    21    22   ar
    22    11    23    1
    23    23    24    1
    24    24    25    1
    25     6    26    1
    26    26    27    1
    27    27    28    1
    28     6    29    1
    29    29     2   am
    30    22    13   ar
    31    25    23    1
    32    28    26    1
    33     3    30    1
    34     7    31    1
    35     7    32    1
    36     8    33    1
    37    11    34    1
    38    12    35    1
    39    12    36    1
    40    14    37    1
    41    15    38    1
    42    21    39    1
    43    22    40    1
    44    23    41    1
    45    24    42    1
    46    24    43    1
    47    25    44    1
    48    25    45    1
    49    26    46    1
    50    27    47    1
    51    27    48    1
    52    28    49    1
    53    28    50    1
    54    29    51    1
