@<TRIPOS>MOLECULE
*****
 55 57 0 0 0
SMALL
GASTEIGER

@<TRIPOS>ATOM
      1 C          -2.6199   -1.3189   -2.3338 C.3     0  UNK0        0.0011
      2 N          -1.9146   -1.4117   -1.0587 N.pl3   0  UNK0       -0.3271
      3 C          -2.5879   -1.7301    0.1554 C.3     0  UNK0        0.0555
      4 C          -3.6058   -0.7230    0.5507 C.ar    0  UNK0        0.0774
      5 C          -3.2263    0.3283    1.3483 C.ar    0  UNK0        0.0528
      6 N          -4.1322    1.2506    1.7173 N.ar    0  UNK0       -0.2324
      7 C          -5.4290    1.1982    1.3366 C.ar    0  UNK0        0.1851
      8 N          -6.3240    2.1249    1.7115 N.ar    0  UNK0       -0.1932
      9 C          -7.5999    2.0107    1.2954 C.ar    0  UNK0        0.2163
     10 N          -8.4972    3.0171    1.7225 N.pl3   0  UNK0       -0.3274
     11 N          -8.0007    0.9855    0.5095 N.ar    0  UNK0       -0.1978
     12 C          -7.0961    0.0714    0.1455 C.ar    0  UNK0        0.1491
     13 N          -7.4812   -1.0274   -0.6850 N.pl3   0  UNK0       -0.3413
     14 C          -5.7604    0.1232    0.5362 C.ar    0  UNK0        0.1477
     15 N          -4.8740   -0.8059    0.1574 N.ar    0  UNK0       -0.2419
     16 C          -0.5178   -1.1696   -1.0668 C.ar    0  UNK0        0.0298
     17 C           0.2938   -1.1968    0.0427 C.ar    0  UNK0       -0.0399
     18 C           1.6596   -0.9428   -0.1239 C.ar    0  UNK0       -0.0479
     19 C           2.2275   -0.6671   -1.3456 C.ar    0  UNK0        0.0368
     20 C           3.6480   -0.4035   -1.5149 C.2     0  UNK0        0.2447
     21 O           4.1265   -0.1554   -2.6508 O.2     0  UNK0       -0.2702
     22 N           4.5207   -0.4192   -0.4163 N.am    1  GLU1       -0.2983
     23 CA          5.9581   -0.1564   -0.5606 C.3     1  GLU1        0.1209
     24 CB          6.2778    1.1295    0.1533 C.3     1  GLU1       -0.0140
     25 CG          5.9474    1.0749    1.6228 C.3     1  GLU1        0.0470
     26 CD          6.2828    2.3590    2.2628 C.2     1  GLU1        0.3048
     27 OE1         6.0858    2.5247    3.4824 O.2     1  GLU1       -0.2510
     28 OE2         6.8159    3.3831    1.5158 O.3     1  GLU1       -0.4806
     29 C           6.7233   -1.3020   -0.0456 C.2     1  GLU1        0.3253
     30 O           7.9775   -1.2789   -0.0767 O.2     1  GLU1       -0.2489
     31 OXT         6.1060   -2.4242    0.4813 O.3     1  GLU1       -0.4793
     32 C           1.4097   -0.6377   -2.4759 C.ar    0  UNK0       -0.0479
     33 C           0.0775   -0.8873   -2.3015 C.ar    0  UNK0       -0.0399
     34 H          -2.5673   -0.2844   -2.7365 H       0  UNK0        0.0428
     35 H          -3.7051   -1.5370   -2.2073 H       0  UNK0        0.0428
     36 H          -2.2345   -1.9972   -3.0911 H       0  UNK0        0.0428
     37 H          -1.9099   -1.9443    0.9562 H       0  UNK0        0.0529
     38 H          -3.1359   -2.7123   -0.0391 H       0  UNK0        0.0529
     39 H          -2.1802    0.4324    1.6963 H       0  UNK0        0.0849
     40 H          -9.4005    2.7588    2.1291 H       0  UNK0        0.1452
     41 H          -8.2280    4.0068    1.6181 H       0  UNK0        0.1452
     42 H          -6.8883   -1.3854   -1.4636 H       0  UNK0        0.1438
     43 H          -8.3986   -1.5248   -0.5354 H       0  UNK0        0.1438
     44 H          -0.1124   -1.4026    1.0020 H       0  UNK0        0.0636
     45 H           2.2476   -0.9767    0.7750 H       0  UNK0        0.0626
     46 H           4.2240   -0.6150    0.5695 H       1  GLU1        0.1498
     47 HA          6.1298    0.0281   -1.6407 H       1  GLU1        0.0614
     48 HB1         7.3482    1.3891    0.0551 H       1  GLU1        0.0294
     49 HB2         5.6951    1.9455   -0.3184 H       1  GLU1        0.0294
     50 HG1         6.5140    0.2852    2.1495 H       1  GLU1        0.0378
     51 HG2         4.8755    0.8648    1.8092 H       1  GLU1        0.0378
     52 HE2         7.2865    4.1923    1.9260 H       1  GLU1        0.2951
     53 HXT         6.6412   -3.1707    0.9436 H       1  GLU1        0.2951
     54 H           1.8546   -0.4210   -3.4370 H       0  UNK0        0.0626
     55 H          -0.5266   -0.8546   -3.2110 H       0  UNK0        0.0636
@<TRIPOS>BOND
     1     1     2    1
     2     2     3    1
     3     3     4    1
     4     4     5   ar
     5     5     6   ar
     6     6     7   ar
     7     7     8   ar
     8     8     9   ar
     9     9    10    1
    10     9    11   ar
    11    11    12   ar
    12    12    13    1
    13    12    14   ar
    14    14    15   ar
    15     2    16    1
    16    16    17   ar
    17    17    18   ar
    18    18    19   ar
    19    19    20    1
    20    20    21    2
    21    20    22   am
    22    22    23    1
    23    23    24    1
    24    24    25    1
    25    25    26    1
    26    26    27    2
    27    26    28    1
    28    23    29    1
    29    29    30    2
    30    29    31    1
    31    19    32   ar
    32    32    33   ar
    33    15     4   ar
    34    33    16   ar
    35    14     7   ar
    36     1    34    1
    37     1    35    1
    38     1    36    1
    39     3    37    1
    40     3    38    1
    41     5    39    1
    42    10    40    1
    43    10    41    1
    44    13    42    1
    45    13    43    1
    46    17    44    1
    47    18    45    1
    48    22    46    1
    49    23    47    1
    50    24    48    1
    51    24    49    1
    52    25    50    1
    53    25    51    1
    54    28    52    1
    55    31    53    1
    56    32    54    1
    57    33    55    1
