
     RDKit          3D

 55 57  0  0  0  0  0  0  0  0999 V2000
   -2.6199   -1.3189   -2.3338 C   0  0  0  0  0  0  0  0  0  0  0  0
   -1.9146   -1.4117   -1.0587 N   0  0  0  0  0  0  0  0  0  0  0  0
   -2.5879   -1.7301    0.1554 C   0  0  0  0  0  0  0  0  0  0  0  0
   -3.6058   -0.7230    0.5507 C   0  0  0  0  0  0  0  0  0  0  0  0
   -3.2263    0.3283    1.3483 C   0  0  0  0  0  0  0  0  0  0  0  0
   -4.1322    1.2506    1.7173 N   0  0  0  0  0  0  0  0  0  0  0  0
   -5.4290    1.1982    1.3366 C   0  0  0  0  0  0  0  0  0  0  0  0
   -6.3240    2.1249    1.7115 N   0  0  0  0  0  0  0  0  0  0  0  0
   -7.5999    2.0107    1.2954 C   0  0  0  0  0  0  0  0  0  0  0  0
   -8.4972    3.0171    1.7225 N   0  0  0  0  0  0  0  0  0  0  0  0
   -8.0007    0.9855    0.5095 N   0  0  0  0  0  0  0  0  0  0  0  0
   -7.0961    0.0714    0.1455 C   0  0  0  0  0  0  0  0  0  0  0  0
   -7.4812   -1.0274   -0.6850 N   0  0  0  0  0  0  0  0  0  0  0  0
   -5.7604    0.1232    0.5362 C   0  0  0  0  0  0  0  0  0  0  0  0
   -4.8740   -0.8059    0.1574 N   0  0  0  0  0  0  0  0  0  0  0  0
   -0.5178   -1.1696   -1.0668 C   0  0  0  0  0  0  0  0  0  0  0  0
    0.2938   -1.1968    0.0427 C   0  0  0  0  0  0  0  0  0  0  0  0
    1.6596   -0.9428   -0.1239 C   0  0  0  0  0  0  0  0  0  0  0  0
    2.2275   -0.6671   -1.3456 C   0  0  0  0  0  0  0  0  0  0  0  0
    3.6480   -0.4035   -1.5149 C   0  0  0  0  0  0  0  0  0  0  0  0
    4.1265   -0.1554   -2.6508 O   0  0  0  0  0  0  0  0  0  0  0  0
    4.5207   -0.4192   -0.4163 N   0  0  0  0  0  0  0  0  0  0  0  0
    5.9581   -0.1564   -0.5606 C   0  0  1  0  0  0  0  0  0  0  0  0
    6.2778    1.1295    0.1533 C   0  0  0  0  0  0  0  0  0  0  0  0
    5.9474    1.0749    1.6228 C   0  0  0  0  0  0  0  0  0  0  0  0
    6.2828    2.3590    2.2628 C   0  0  0  0  0  0  0  0  0  0  0  0
    6.0858    2.5247    3.4824 O   0  0  0  0  0  0  0  0  0  0  0  0
    6.8159    3.3831    1.5158 O   0  0  0  0  0  0  0  0  0  0  0  0
    6.7233   -1.3020   -0.0456 C   0  0  0  0  0  0  0  0  0  0  0  0
    7.9775   -1.2789   -0.0767 O   0  0  0  0  0  0  0  0  0  0  0  0
    6.1060   -2.4242    0.4813 O   0  0  0  0  0  0  0  0  0  0  0  0
    1.4097   -0.6377   -2.4759 C   0  0  0  0  0  0  0  0  0  0  0  0
    0.0775   -0.8873   -2.3015 C   0  0  0  0  0  0  0  0  0  0  0  0
   -2.5673   -0.2844   -2.7365 H   0  0  0  0  0  0  0  0  0  0  0  0
   -3.7051   -1.5370   -2.2073 H   0  0  0  0  0  0  0  0  0  0  0  0
   -2.2345   -1.9972   -3.0911 H   0  0  0  0  0  0  0  0  0  0  0  0
   -1.9099   -1.9443    0.9562 H   0  0  0  0  0  0  0  0  0  0  0  0
   -3.1359   -2.7123   -0.0391 H   0  0  0  0  0  0  0  0  0  0  0  0
   -2.1802    0.4324    1.6963 H   0  0  0  0  0  0  0  0  0  0  0  0
   -9.4005    2.7588    2.1291 H   0  0  0  0  0  0  0  0  0  0  0  0
   -8.2280    4.0068    1.6181 H   0  0  0  0  0  0  0  0  0  0  0  0
   -6.8883   -1.3854   -1.4636 H   0  0  0  0  0  0  0  0  0  0  0  0
   -8.3986   -1.5248   -0.5354 H   0  0  0  0  0  0  0  0  0  0  0  0
   -0.1124   -1.4026    1.0020 H   0  0  0  0  0  0  0  0  0  0  0  0
    2.2476   -0.9767    0.7750 H   0  0  0  0  0  0  0  0  0  0  0  0
    4.2240   -0.6150    0.5695 H   0  0  0  0  0  0  0  0  0  0  0  0
    6.1298    0.0281   -1.6407 H   0  0  0  0  0  0  0  0  0  0  0  0
    7.3482    1.3891    0.0551 H   0  0  0  0  0  0  0  0  0  0  0  0
    5.6951    1.9455   -0.3184 H   0  0  0  0  0  0  0  0  0  0  0  0
    6.5140    0.2852    2.1495 H   0  0  0  0  0  0  0  0  0  0  0  0
    4.8755    0.8648    1.8092 H   0  0  0  0  0  0  0  0  0  0  0  0
    7.2865    4.1923    1.9260 H   0  0  0  0  0  0  0  0  0  0  0  0
    6.6412   -3.1707    0.9436 H   0  0  0  0  0  0  0  0  0  0  0  0
    1.8546   -0.4210   -3.4370 H   0  0  0  0  0  0  0  0  0  0  0  0
   -0.5266   -0.8546   -3.2110 H   0  0  0  0  0  0  0  0  0  0  0  0
  1  2  1  0
  2  3  1  0
  3  4  1  0
  4  5  2  0
  5  6  1  0
  6  7  2  0
  7  8  1  0
  8  9  2  0
  9 10  1  0
  9 11  1  0
 11 12  2  0
 12 13  1  0
 12 14  1  0
 14 15  2  0
  2 16  1  0
 16 17  2  0
 17 18  1  0
 18 19  2  0
 19 20  1  0
 20 21  2  0
 20 22  1  0
 22 23  1  0
 23 24  1  0
 24 25  1  0
 25 26  1  0
 26 27  2  0
 26 28  1  0
 23 29  1  0
 29 30  2  0
 29 31  1  0
 19 32  1  0
 32 33  2  0
 15  4  1  0
 33 16  1  0
 14  7  1  0
  1 34  1  0
  1 35  1  0
  1 36  1  0
  3 37  1  0
  3 38  1  0
  5 39  1  0
 10 40  1  0
 10 41  1  0
 13 42  1  0
 13 43  1  0
 17 44  1  0
 18 45  1  0
 22 46  1  0
 23 47  1  6
 24 48  1  0
 24 49  1  0
 25 50  1  0
 25 51  1  0
 28 52  1  0
 31 53  1  0
 32 54  1  0
 33 55  1  0
M  END
$$$$
