@<TRIPOS>MOLECULE
*****
 35 37 0 0 0
SMALL
GASTEIGER

@<TRIPOS>ATOM
      1 C          -5.1512    0.8594    0.8826 C.3     1  UNL1        0.0368
      2 O          -3.7865    0.8560    0.7893 O.3     1  UNL1       -0.3794
      3 C          -3.2676    0.3033   -0.3570 C.3     1  UNL1        0.0626
      4 C          -2.4044    1.1972   -1.1610 C.3     1  UNL1       -0.0223
      5 C          -1.2533    1.6482   -0.2632 C.3     1  UNL1       -0.0251
      6 C          -0.3955    0.4547   -0.1244 C.ar    1  UNL1       -0.0434
      7 C           0.9753    0.5156   -0.1300 C.ar    1  UNL1       -0.0505
      8 C           1.7699   -0.6055   -0.0031 C.ar    1  UNL1       -0.0162
      9 C           3.2230   -0.5233   -0.0117 C.ar    1  UNL1        0.0002
     10 C           3.8516    0.4686   -0.7714 C.ar    1  UNL1       -0.0512
     11 C           5.2253    0.5889   -0.8126 C.ar    1  UNL1       -0.0430
     12 C           5.9712   -0.3049   -0.0764 C.ar    1  UNL1        0.0276
     13 N           5.3582   -1.2669    0.6603 N.ar    1  UNL1       -0.2627
     14 C           4.0143   -1.3753    0.6931 C.ar    1  UNL1        0.0352
     15 C           1.1434   -1.8228    0.1335 C.ar    1  UNL1       -0.0537
     16 C          -0.2284   -1.9015    0.1412 C.ar    1  UNL1       -0.0577
     17 C          -1.0228   -0.7582    0.0116 C.ar    1  UNL1       -0.0417
     18 C          -2.4968   -0.9310    0.0296 C.3     1  UNL1       -0.0010
     19 H          -5.6035   -0.1535    0.8496 H       1  UNL1        0.0524
     20 H          -5.4112    1.2714    1.8889 H       1  UNL1        0.0524
     21 H          -5.6733    1.4763    0.1451 H       1  UNL1        0.0524
     22 H          -4.1025   -0.0525   -1.0180 H       1  UNL1        0.0599
     23 H          -1.9394    0.5944   -1.9744 H       1  UNL1        0.0293
     24 H          -2.9074    2.0441   -1.6456 H       1  UNL1        0.0293
     25 H          -1.6382    1.9542    0.7289 H       1  UNL1        0.0314
     26 H          -0.7435    2.4808   -0.7947 H       1  UNL1        0.0314
     27 H           1.4263    1.4857   -0.2391 H       1  UNL1        0.0626
     28 H           3.2432    1.1475   -1.3323 H       1  UNL1        0.0625
     29 H           5.7137    1.3707   -1.4127 H       1  UNL1        0.0633
     30 H           7.0436   -0.1979   -0.1200 H       1  UNL1        0.0829
     31 H           3.5379   -2.1628    1.2964 H       1  UNL1        0.0836
     32 H           1.7404   -2.7401    0.2374 H       1  UNL1        0.0624
     33 H          -0.7148   -2.8521    0.2486 H       1  UNL1        0.0621
     34 H          -2.7430   -1.2625    1.0794 H       1  UNL1        0.0338
     35 H          -2.7539   -1.8064   -0.6026 H       1  UNL1        0.0338
@<TRIPOS>BOND
     1     1     2    1
     2     2     3    1
     3     3     4    1
     4     4     5    1
     5     5     6    1
     6     6     7   ar
     7     7     8   ar
     8     8     9    1
     9     9    10   ar
    10    10    11   ar
    11    11    12   ar
    12    12    13   ar
    13    13    14   ar
    14     8    15   ar
    15    15    16   ar
    16    16    17   ar
    17    17    18    1
    18    18     3    1
    19    17     6   ar
    20    14     9   ar
    21     1    19    1
    22     1    20    1
    23     1    21    1
    24     3    22    1
    25     4    23    1
    26     4    24    1
    27     5    25    1
    28     5    26    1
    29     7    27    1
    30    10    28    1
    31    11    29    1
    32    12    30    1
    33    14    31    1
    34    15    32    1
    35    16    33    1
    36    18    34    1
    37    18    35    1
