@<TRIPOS>MOLECULE
*****
 68 72 0 0 0
SMALL
GASTEIGER

@<TRIPOS>ATOM
      1 C          -7.2608   -2.0318   -1.1325 C.3     1  UNL1       -0.0445
      2 C          -7.0049   -1.1472    0.0825 C.3     1  UNL1        0.0466
      3 C          -7.7238   -1.8357    1.2339 C.3     1  UNL1       -0.0445
      4 C          -5.5436   -1.1975    0.3927 C.3     1  UNL1       -0.0141
      5 C          -4.6540   -0.5637   -0.6404 C.3     1  UNL1        0.0269
      6 N          -3.4548   -0.1147    0.0917 N.am    1  UNL1       -0.3084
      7 C          -2.1591   -0.4980   -0.2930 C.2     1  UNL1        0.2443
      8 O          -2.0822   -1.2456   -1.3045 O.2     1  UNL1       -0.2702
      9 C          -0.9416   -0.0673    0.4233 C.ar    1  UNL1        0.0373
     10 C          -0.9646    0.6692    1.5800 C.ar    1  UNL1       -0.0496
     11 C           0.1915    1.0693    2.2343 C.ar    1  UNL1       -0.0604
     12 C           1.3968    0.6995    1.6798 C.ar    1  UNL1       -0.0525
     13 C           1.4873   -0.0412    0.5172 C.ar    1  UNL1        0.0029
     14 C           2.7868   -0.4069   -0.0392 C.ar    1  UNL1        0.0953
     15 C           3.0655   -1.1215   -1.1814 C.ar    1  UNL1        0.0103
     16 C           4.4511   -1.2186   -1.3228 C.ar    1  UNL1        0.1580
     17 N           5.2439   -1.8013   -2.2512 N.ar    1  UNL1       -0.2359
     18 C           6.5772   -1.7144   -2.0991 C.ar    1  UNL1        0.0332
     19 C           7.1314   -1.0491   -1.0245 C.ar    1  UNL1       -0.0033
     20 C           6.3035   -0.4578   -0.0835 C.ar    1  UNL1        0.1281
     21 N           6.8027    0.2507    1.0344 N.pl3   1  UNL1       -0.2992
     22 C           8.1939    0.5427    1.1553 C.ar    1  UNL1        0.0358
     23 C           8.8400    0.3237    2.3798 C.ar    1  UNL1       -0.0403
     24 C          10.1718    0.6082    2.5656 C.ar    1  UNL1       -0.0566
     25 C          10.9260    1.1305    1.5228 C.ar    1  UNL1       -0.0201
     26 C          10.3058    1.3524    0.3118 C.ar    1  UNL1        0.1186
     27 O          11.0659    1.8732   -0.7218 O.3     1  UNL1       -0.5067
     28 C           8.9688    1.0619    0.1427 C.ar    1  UNL1        0.0010
     29 N           4.9576   -0.5625   -0.2655 N.ar    1  UNL1       -0.1998
     30 N           3.9745   -0.0867    0.4869 N.ar    1  UNL1       -0.1633
     31 C           0.3082   -0.4113   -0.0898 C.ar    1  UNL1       -0.0404
     32 C          -5.3613    0.5667   -1.2939 C.3     1  UNL1       -0.0141
     33 C          -6.5351    1.1288   -0.5718 C.3     1  UNL1        0.0466
     34 C          -7.2484    2.0442   -1.5861 C.3     1  UNL1       -0.0445
     35 C          -6.1308    2.0567    0.5567 C.3     1  UNL1       -0.0445
     36 N          -7.5141    0.1509   -0.1882 N.3     1  UNL1       -0.1429
     37 O          -8.6055    0.1415   -0.9950 O.3     1  UNL1       -0.1183
     38 H          -6.5859   -2.9277   -1.1079 H       1  UNL1        0.0248
     39 H          -8.2938   -2.4744   -1.0489 H       1  UNL1        0.0248
     40 H          -7.1466   -1.5122   -2.0847 H       1  UNL1        0.0248
     41 H          -8.7722   -1.5189    1.3284 H       1  UNL1        0.0248
     42 H          -7.1279   -1.6519    2.1715 H       1  UNL1        0.0248
     43 H          -7.7330   -2.9370    1.0983 H       1  UNL1        0.0248
     44 H          -5.3419   -0.6780    1.3704 H       1  UNL1        0.0301
     45 H          -5.2018   -2.2685    0.4961 H       1  UNL1        0.0301
     46 H          -4.3230   -1.2989   -1.4390 H       1  UNL1        0.0499
     47 H          -3.5977    0.5053    0.9169 H       1  UNL1        0.1493
     48 H          -1.9441    0.9416    1.9870 H       1  UNL1        0.0625
     49 H           0.1281    1.6528    3.1491 H       1  UNL1        0.0618
     50 H           2.3104    1.0061    2.1832 H       1  UNL1        0.0624
     51 H           2.3453   -1.5467   -1.8706 H       1  UNL1        0.0677
     52 H           7.2560   -2.1755   -2.8341 H       1  UNL1        0.0831
     53 H           8.2061   -1.0244   -0.9468 H       1  UNL1        0.0667
     54 H           6.1169    0.5538    1.7726 H       1  UNL1        0.1536
     55 H           8.2159   -0.0883    3.1787 H       1  UNL1        0.0636
     56 H          10.6321    0.4228    3.5311 H       1  UNL1        0.0619
     57 H          11.9884    1.3570    1.6661 H       1  UNL1        0.0654
     58 H          10.6610    1.8785   -1.6531 H       1  UNL1        0.2921
     59 H           8.5065    1.2608   -0.8045 H       1  UNL1        0.0673
     60 H           0.3247   -0.9915   -1.0011 H       1  UNL1        0.0632
     61 H          -5.6041    0.3000   -2.3645 H       1  UNL1        0.0301
     62 H          -4.6152    1.4091   -1.4051 H       1  UNL1        0.0301
     63 H          -7.3633    1.5232   -2.5607 H       1  UNL1        0.0248
     64 H          -8.2706    2.1911   -1.1801 H       1  UNL1        0.0248
     65 H          -6.7119    3.0136   -1.6720 H       1  UNL1        0.0248
     66 H          -5.1283    2.4627    0.3104 H       1  UNL1        0.0248
     67 H          -6.8121    2.9282    0.6409 H       1  UNL1        0.0248
     68 H          -6.0835    1.5903    1.5371 H       1  UNL1        0.0248
@<TRIPOS>BOND
     1     1     2    1
     2     2     3    1
     3     2     4    1
     4     4     5    1
     5     5     6    1
     6     6     7   am
     7     7     8    2
     8     7     9    1
     9     9    10   ar
    10    10    11   ar
    11    11    12   ar
    12    12    13   ar
    13    13    14    1
    14    14    15   ar
    15    15    16   ar
    16    16    17   ar
    17    17    18   ar
    18    18    19   ar
    19    19    20   ar
    20    20    21    1
    21    21    22    1
    22    22    23   ar
    23    23    24   ar
    24    24    25   ar
    25    25    26   ar
    26    26    27    1
    27    26    28   ar
    28    20    29   ar
    29    29    30   ar
    30    13    31   ar
    31     5    32    1
    32    32    33    1
    33    33    34    1
    34    33    35    1
    35    33    36    1
    36    36    37    1
    37    36     2    1
    38    31     9   ar
    39    30    14   ar
    40    29    16   ar
    41    28    22   ar
    42     1    38    1
    43     1    39    1
    44     1    40    1
    45     3    41    1
    46     3    42    1
    47     3    43    1
    48     4    44    1
    49     4    45    1
    50     5    46    1
    51     6    47    1
    52    10    48    1
    53    11    49    1
    54    12    50    1
    55    15    51    1
    56    18    52    1
    57    19    53    1
    58    21    54    1
    59    23    55    1
    60    24    56    1
    61    25    57    1
    62    27    58    1
    63    28    59    1
    64    31    60    1
    65    32    61    1
    66    32    62    1
    67    34    63    1
    68    34    64    1
    69    34    65    1
    70    35    66    1
    71    35    67    1
    72    35    68    1
