
     RDKit          3D

 68 72  0  0  0  0  0  0  0  0999 V2000
   -7.2608   -2.0318   -1.1325 C   0  0  0  0  0  0  0  0  0  0  0  0
   -7.0049   -1.1472    0.0825 C   0  0  0  0  0  0  0  0  0  0  0  0
   -7.7238   -1.8357    1.2339 C   0  0  0  0  0  0  0  0  0  0  0  0
   -5.5436   -1.1975    0.3927 C   0  0  0  0  0  0  0  0  0  0  0  0
   -4.6540   -0.5637   -0.6404 C   0  0  0  0  0  0  0  0  0  0  0  0
   -3.4548   -0.1147    0.0917 N   0  0  0  0  0  0  0  0  0  0  0  0
   -2.1591   -0.4980   -0.2930 C   0  0  0  0  0  0  0  0  0  0  0  0
   -2.0822   -1.2456   -1.3045 O   0  0  0  0  0  0  0  0  0  0  0  0
   -0.9416   -0.0673    0.4233 C   0  0  0  0  0  0  0  0  0  0  0  0
   -0.9646    0.6692    1.5800 C   0  0  0  0  0  0  0  0  0  0  0  0
    0.1915    1.0693    2.2343 C   0  0  0  0  0  0  0  0  0  0  0  0
    1.3968    0.6995    1.6798 C   0  0  0  0  0  0  0  0  0  0  0  0
    1.4873   -0.0412    0.5172 C   0  0  0  0  0  0  0  0  0  0  0  0
    2.7868   -0.4069   -0.0392 C   0  0  0  0  0  0  0  0  0  0  0  0
    3.0655   -1.1215   -1.1814 C   0  0  0  0  0  0  0  0  0  0  0  0
    4.4511   -1.2186   -1.3228 C   0  0  0  0  0  0  0  0  0  0  0  0
    5.2439   -1.8013   -2.2512 N   0  0  0  0  0  0  0  0  0  0  0  0
    6.5772   -1.7144   -2.0991 C   0  0  0  0  0  0  0  0  0  0  0  0
    7.1314   -1.0491   -1.0245 C   0  0  0  0  0  0  0  0  0  0  0  0
    6.3035   -0.4578   -0.0835 C   0  0  0  0  0  0  0  0  0  0  0  0
    6.8027    0.2507    1.0344 N   0  0  0  0  0  0  0  0  0  0  0  0
    8.1939    0.5427    1.1553 C   0  0  0  0  0  0  0  0  0  0  0  0
    8.8400    0.3237    2.3798 C   0  0  0  0  0  0  0  0  0  0  0  0
   10.1718    0.6082    2.5656 C   0  0  0  0  0  0  0  0  0  0  0  0
   10.9260    1.1305    1.5228 C   0  0  0  0  0  0  0  0  0  0  0  0
   10.3058    1.3524    0.3118 C   0  0  0  0  0  0  0  0  0  0  0  0
   11.0659    1.8732   -0.7218 O   0  0  0  0  0  0  0  0  0  0  0  0
    8.9688    1.0619    0.1427 C   0  0  0  0  0  0  0  0  0  0  0  0
    4.9576   -0.5625   -0.2655 N   0  0  0  0  0  0  0  0  0  0  0  0
    3.9745   -0.0867    0.4869 N   0  0  0  0  0  0  0  0  0  0  0  0
    0.3082   -0.4113   -0.0898 C   0  0  0  0  0  0  0  0  0  0  0  0
   -5.3613    0.5667   -1.2939 C   0  0  0  0  0  0  0  0  0  0  0  0
   -6.5351    1.1288   -0.5718 C   0  0  0  0  0  0  0  0  0  0  0  0
   -7.2484    2.0442   -1.5861 C   0  0  0  0  0  0  0  0  0  0  0  0
   -6.1308    2.0567    0.5567 C   0  0  0  0  0  0  0  0  0  0  0  0
   -7.5141    0.1509   -0.1882 N   0  0  0  0  0  0  0  0  0  0  0  0
   -8.6055    0.1415   -0.9950 O   0  0  0  0  0  1  0  0  0  0  0  0
   -6.5859   -2.9277   -1.1079 H   0  0  0  0  0  0  0  0  0  0  0  0
   -8.2938   -2.4744   -1.0489 H   0  0  0  0  0  0  0  0  0  0  0  0
   -7.1466   -1.5122   -2.0847 H   0  0  0  0  0  0  0  0  0  0  0  0
   -8.7722   -1.5189    1.3284 H   0  0  0  0  0  0  0  0  0  0  0  0
   -7.1279   -1.6519    2.1715 H   0  0  0  0  0  0  0  0  0  0  0  0
   -7.7330   -2.9370    1.0983 H   0  0  0  0  0  0  0  0  0  0  0  0
   -5.3419   -0.6780    1.3704 H   0  0  0  0  0  0  0  0  0  0  0  0
   -5.2018   -2.2685    0.4961 H   0  0  0  0  0  0  0  0  0  0  0  0
   -4.3230   -1.2989   -1.4390 H   0  0  0  0  0  0  0  0  0  0  0  0
   -3.5977    0.5053    0.9169 H   0  0  0  0  0  0  0  0  0  0  0  0
   -1.9441    0.9416    1.9870 H   0  0  0  0  0  0  0  0  0  0  0  0
    0.1281    1.6528    3.1491 H   0  0  0  0  0  0  0  0  0  0  0  0
    2.3104    1.0061    2.1832 H   0  0  0  0  0  0  0  0  0  0  0  0
    2.3453   -1.5467   -1.8706 H   0  0  0  0  0  0  0  0  0  0  0  0
    7.2560   -2.1755   -2.8341 H   0  0  0  0  0  0  0  0  0  0  0  0
    8.2061   -1.0244   -0.9468 H   0  0  0  0  0  0  0  0  0  0  0  0
    6.1169    0.5538    1.7726 H   0  0  0  0  0  0  0  0  0  0  0  0
    8.2159   -0.0883    3.1787 H   0  0  0  0  0  0  0  0  0  0  0  0
   10.6321    0.4228    3.5311 H   0  0  0  0  0  0  0  0  0  0  0  0
   11.9884    1.3570    1.6661 H   0  0  0  0  0  0  0  0  0  0  0  0
   10.6610    1.8785   -1.6531 H   0  0  0  0  0  0  0  0  0  0  0  0
    8.5065    1.2608   -0.8045 H   0  0  0  0  0  0  0  0  0  0  0  0
    0.3247   -0.9915   -1.0011 H   0  0  0  0  0  0  0  0  0  0  0  0
   -5.6041    0.3000   -2.3645 H   0  0  0  0  0  0  0  0  0  0  0  0
   -4.6152    1.4091   -1.4051 H   0  0  0  0  0  0  0  0  0  0  0  0
   -7.3633    1.5232   -2.5607 H   0  0  0  0  0  0  0  0  0  0  0  0
   -8.2706    2.1911   -1.1801 H   0  0  0  0  0  0  0  0  0  0  0  0
   -6.7119    3.0136   -1.6720 H   0  0  0  0  0  0  0  0  0  0  0  0
   -5.1283    2.4627    0.3104 H   0  0  0  0  0  0  0  0  0  0  0  0
   -6.8121    2.9282    0.6409 H   0  0  0  0  0  0  0  0  0  0  0  0
   -6.0835    1.5903    1.5371 H   0  0  0  0  0  0  0  0  0  0  0  0
  1  2  1  0
  2  3  1  0
  2  4  1  0
  4  5  1  0
  5  6  1  0
  6  7  1  0
  7  8  2  0
  7  9  1  0
  9 10  2  0
 10 11  1  0
 11 12  2  0
 12 13  1  0
 13 14  1  0
 14 15  1  0
 15 16  2  0
 16 17  1  0
 17 18  2  0
 18 19  1  0
 19 20  2  0
 20 21  1  0
 21 22  1  0
 22 23  2  0
 23 24  1  0
 24 25  2  0
 25 26  1  0
 26 27  1  0
 26 28  2  0
 20 29  1  0
 29 30  1  0
 13 31  2  0
  5 32  1  0
 32 33  1  0
 33 34  1  0
 33 35  1  0
 33 36  1  0
 36 37  1  0
 36  2  1  0
 31  9  1  0
 30 14  2  0
 29 16  1  0
 28 22  1  0
  1 38  1  0
  1 39  1  0
  1 40  1  0
  3 41  1  0
  3 42  1  0
  3 43  1  0
  4 44  1  0
  4 45  1  0
  5 46  1  0
  6 47  1  0
 10 48  1  0
 11 49  1  0
 12 50  1  0
 15 51  1  0
 18 52  1  0
 19 53  1  0
 21 54  1  0
 23 55  1  0
 24 56  1  0
 25 57  1  0
 27 58  1  0
 28 59  1  0
 31 60  1  0
 32 61  1  0
 32 62  1  0
 34 63  1  0
 34 64  1  0
 34 65  1  0
 35 66  1  0
 35 67  1  0
 35 68  1  0
M  RAD  1  37   2
M  END
$$$$
