
     RDKit          3D

 22 23  0  0  0  0  0  0  0  0999 V2000
    0.1676   -3.2490   -0.4878 O   0  0  0  0  0  0  0  0  0  0  0  0
   -0.5777   -2.2301   -0.6519 C   0  0  0  0  0  0  0  0  0  0  0  0
   -1.4024   -2.1403   -1.7517 O   0  0  0  0  0  1  0  0  0  0  0  0
   -0.5305   -1.1680    0.3553 C   0  0  1  0  0  0  0  0  0  0  0  0
    0.6429   -0.2869    0.2531 C   0  0  0  0  0  0  0  0  0  0  0  0
    1.8966   -0.7120    0.2733 C   0  0  0  0  0  0  0  0  0  0  0  0
    2.9845    0.2689    0.1631 C   0  0  0  0  0  0  0  0  0  0  0  0
    2.4891    1.5601    0.0488 O   0  0  0  0  0  0  0  0  0  0  0  0
    0.1639    1.0095    0.1381 O   0  0  0  0  0  0  0  0  0  0  0  0
   -1.1019    0.9174   -0.4505 C   0  0  2  0  0  0  0  0  0  0  0  0
   -2.2259    1.6684    0.1575 C   0  0  0  0  0  0  0  0  0  0  0  0
   -2.9094    0.3373    0.1117 C   0  0  0  0  0  0  0  0  0  0  0  0
   -4.0792   -0.1087    0.0541 O   0  0  0  0  0  0  0  0  0  0  0  0
   -1.6452   -0.2790    0.1614 N   0  0  0  0  0  0  0  0  0  0  0  0
   -0.5567   -1.6544    1.3620 H   0  0  0  0  0  0  0  0  0  0  0  0
    2.1088   -1.7543    0.3687 H   0  0  0  0  0  0  0  0  0  0  0  0
    3.7519    0.1673    0.9541 H   0  0  0  0  0  0  0  0  0  0  0  0
    3.5210    0.0598   -0.8052 H   0  0  0  0  0  0  0  0  0  0  0  0
    3.1161    2.2416    0.3947 H   0  0  0  0  0  0  0  0  0  0  0  0
   -1.0224    0.9088   -1.5434 H   0  0  0  0  0  0  0  0  0  0  0  0
   -2.7396    2.3896   -0.5203 H   0  0  0  0  0  0  0  0  0  0  0  0
   -2.0516    2.0539    1.1704 H   0  0  0  0  0  0  0  0  0  0  0  0
  1  2  2  0
  2  3  1  0
  2  4  1  0
  4  5  1  0
  5  6  2  0
  6  7  1  0
  7  8  1  0
  5  9  1  0
  9 10  1  0
 10 11  1  0
 11 12  1  0
 12 13  2  0
 12 14  1  0
 14  4  1  0
 14 10  1  0
  4 15  1  1
  6 16  1  0
  7 17  1  0
  7 18  1  0
  8 19  1  0
 10 20  1  6
 11 21  1  0
 11 22  1  0
M  CHG  1   3  -1
M  END
$$$$
