@<TRIPOS>MOLECULE
*****
 22 23 0 0 0
SMALL
GASTEIGER

@<TRIPOS>ATOM
      1 O           0.1676   -3.2490   -0.4878 O.co2   1  UNL1       -0.5474
      2 C          -0.5777   -2.2301   -0.6519 C.2     1  UNL1        0.0698
      3 O          -1.4024   -2.1403   -1.7517 O.co2   1  UNL1       -0.5474
      4 C          -0.5305   -1.1680    0.3553 C.3     1  UNL1        0.1257
      5 C           0.6429   -0.2869    0.2531 C.2     1  UNL1        0.1246
      6 C           1.8966   -0.7120    0.2733 C.2     1  UNL1       -0.0190
      7 C           2.9845    0.2689    0.1631 C.3     1  UNL1        0.0658
      8 O           2.4891    1.5601    0.0488 O.3     1  UNL1       -0.3909
      9 O           0.1639    1.0095    0.1381 O.2     1  UNL1       -0.4725
     10 C          -1.1019    0.9174   -0.4505 C.3     1  UNL1        0.1783
     11 C          -2.2259    1.6684    0.1575 C.3     1  UNL1        0.0786
     12 C          -2.9094    0.3373    0.1117 C.2     1  UNL1        0.2243
     13 O          -4.0792   -0.1087    0.0541 O.2     1  UNL1       -0.2753
     14 N          -1.6452   -0.2790    0.1614 N.am    1  UNL1       -0.2502
     15 H          -0.5567   -1.6544    1.3620 H       1  UNL1        0.0645
     16 H           2.1088   -1.7543    0.3687 H       1  UNL1        0.0628
     17 H           3.7519    0.1673    0.9541 H       1  UNL1        0.0602
     18 H           3.5210    0.0598   -0.8052 H       1  UNL1        0.0602
     19 H           3.1161    2.2416    0.3947 H       1  UNL1        0.2098
     20 H          -1.0224    0.9088   -1.5434 H       1  UNL1        0.0957
     21 H          -2.7396    2.3896   -0.5203 H       1  UNL1        0.0412
     22 H          -2.0516    2.0539    1.1704 H       1  UNL1        0.0412
@<TRIPOS>UNITY_ATOM_ATTR
3 1
charge -1
@<TRIPOS>BOND
     1     1     2   ar
     2     2     3   ar
     3     2     4    1
     4     4     5    1
     5     5     6    2
     6     6     7    1
     7     7     8    1
     8     5     9    1
     9     9    10    1
    10    10    11    1
    11    11    12    1
    12    12    13    2
    13    12    14   am
    14    14     4    1
    15    14    10    1
    16     4    15    1
    17     6    16    1
    18     7    17    1
    19     7    18    1
    20     8    19    1
    21    10    20    1
    22    11    21    1
    23    11    22    1
