@<TRIPOS>MOLECULE
*****
 30 31 0 0 0
SMALL
GASTEIGER

@<TRIPOS>ATOM
      1 C          -3.6688   -1.0338    0.0023 C.3     1  UNL1       -0.0130
      2 N          -2.8969    0.1331   -0.0054 N.3     1  UNL1       -0.3080
      3 C          -3.4827    1.3648   -0.3482 C.3     1  UNL1       -0.0130
      4 C          -1.5584    0.0965    0.4326 C.3     1  UNL1        0.0024
      5 C          -0.7376   -0.7141   -0.5704 C.3     1  UNL1       -0.0129
      6 C           0.6773   -0.8161   -0.1945 C.ar    1  UNL1       -0.0212
      7 C           1.1794   -1.9964    0.3658 C.ar    1  UNL1        0.0059
      8 N           2.4956   -1.8202    0.6212 N.ar    1  UNL1       -0.3604
      9 C           2.8477   -0.5876    0.2496 C.ar    1  UNL1        0.0467
     10 C           4.0795    0.0699    0.3056 C.ar    1  UNL1       -0.0378
     11 C           4.0996    1.3599   -0.1689 C.ar    1  UNL1       -0.0598
     12 C           2.9937    2.0058   -0.6783 C.ar    1  UNL1       -0.0611
     13 C           1.7601    1.3468   -0.7341 C.ar    1  UNL1       -0.0523
     14 C           1.7381    0.0601   -0.2612 C.ar    1  UNL1        0.0029
     15 H          -2.9753   -1.8984    0.2038 H       1  UNL1        0.0391
     16 H          -4.4268   -1.1138    0.8050 H       1  UNL1        0.0391
     17 H          -4.1838   -1.2305   -0.9620 H       1  UNL1        0.0391
     18 H          -4.5202    1.5141    0.0577 H       1  UNL1        0.0391
     19 H          -3.5658    1.3910   -1.4734 H       1  UNL1        0.0391
     20 H          -2.8942    2.2602   -0.0704 H       1  UNL1        0.0391
     21 H          -1.4771   -0.3841    1.4328 H       1  UNL1        0.0429
     22 H          -1.1197    1.1185    0.5212 H       1  UNL1        0.0429
     23 H          -1.2028   -1.6862   -0.7622 H       1  UNL1        0.0326
     24 H          -0.8427   -0.1543   -1.5485 H       1  UNL1        0.0326
     25 H           0.6372   -2.9305    0.5807 H       1  UNL1        0.0810
     26 H           3.1196   -2.5495    1.0433 H       1  UNL1        0.1653
     27 H           4.9067   -0.4817    0.7115 H       1  UNL1        0.0638
     28 H           5.0697    1.8385   -0.1101 H       1  UNL1        0.0618
     29 H           3.0677    3.0312   -1.0415 H       1  UNL1        0.0618
     30 H           0.8807    1.8067   -1.1184 H       1  UNL1        0.0624
@<TRIPOS>BOND
     1     1     2    1
     2     2     3    1
     3     2     4    1
     4     4     5    1
     5     5     6    1
     6     6     7   ar
     7     7     8   ar
     8     8     9   ar
     9     9    10   ar
    10    10    11   ar
    11    11    12   ar
    12    12    13   ar
    13    13    14   ar
    14    14     6   ar
    15    14     9   ar
    16     1    15    1
    17     1    16    1
    18     1    17    1
    19     3    18    1
    20     3    19    1
    21     3    20    1
    22     4    21    1
    23     4    22    1
    24     5    23    1
    25     5    24    1
    26     7    25    1
    27     8    26    1
    28    10    27    1
    29    11    28    1
    30    12    29    1
    31    13    30    1
