@<TRIPOS>MOLECULE
*****
 59 63 0 0 0
SMALL
GASTEIGER

@<TRIPOS>ATOM
      1 N          -7.8597   -0.5675    0.1487 N.am    1  UNL1       -0.3289
      2 C          -6.9014   -0.4782   -0.8899 C.2     1  UNL1        0.2167
      3 O          -7.2576   -0.7042   -2.0637 O.2     1  UNL1       -0.2754
      4 C          -5.5126   -0.1268   -0.5989 C.3     1  UNL1        0.0477
      5 C          -5.3869    1.2340    0.0505 C.3     1  UNL1       -0.0362
      6 C          -3.9365    1.5473    0.2687 C.3     1  UNL1       -0.0394
      7 C          -3.1783    1.5582   -1.0274 C.3     1  UNL1       -0.0439
      8 C          -3.2452    0.1780   -1.6195 C.3     1  UNL1       -0.0023
      9 C          -4.7054   -0.1494   -1.8502 C.3     1  UNL1       -0.0328
     10 C          -2.6749   -0.8684   -0.6982 C.3     1  UNL1        0.1103
     11 O          -1.3452   -0.5990   -0.3182 O.3     1  UNL1       -0.4464
     12 C          -0.2935   -1.4486   -0.4726 C.2     1  UNL1        0.4032
     13 O          -0.4741   -2.5574   -0.9833 O.2     1  UNL1       -0.2262
     14 N           0.9957   -1.0597   -0.0495 N.am    1  UNL1       -0.2656
     15 C           1.3512    0.2040    0.5623 C.3     1  UNL1        0.0196
     16 C           2.7851    0.3759    0.0703 C.3     1  UNL1       -0.0171
     17 C           3.3295   -1.0348    0.3285 C.3     1  UNL1        0.0392
     18 N           4.5445   -1.2603   -0.3804 N.pl3   1  UNL1       -0.3247
     19 C           5.6858   -0.4550   -0.1533 C.ar    1  UNL1        0.1189
     20 C           6.8717   -0.6700   -0.8407 C.ar    1  UNL1       -0.0214
     21 C           8.0002    0.0940   -0.6446 C.ar    1  UNL1       -0.0454
     22 C           7.9599    1.1290    0.2810 C.ar    1  UNL1        0.0730
     23 C           9.1645    1.9682    0.5113 C.3     1  UNL1        0.4188
     24 F           8.7511    3.1845    0.9902 F       1  UNL1       -0.1658
     25 F           9.9083    1.3339    1.4993 F       1  UNL1       -0.1658
     26 F           9.9060    2.1352   -0.6428 F       1  UNL1       -0.1658
     27 C           6.7703    1.3214    0.9501 C.ar    1  UNL1        0.0413
     28 N           5.6861    0.5555    0.7336 N.ar    1  UNL1       -0.2400
     29 C           2.1847   -1.8792   -0.1637 C.3     1  UNL1        0.0362
     30 C          -3.4804   -0.8228    0.5851 C.3     1  UNL1       -0.0023
     31 C          -3.2742    0.5485    1.1887 C.3     1  UNL1       -0.0439
     32 C          -4.9313   -1.1389    0.3618 C.3     1  UNL1       -0.0328
     33 H          -8.7677   -0.0671    0.0589 H       1  UNL1        0.1449
     34 H          -7.6853   -1.1238    1.0108 H       1  UNL1        0.1449
     35 H          -5.8561    1.1500    1.0665 H       1  UNL1        0.0278
     36 H          -5.8279    2.0353   -0.5500 H       1  UNL1        0.0278
     37 H          -3.8510    2.5682    0.7232 H       1  UNL1        0.0301
     38 H          -3.7250    2.2433   -1.7181 H       1  UNL1        0.0272
     39 H          -2.1630    1.9438   -0.8918 H       1  UNL1        0.0272
     40 H          -2.7736    0.1487   -2.6307 H       1  UNL1        0.0337
     41 H          -4.8350   -1.0709   -2.4419 H       1  UNL1        0.0279
     42 H          -5.0971    0.6803   -2.5091 H       1  UNL1        0.0279
     43 H          -2.8113   -1.8588   -1.1494 H       1  UNL1        0.0740
     44 H           1.4059    0.1096    1.6632 H       1  UNL1        0.0466
     45 H           0.7003    1.0330    0.2250 H       1  UNL1        0.0466
     46 H           2.7414    0.5682   -1.0058 H       1  UNL1        0.0299
     47 H           3.3362    1.1344    0.6535 H       1  UNL1        0.0299
     48 H           3.5045   -1.1485    1.4140 H       1  UNL1        0.0514
     49 H           4.6073   -2.0249   -1.0782 H       1  UNL1        0.1478
     50 H           6.9046   -1.4790   -1.5648 H       1  UNL1        0.0652
     51 H           8.9258   -0.0694   -1.1772 H       1  UNL1        0.0625
     52 H           6.7118    2.1128    1.6695 H       1  UNL1        0.0836
     53 H           2.3374   -2.2674   -1.1855 H       1  UNL1        0.0484
     54 H           2.0452   -2.7317    0.5406 H       1  UNL1        0.0484
     55 H          -3.0515   -1.6131    1.2541 H       1  UNL1        0.0337
     56 H          -3.6003    0.6242    2.2304 H       1  UNL1        0.0272
     57 H          -2.1665    0.7465    1.1269 H       1  UNL1        0.0272
     58 H          -4.9969   -2.1756   -0.0047 H       1  UNL1        0.0279
     59 H          -5.4494   -1.0152    1.3268 H       1  UNL1        0.0279
@<TRIPOS>BOND
     1     1     2   am
     2     2     3    2
     3     4     2    1
     4     4     5    1
     5     5     6    1
     6     6     7    1
     7     7     8    1
     8     8     9    1
     9     8    10    1
    10    10    11    1
    11    11    12    1
    12    12    13    2
    13    12    14   am
    14    14    15    1
    15    15    16    1
    16    16    17    1
    17    17    18    1
    18    18    19    1
    19    19    20   ar
    20    20    21   ar
    21    21    22   ar
    22    22    23    1
    23    23    24    1
    24    23    25    1
    25    23    26    1
    26    22    27   ar
    27    27    28   ar
    28    17    29    1
    29    10    30    1
    30    30    31    1
    31    30    32    1
    32     9     4    1
    33    29    14    1
    34    32     4    1
    35    31     6    1
    36    28    19   ar
    37     1    33    1
    38     1    34    1
    39     5    35    1
    40     5    36    1
    41     6    37    1
    42     7    38    1
    43     7    39    1
    44     8    40    1
    45     9    41    1
    46     9    42    1
    47    10    43    1
    48    15    44    1
    49    15    45    1
    50    16    46    1
    51    16    47    1
    52    17    48    1
    53    18    49    1
    54    20    50    1
    55    21    51    1
    56    27    52    1
    57    29    53    1
    58    29    54    1
    59    30    55    1
    60    31    56    1
    61    31    57    1
    62    32    58    1
    63    32    59    1
