@<TRIPOS>MOLECULE
*****
 44 48 0 0 0
SMALL
GASTEIGER

@<TRIPOS>ATOM
      1 C           1.5614    1.3662    2.9838 C.3     1  UNL1        0.0119
      2 N           1.6850    0.6363    1.7292 N.ar    1  UNL1       -0.3490
      3 C           1.1732   -0.5771    1.4849 C.ar    1  UNL1        0.0133
      4 C           1.5248   -0.9227    0.1712 C.ar    1  UNL1        0.0131
      5 C           1.1546   -2.1738   -0.5010 C.2     1  UNL1        0.0590
      6 C          -0.0481   -2.6943   -0.5533 C.2     1  UNL1        0.0605
      7 C          -1.2784   -2.1694    0.0230 C.ar    1  UNL1        0.0333
      8 C          -2.1738   -2.8356    0.8320 C.ar    1  UNL1        0.1010
      9 O          -3.1874   -2.0720    1.1344 O.2     1  UNL1       -0.4623
     10 C          -3.0193   -0.8849    0.5521 C.ar    1  UNL1        0.1357
     11 C          -3.7904    0.2565    0.5509 C.ar    1  UNL1       -0.0134
     12 C          -3.3926    1.3594   -0.1419 C.ar    1  UNL1       -0.0187
     13 C          -4.2733    2.5770   -0.1088 C.3     1  UNL1        0.0693
     14 O          -3.9015    3.4097    0.9454 O.3     1  UNL1       -0.3904
     15 C          -2.2128    1.3528   -0.8532 C.ar    1  UNL1       -0.0556
     16 C          -1.4179    0.1985   -0.8602 C.ar    1  UNL1       -0.0501
     17 C          -1.8161   -0.9188   -0.1595 C.ar    1  UNL1        0.0281
     18 C           0.0743   -3.9605   -1.3250 C.2     1  UNL1        0.2519
     19 O          -0.8705   -4.7416   -1.5872 O.2     1  UNL1       -0.2697
     20 N           1.4147   -4.1550   -1.7221 N.am    1  UNL1       -0.2483
     21 C           2.1283   -3.0335   -1.2113 C.2     1  UNL1        0.2519
     22 O           3.3647   -2.8075   -1.3358 O.2     1  UNL1       -0.2697
     23 C           2.2559    0.1374   -0.3304 C.ar    1  UNL1        0.0105
     24 C           2.8385    0.3413   -1.5617 C.ar    1  UNL1       -0.0152
     25 C           3.5178    1.5059   -1.8240 C.ar    1  UNL1        0.1423
     26 F           4.0936    1.6876   -3.0623 F       1  UNL1       -0.2039
     27 C           3.6111    2.4646   -0.8485 C.ar    1  UNL1        0.0781
     28 CL          4.4911    3.9529   -1.2183 Cl      1  UNL1       -0.0805
     29 C           3.0284    2.2561    0.3758 C.ar    1  UNL1       -0.0165
     30 C           2.3424    1.0968    0.6600 C.ar    1  UNL1        0.0510
     31 H           1.7482    0.6338    3.8194 H       1  UNL1        0.0456
     32 H           0.5493    1.7766    3.1503 H       1  UNL1        0.0456
     33 H           2.3544    2.1180    3.0725 H       1  UNL1        0.0456
     34 H           0.5932   -1.2143    2.1339 H       1  UNL1        0.0815
     35 H          -2.0592   -3.8511    1.1724 H       1  UNL1        0.1036
     36 H          -4.7153    0.2309    1.1197 H       1  UNL1        0.0658
     37 H          -4.1321    3.1697   -1.0555 H       1  UNL1        0.0607
     38 H          -5.3412    2.3176    0.0156 H       1  UNL1        0.0607
     39 H          -3.2084    4.0660    0.6333 H       1  UNL1        0.2098
     40 H          -1.9109    2.2161   -1.3911 H       1  UNL1        0.0621
     41 H          -0.5123    0.1853   -1.4180 H       1  UNL1        0.0625
     42 H           1.8833   -4.9055   -2.2636 H       1  UNL1        0.1581
     43 H           2.7728   -0.4069   -2.3727 H       1  UNL1        0.0653
     44 H           3.1009    3.0117    1.1457 H       1  UNL1        0.0654
@<TRIPOS>BOND
     1     1     2    1
     2     2     3   ar
     3     3     4   ar
     4     4     5    1
     5     5     6    2
     6     6     7    1
     7     7     8   ar
     8     8     9   ar
     9     9    10   ar
    10    10    11   ar
    11    11    12   ar
    12    12    13    1
    13    13    14    1
    14    12    15   ar
    15    15    16   ar
    16    16    17   ar
    17     6    18    1
    18    18    19    2
    19    18    20   am
    20    20    21   am
    21    21    22    2
    22     4    23   ar
    23    23    24   ar
    24    24    25   ar
    25    25    26    1
    26    25    27   ar
    27    27    28    1
    28    27    29   ar
    29    29    30   ar
    30    30     2   ar
    31    21     5    1
    32    30    23   ar
    33    17     7   ar
    34    17    10   ar
    35     1    31    1
    36     1    32    1
    37     1    33    1
    38     3    34    1
    39     8    35    1
    40    11    36    1
    41    13    37    1
    42    13    38    1
    43    14    39    1
    44    15    40    1
    45    16    41    1
    46    20    42    1
    47    24    43    1
    48    29    44    1
