
     RDKit          3D

 44 48  0  0  0  0  0  0  0  0999 V2000
    1.5614    1.3662    2.9838 C   0  0  0  0  0  0  0  0  0  0  0  0
    1.6850    0.6363    1.7292 N   0  0  0  0  0  0  0  0  0  0  0  0
    1.1732   -0.5771    1.4849 C   0  0  0  0  0  0  0  0  0  0  0  0
    1.5248   -0.9227    0.1712 C   0  0  0  0  0  0  0  0  0  0  0  0
    1.1546   -2.1738   -0.5010 C   0  0  0  0  0  0  0  0  0  0  0  0
   -0.0481   -2.6943   -0.5533 C   0  0  0  0  0  0  0  0  0  0  0  0
   -1.2784   -2.1694    0.0230 C   0  0  0  0  0  0  0  0  0  0  0  0
   -2.1738   -2.8356    0.8320 C   0  0  0  0  0  0  0  0  0  0  0  0
   -3.1874   -2.0720    1.1344 O   0  0  0  0  0  0  0  0  0  0  0  0
   -3.0193   -0.8849    0.5521 C   0  0  0  0  0  0  0  0  0  0  0  0
   -3.7904    0.2565    0.5509 C   0  0  0  0  0  0  0  0  0  0  0  0
   -3.3926    1.3594   -0.1419 C   0  0  0  0  0  0  0  0  0  0  0  0
   -4.2733    2.5770   -0.1088 C   0  0  0  0  0  0  0  0  0  0  0  0
   -3.9015    3.4097    0.9454 O   0  0  0  0  0  0  0  0  0  0  0  0
   -2.2128    1.3528   -0.8532 C   0  0  0  0  0  0  0  0  0  0  0  0
   -1.4179    0.1985   -0.8602 C   0  0  0  0  0  0  0  0  0  0  0  0
   -1.8161   -0.9188   -0.1595 C   0  0  0  0  0  0  0  0  0  0  0  0
    0.0743   -3.9605   -1.3250 C   0  0  0  0  0  0  0  0  0  0  0  0
   -0.8705   -4.7416   -1.5872 O   0  0  0  0  0  0  0  0  0  0  0  0
    1.4147   -4.1550   -1.7221 N   0  0  0  0  0  0  0  0  0  0  0  0
    2.1283   -3.0335   -1.2113 C   0  0  0  0  0  0  0  0  0  0  0  0
    3.3647   -2.8075   -1.3358 O   0  0  0  0  0  0  0  0  0  0  0  0
    2.2559    0.1374   -0.3304 C   0  0  0  0  0  0  0  0  0  0  0  0
    2.8385    0.3413   -1.5617 C   0  0  0  0  0  0  0  0  0  0  0  0
    3.5178    1.5059   -1.8240 C   0  0  0  0  0  0  0  0  0  0  0  0
    4.0936    1.6876   -3.0623 F   0  0  0  0  0  0  0  0  0  0  0  0
    3.6111    2.4646   -0.8485 C   0  0  0  0  0  0  0  0  0  0  0  0
    4.4911    3.9529   -1.2183 Cl  0  0  0  0  0  0  0  0  0  0  0  0
    3.0284    2.2561    0.3758 C   0  0  0  0  0  0  0  0  0  0  0  0
    2.3424    1.0968    0.6600 C   0  0  0  0  0  0  0  0  0  0  0  0
    1.7482    0.6338    3.8194 H   0  0  0  0  0  0  0  0  0  0  0  0
    0.5493    1.7766    3.1503 H   0  0  0  0  0  0  0  0  0  0  0  0
    2.3544    2.1180    3.0725 H   0  0  0  0  0  0  0  0  0  0  0  0
    0.5932   -1.2143    2.1339 H   0  0  0  0  0  0  0  0  0  0  0  0
   -2.0592   -3.8511    1.1724 H   0  0  0  0  0  0  0  0  0  0  0  0
   -4.7153    0.2309    1.1197 H   0  0  0  0  0  0  0  0  0  0  0  0
   -4.1321    3.1697   -1.0555 H   0  0  0  0  0  0  0  0  0  0  0  0
   -5.3412    2.3176    0.0156 H   0  0  0  0  0  0  0  0  0  0  0  0
   -3.2084    4.0660    0.6333 H   0  0  0  0  0  0  0  0  0  0  0  0
   -1.9109    2.2161   -1.3911 H   0  0  0  0  0  0  0  0  0  0  0  0
   -0.5123    0.1853   -1.4180 H   0  0  0  0  0  0  0  0  0  0  0  0
    1.8833   -4.9055   -2.2636 H   0  0  0  0  0  0  0  0  0  0  0  0
    2.7728   -0.4069   -2.3727 H   0  0  0  0  0  0  0  0  0  0  0  0
    3.1009    3.0117    1.1457 H   0  0  0  0  0  0  0  0  0  0  0  0
  1  2  1  0
  2  3  1  0
  3  4  2  0
  4  5  1  0
  5  6  2  0
  6  7  1  0
  7  8  2  0
  8  9  1  0
  9 10  1  0
 10 11  2  0
 11 12  1  0
 12 13  1  0
 13 14  1  0
 12 15  2  0
 15 16  1  0
 16 17  2  0
  6 18  1  0
 18 19  2  0
 18 20  1  0
 20 21  1  0
 21 22  2  0
  4 23  1  0
 23 24  2  0
 24 25  1  0
 25 26  1  0
 25 27  2  0
 27 28  1  0
 27 29  1  0
 29 30  2  0
 30  2  1  0
 21  5  1  0
 30 23  1  0
 17  7  1  0
 17 10  1  0
  1 31  1  0
  1 32  1  0
  1 33  1  0
  3 34  1  0
  8 35  1  0
 11 36  1  0
 13 37  1  0
 13 38  1  0
 14 39  1  0
 15 40  1  0
 16 41  1  0
 20 42  1  0
 24 43  1  0
 29 44  1  0
M  END
$$$$
