
     RDKit          3D

 49 47  0  0  0  0  0  0  0  0999 V2000
    0.0000    0.0000    0.0000 Na  0  0  0  0  0 15  0  0  0  0  0  0
   -5.9928   -0.2254   -0.3216 C   0  0  0  0  0  0  0  0  0  0  0  0
   -4.5221   -0.3880    0.0015 C   0  0  0  0  0  0  0  0  0  0  0  0
   -3.6561   -0.4033   -1.2404 C   0  0  0  0  0  0  0  0  0  0  0  0
   -2.2246   -0.5505   -0.8672 C   0  0  0  0  0  0  0  0  0  0  0  0
   -1.5985    0.5105   -0.0478 C   0  0  0  0  0  0  0  0  0  0  0  0
   -1.4832    1.8645   -0.6019 C   0  0  0  0  0  0  0  0  0  0  0  0
   -2.7178    2.6012   -0.9680 C   0  0  0  0  0  0  0  0  0  0  0  0
   -0.2377    0.0245    0.4431 C   0  0  0  0  0  0  0  0  0  0  0  0
    0.7234   -0.3097   -0.6563 C   0  0  0  0  0  0  0  0  0  0  0  0
    2.0071   -0.7766   -0.0689 C   0  0  0  0  0  0  0  0  0  0  0  0
    2.5925    0.3110    0.7881 C   0  0  0  0  0  0  0  0  0  0  0  0
    3.9220   -0.0637    1.4213 C   0  0  0  0  0  0  0  0  0  0  0  0
    4.3207    1.1678    2.2387 C   0  0  0  0  0  0  0  0  0  0  0  0
    5.0105   -0.3451    0.4466 C   0  0  0  0  0  0  0  0  0  0  0  0
    2.8734   -1.3849   -0.9336 O   0  0  0  0  0  0  0  0  0  0  0  0
    3.1603   -2.9868   -0.6824 S   0  0  0  0  0  0  0  0  0  0  0  0
    3.2739   -3.3407    0.9568 O   0  0  0  0  0  1  0  0  0  0  0  0
    4.5170   -3.2947   -1.2806 O   0  0  0  0  0  0  0  0  0  0  0  0
    2.2068   -3.9147   -1.3470 O   0  0  0  0  0  0  0  0  0  0  0  0
   -6.5054    0.3754    0.4524 H   0  0  0  0  0  0  0  0  0  0  0  0
   -6.5311   -1.1834   -0.3918 H   0  0  0  0  0  0  0  0  0  0  0  0
   -6.1423    0.2986   -1.2930 H   0  0  0  0  0  0  0  0  0  0  0  0
   -4.4536   -1.4323    0.4479 H   0  0  0  0  0  0  0  0  0  0  0  0
   -4.2226    0.3503    0.7324 H   0  0  0  0  0  0  0  0  0  0  0  0
   -3.9076   -1.3238   -1.8578 H   0  0  0  0  0  0  0  0  0  0  0  0
   -3.8440    0.4777   -1.8434 H   0  0  0  0  0  0  0  0  0  0  0  0
   -1.6031   -0.6995   -1.8035 H   0  0  0  0  0  0  0  0  0  0  0  0
   -2.1440   -1.5693   -0.3666 H   0  0  0  0  0  0  0  0  0  0  0  0
   -2.2309    0.6328    0.9091 H   0  0  0  0  0  0  0  0  0  0  0  0
   -0.8384    1.8774   -1.5437 H   0  0  0  0  0  0  0  0  0  0  0  0
   -0.8684    2.4979    0.1102 H   0  0  0  0  0  0  0  0  0  0  0  0
   -2.9129    2.5543   -2.0763 H   0  0  0  0  0  0  0  0  0  0  0  0
   -3.5650    2.2799   -0.3771 H   0  0  0  0  0  0  0  0  0  0  0  0
   -2.5145    3.7209   -0.7721 H   0  0  0  0  0  0  0  0  0  0  0  0
    0.1252    0.8913    1.0617 H   0  0  0  0  0  0  0  0  0  0  0  0
   -0.3920   -0.8039    1.1740 H   0  0  0  0  0  0  0  0  0  0  0  0
    0.8697    0.6672   -1.2100 H   0  0  0  0  0  0  0  0  0  0  0  0
    0.2569   -1.0590   -1.3300 H   0  0  0  0  0  0  0  0  0  0  0  0
    1.7244   -1.5937    0.6674 H   0  0  0  0  0  0  0  0  0  0  0  0
    1.9063    0.4076    1.6882 H   0  0  0  0  0  0  0  0  0  0  0  0
    2.6171    1.2930    0.3162 H   0  0  0  0  0  0  0  0  0  0  0  0
    3.7928   -0.8993    2.1113 H   0  0  0  0  0  0  0  0  0  0  0  0
    5.2218    0.9216    2.8382 H   0  0  0  0  0  0  0  0  0  0  0  0
    4.4924    2.0356    1.5649 H   0  0  0  0  0  0  0  0  0  0  0  0
    3.4631    1.3751    2.9119 H   0  0  0  0  0  0  0  0  0  0  0  0
    5.3910   -1.3901    0.5001 H   0  0  0  0  0  0  0  0  0  0  0  0
    5.8904    0.2802    0.7010 H   0  0  0  0  0  0  0  0  0  0  0  0
    4.7499   -0.0430   -0.6018 H   0  0  0  0  0  0  0  0  0  0  0  0
  2  3  1  0
  3  4  1  0
  4  5  1  0
  5  6  1  0
  6  7  1  0
  7  8  1  0
  6  9  1  0
  9 10  1  0
 10 11  1  0
 11 12  1  0
 12 13  1  0
 13 14  1  0
 13 15  1  0
 11 16  1  0
 16 17  1  0
 17 18  1  0
 17 19  2  0
 17 20  2  0
  2 21  1  0
  2 22  1  0
  2 23  1  0
  3 24  1  0
  3 25  1  0
  4 26  1  0
  4 27  1  0
  5 28  1  0
  5 29  1  0
  6 30  1  0
  7 31  1  0
  7 32  1  0
  8 33  1  0
  8 34  1  0
  8 35  1  0
  9 36  1  0
  9 37  1  0
 10 38  1  0
 10 39  1  0
 11 40  1  0
 12 41  1  0
 12 42  1  0
 13 43  1  0
 14 44  1  0
 14 45  1  0
 14 46  1  0
 15 47  1  0
 15 48  1  0
 15 49  1  0
M  CHG  2   1   1  18  -1
M  END
$$$$
