@<TRIPOS>MOLECULE
*****
 49 47 0 0 0
SMALL
GASTEIGER

@<TRIPOS>ATOM
      1 NA          0.0000    0.0000    0.0000 Na      1  UNL1        0.0000
      2 C          -5.9928   -0.2254   -0.3216 C.3     2  UNL2        0.0000
      3 C          -4.5221   -0.3880    0.0015 C.3     2  UNL2        0.0000
      4 C          -3.6561   -0.4033   -1.2404 C.3     2  UNL2        0.0000
      5 C          -2.2246   -0.5505   -0.8672 C.3     2  UNL2        0.0000
      6 C          -1.5985    0.5105   -0.0478 C.3     2  UNL2        0.0000
      7 C          -1.4832    1.8645   -0.6019 C.3     2  UNL2        0.0000
      8 C          -2.7178    2.6012   -0.9680 C.3     2  UNL2        0.0000
      9 C          -0.2377    0.0245    0.4431 C.3     2  UNL2        0.0000
     10 C           0.7234   -0.3097   -0.6563 C.3     2  UNL2        0.0000
     11 C           2.0071   -0.7766   -0.0689 C.3     2  UNL2        0.0000
     12 C           2.5925    0.3110    0.7881 C.3     2  UNL2        0.0000
     13 C           3.9220   -0.0637    1.4213 C.3     2  UNL2        0.0000
     14 C           4.3207    1.1678    2.2387 C.3     2  UNL2        0.0000
     15 C           5.0105   -0.3451    0.4466 C.3     2  UNL2        0.0000
     16 O           2.8734   -1.3849   -0.9336 O.3     2  UNL2        0.0000
     17 S           3.1603   -2.9868   -0.6824 S.3     2  UNL2        0.0000
     18 O           3.2739   -3.3407    0.9568 O.co2   2  UNL2       -0.3300
     19 O           4.5170   -3.2947   -1.2806 O.2     2  UNL2       -0.3300
     20 O           2.2068   -3.9147   -1.3470 O.2     2  UNL2       -0.3300
     21 H          -6.5054    0.3754    0.4524 H       2  UNL2        0.0000
     22 H          -6.5311   -1.1834   -0.3918 H       2  UNL2        0.0000
     23 H          -6.1423    0.2986   -1.2930 H       2  UNL2        0.0000
     24 H          -4.4536   -1.4323    0.4479 H       2  UNL2        0.0000
     25 H          -4.2226    0.3503    0.7324 H       2  UNL2        0.0000
     26 H          -3.9076   -1.3238   -1.8578 H       2  UNL2        0.0000
     27 H          -3.8440    0.4777   -1.8434 H       2  UNL2        0.0000
     28 H          -1.6031   -0.6995   -1.8035 H       2  UNL2        0.0000
     29 H          -2.1440   -1.5693   -0.3666 H       2  UNL2        0.0000
     30 H          -2.2309    0.6328    0.9091 H       2  UNL2        0.0000
     31 H          -0.8384    1.8774   -1.5437 H       2  UNL2        0.0000
     32 H          -0.8684    2.4979    0.1102 H       2  UNL2        0.0000
     33 H          -2.9129    2.5543   -2.0763 H       2  UNL2        0.0000
     34 H          -3.5650    2.2799   -0.3771 H       2  UNL2        0.0000
     35 H          -2.5145    3.7209   -0.7721 H       2  UNL2        0.0000
     36 H           0.1252    0.8913    1.0617 H       2  UNL2        0.0000
     37 H          -0.3920   -0.8039    1.1740 H       2  UNL2        0.0000
     38 H           0.8697    0.6672   -1.2100 H       2  UNL2        0.0000
     39 H           0.2569   -1.0590   -1.3300 H       2  UNL2        0.0000
     40 H           1.7244   -1.5937    0.6674 H       2  UNL2        0.0000
     41 H           1.9063    0.4076    1.6882 H       2  UNL2        0.0000
     42 H           2.6171    1.2930    0.3162 H       2  UNL2        0.0000
     43 H           3.7928   -0.8993    2.1113 H       2  UNL2        0.0000
     44 H           5.2218    0.9216    2.8382 H       2  UNL2        0.0000
     45 H           4.4924    2.0356    1.5649 H       2  UNL2        0.0000
     46 H           3.4631    1.3751    2.9119 H       2  UNL2        0.0000
     47 H           5.3910   -1.3901    0.5001 H       2  UNL2        0.0000
     48 H           5.8904    0.2802    0.7010 H       2  UNL2        0.0000
     49 H           4.7499   -0.0430   -0.6018 H       2  UNL2        0.0000
@<TRIPOS>UNITY_ATOM_ATTR
1 1
charge 1
18 1
charge -1
@<TRIPOS>BOND
     1     2     3    1
     2     3     4    1
     3     4     5    1
     4     5     6    1
     5     6     7    1
     6     7     8    1
     7     6     9    1
     8     9    10    1
     9    10    11    1
    10    11    12    1
    11    12    13    1
    12    13    14    1
    13    13    15    1
    14    11    16    1
    15    16    17    1
    16    17    18    1
    17    17    19    2
    18    17    20    2
    19     2    21    1
    20     2    22    1
    21     2    23    1
    22     3    24    1
    23     3    25    1
    24     4    26    1
    25     4    27    1
    26     5    28    1
    27     5    29    1
    28     6    30    1
    29     7    31    1
    30     7    32    1
    31     8    33    1
    32     8    34    1
    33     8    35    1
    34     9    36    1
    35     9    37    1
    36    10    38    1
    37    10    39    1
    38    11    40    1
    39    12    41    1
    40    12    42    1
    41    13    43    1
    42    14    44    1
    43    14    45    1
    44    14    46    1
    45    15    47    1
    46    15    48    1
    47    15    49    1
