
     RDKit          3D

 37 39  0  0  0  0  0  0  0  0999 V2000
   -1.1322   -1.7767    0.3138 C   0  0  2  0  0  0  0  0  0  0  0  0
    0.3641   -1.6821    0.2875 C   0  0  0  0  0  0  0  0  0  0  0  0
    0.9182   -0.3067    0.1539 C   0  0  0  0  0  0  0  0  0  0  0  0
    2.3782   -0.4367    0.1488 N   0  0  0  0  0  0  0  0  0  0  0  0
    3.1898    0.7274    0.0317 C   0  0  0  0  0  0  0  0  0  0  0  0
    2.6420    1.8376   -0.0645 O   0  0  0  0  0  0  0  0  0  0  0  0
    4.6464    0.5848    0.0278 C   0  0  0  0  0  0  0  0  0  0  0  0
    5.3974   -0.5733    0.1260 C   0  0  0  0  0  0  0  0  0  0  0  0
    6.6790   -0.2538    0.0814 O   0  0  0  0  0  0  0  0  0  0  0  0
    6.8319    1.0478   -0.0407 C   0  0  0  0  0  0  0  0  0  0  0  0
    5.5566    1.6129   -0.0780 C   0  0  0  0  0  0  0  0  0  0  0  0
   -1.7841   -1.2757   -0.8481 N   0  0  0  0  0  0  0  0  0  0  0  0
   -2.8746   -0.3795   -0.9925 C   0  0  0  0  0  0  0  0  0  0  0  0
   -3.3889    0.0067   -2.1906 C   0  0  0  0  0  0  0  0  0  0  0  0
   -2.8516   -0.4745   -3.3417 F   0  0  0  0  0  0  0  0  0  0  0  0
   -4.4522    0.8860   -2.1649 C   0  0  0  0  0  0  0  0  0  0  0  0
   -4.9827    1.3632   -0.9619 C   0  0  0  0  0  0  0  0  0  0  0  0
   -4.4398    0.9543    0.2614 C   0  0  0  0  0  0  0  0  0  0  0  0
   -4.9157    1.3861    1.4541 F   0  0  0  0  0  0  0  0  0  0  0  0
   -3.3812    0.0778    0.2050 C   0  0  0  0  0  0  0  0  0  0  0  0
   -2.7210   -0.4291    1.3937 C   0  0  0  0  0  0  0  0  0  0  0  0
   -3.2378    0.0387    2.6551 N   0  0  0  0  0  0  0  0  0  0  0  0
   -1.7307   -1.2441    1.4929 N   0  0  0  0  0  0  0  0  0  0  0  0
   -1.3497   -2.8856    0.3343 H   0  0  0  0  0  0  0  0  0  0  0  0
    0.7539   -2.3272   -0.5109 H   0  0  0  0  0  0  0  0  0  0  0  0
    0.7243   -2.0833    1.2692 H   0  0  0  0  0  0  0  0  0  0  0  0
    0.6733    0.3498    0.9880 H   0  0  0  0  0  0  0  0  0  0  0  0
    0.5708    0.1546   -0.7862 H   0  0  0  0  0  0  0  0  0  0  0  0
    2.8745   -1.3591    0.2282 H   0  0  0  0  0  0  0  0  0  0  0  0
    4.9811   -1.5639    0.2225 H   0  0  0  0  0  0  0  0  0  0  0  0
    7.7838    1.5608   -0.0993 H   0  0  0  0  0  0  0  0  0  0  0  0
    5.3858    2.6765   -0.1743 H   0  0  0  0  0  0  0  0  0  0  0  0
   -1.3414   -1.6693   -1.7049 H   0  0  0  0  0  0  0  0  0  0  0  0
   -4.8954    1.2221   -3.0921 H   0  0  0  0  0  0  0  0  0  0  0  0
   -5.8168    2.0522   -0.9650 H   0  0  0  0  0  0  0  0  0  0  0  0
   -3.2119    0.8578    3.2930 H   0  0  0  0  0  0  0  0  0  0  0  0
   -3.8431   -0.7169    3.0476 H   0  0  0  0  0  0  0  0  0  0  0  0
  1  2  1  0
  2  3  1  0
  3  4  1  0
  4  5  1  0
  5  6  2  0
  5  7  1  0
  7  8  2  0
  8  9  1  0
  9 10  1  0
 10 11  2  0
  1 12  1  0
 12 13  1  0
 13 14  2  0
 14 15  1  0
 14 16  1  0
 16 17  2  0
 17 18  1  0
 18 19  1  0
 18 20  2  0
 20 21  1  0
 21 22  1  0
 21 23  2  0
 23  1  1  0
 11  7  1  0
 20 13  1  0
  1 24  1  1
  2 25  1  0
  2 26  1  0
  3 27  1  0
  3 28  1  0
  4 29  1  0
  8 30  1  0
 10 31  1  0
 11 32  1  0
 12 33  1  0
 16 34  1  0
 17 35  1  0
 22 36  1  0
 22 37  1  0
M  END
$$$$
