
     RDKit          3D

 83 86  0  0  0  0  0  0  0  0999 V2000
   -3.4119   -3.9764   -0.9404 C   0  0  0  0  0  0  0  0  0  0  0  0
   -3.6664   -3.0469   -2.1268 C   0  0  0  0  0  0  0  0  0  0  0  0
   -4.6484   -3.7372   -3.0394 C   0  0  0  0  0  0  0  0  0  0  0  0
   -4.2006   -1.7839   -1.6512 N   0  0  0  0  0  0  0  0  0  0  0  0
   -3.4922   -0.9178   -0.7815 C   0  0  0  0  0  0  0  0  0  0  0  0
   -2.2044   -1.1719   -0.3118 C   0  0  0  0  0  0  0  0  0  0  0  0
   -1.5645   -0.3095    0.5419 C   0  0  0  0  0  0  0  0  0  0  0  0
   -0.2259   -0.5495    1.0137 C   0  0  0  0  0  0  0  0  0  0  0  0
    0.1796    0.0678    2.0631 O   0  0  0  0  0  0  0  0  0  0  0  0
    0.6510   -1.4377    0.3592 N   0  0  0  0  0  0  0  0  0  0  0  0
    1.9861   -1.6608    0.8679 C   0  0  1  0  0  0  0  0  0  0  0  0
    2.4566   -3.0472    0.7206 C   0  0  0  0  0  0  0  0  0  0  0  0
    1.6255   -4.0671    1.4119 C   0  0  0  0  0  0  0  0  0  0  0  0
    0.5464   -4.6608    0.7854 C   0  0  0  0  0  0  0  0  0  0  0  0
   -0.1895   -5.6072    1.4401 C   0  0  0  0  0  0  0  0  0  0  0  0
    0.0712   -6.0248    2.7121 C   0  0  0  0  0  0  0  0  0  0  0  0
    1.1427   -5.4448    3.3519 C   0  0  0  0  0  0  0  0  0  0  0  0
    1.9159   -4.4723    2.7064 C   0  0  0  0  0  0  0  0  0  0  0  0
    2.9116   -0.6152    0.2825 C   0  0  2  0  0  0  0  0  0  0  0  0
    2.3641    0.6168    0.7338 O   0  0  0  0  0  0  0  0  0  0  0  0
    2.9287   -0.5826   -1.2181 C   0  0  0  0  0  0  0  0  0  0  0  0
    3.7005    0.5526   -1.6772 N   0  0  0  0  0  0  0  0  0  0  0  0
    5.1025    0.4840   -1.4241 C   0  0  0  0  0  0  0  0  0  0  0  0
    5.6602    1.8272   -1.8193 C   0  0  0  0  0  0  0  0  0  0  0  0
    6.0922    2.1273   -3.0865 C   0  0  0  0  0  0  0  0  0  0  0  0
    6.5890    3.3833   -3.3914 C   0  0  0  0  0  0  0  0  0  0  0  0
    6.6415    4.3332   -2.3922 C   0  0  0  0  0  0  0  0  0  0  0  0
    6.2188    4.0787   -1.1056 C   0  0  0  0  0  0  0  0  0  0  0  0
    6.2924    5.1340   -0.0643 C   0  0  0  0  0  0  0  0  0  0  0  0
    6.3085    4.5813    1.2120 F   0  0  0  0  0  0  0  0  0  0  0  0
    7.3418    6.0007   -0.2549 F   0  0  0  0  0  0  0  0  0  0  0  0
    5.1375    5.9236   -0.0980 F   0  0  0  0  0  0  0  0  0  0  0  0
    5.7356    2.8094   -0.8644 C   0  0  0  0  0  0  0  0  0  0  0  0
   -2.2194    0.8334    0.9359 C   0  0  0  0  0  0  0  0  0  0  0  0
   -3.4937    1.1414    0.5042 C   0  0  0  0  0  0  0  0  0  0  0  0
   -4.1100    2.3522    0.9538 N   0  0  0  0  0  0  0  0  0  0  0  0
   -3.9235    3.5026    0.1212 C   0  0  0  0  0  0  0  0  0  0  0  0
   -4.2976    4.8113    0.7182 C   0  0  0  0  0  0  0  0  0  0  0  0
   -5.7019    4.7901    1.3036 C   0  0  0  0  0  0  0  0  0  0  0  0
   -5.5570    4.1306    2.6642 C   0  0  0  0  0  0  0  0  0  0  0  0
   -5.0394    2.4540    2.3906 S   0  0  0  0  0  6  0  0  0  0  0  0
   -4.2261    2.0589    3.5976 O   0  0  0  0  0  0  0  0  0  0  0  0
   -6.2845    1.6153    2.3266 O   0  0  0  0  0  0  0  0  0  0  0  0
   -4.1045    0.2509   -0.3498 C   0  0  0  0  0  0  0  0  0  0  0  0
   -4.1186   -4.8375   -0.9760 H   0  0  0  0  0  0  0  0  0  0  0  0
   -2.3942   -4.3781   -0.9427 H   0  0  0  0  0  0  0  0  0  0  0  0
   -3.6098   -3.3880    0.0039 H   0  0  0  0  0  0  0  0  0  0  0  0
   -2.7069   -2.8887   -2.6820 H   0  0  0  0  0  0  0  0  0  0  0  0
   -4.1542   -4.4343   -3.7463 H   0  0  0  0  0  0  0  0  0  0  0  0
   -5.3849   -4.3626   -2.4642 H   0  0  0  0  0  0  0  0  0  0  0  0
   -5.2375   -3.0290   -3.6625 H   0  0  0  0  0  0  0  0  0  0  0  0
   -5.1441   -1.5206   -1.9726 H   0  0  0  0  0  0  0  0  0  0  0  0
   -1.7381   -2.0806   -0.6595 H   0  0  0  0  0  0  0  0  0  0  0  0
    0.3422   -1.9528   -0.5177 H   0  0  0  0  0  0  0  0  0  0  0  0
    1.9534   -1.3898    1.9632 H   0  0  0  0  0  0  0  0  0  0  0  0
    3.4832   -3.1885    1.1542 H   0  0  0  0  0  0  0  0  0  0  0  0
    2.5555   -3.3918   -0.3327 H   0  0  0  0  0  0  0  0  0  0  0  0
    0.3244   -4.3467   -0.2152 H   0  0  0  0  0  0  0  0  0  0  0  0
   -1.0217   -6.0327    0.8971 H   0  0  0  0  0  0  0  0  0  0  0  0
   -0.5379   -6.7858    3.2029 H   0  0  0  0  0  0  0  0  0  0  0  0
    1.4133   -5.7231    4.3562 H   0  0  0  0  0  0  0  0  0  0  0  0
    2.7446   -4.0548    3.2623 H   0  0  0  0  0  0  0  0  0  0  0  0
    3.9276   -0.6651    0.6846 H   0  0  0  0  0  0  0  0  0  0  0  0
    2.9008    0.9768    1.4906 H   0  0  0  0  0  0  0  0  0  0  0  0
    3.3101   -1.5078   -1.6774 H   0  0  0  0  0  0  0  0  0  0  0  0
    1.9013   -0.4385   -1.6098 H   0  0  0  0  0  0  0  0  0  0  0  0
    3.3402    1.4294   -1.2135 H   0  0  0  0  0  0  0  0  0  0  0  0
    5.6415   -0.2613   -2.0323 H   0  0  0  0  0  0  0  0  0  0  0  0
    5.3782    0.2881   -0.3652 H   0  0  0  0  0  0  0  0  0  0  0  0
    6.0415    1.3732   -3.8572 H   0  0  0  0  0  0  0  0  0  0  0  0
    6.9278    3.6150   -4.3855 H   0  0  0  0  0  0  0  0  0  0  0  0
    7.0349    5.3050   -2.6598 H   0  0  0  0  0  0  0  0  0  0  0  0
    5.4071    2.6113    0.1433 H   0  0  0  0  0  0  0  0  0  0  0  0
   -1.7469    1.5516    1.6156 H   0  0  0  0  0  0  0  0  0  0  0  0
   -2.8175    3.5556   -0.1084 H   0  0  0  0  0  0  0  0  0  0  0  0
   -4.4484    3.3755   -0.8713 H   0  0  0  0  0  0  0  0  0  0  0  0
   -3.5328    5.1599    1.4367 H   0  0  0  0  0  0  0  0  0  0  0  0
   -4.3167    5.5556   -0.1043 H   0  0  0  0  0  0  0  0  0  0  0  0
   -6.1494    5.7837    1.3452 H   0  0  0  0  0  0  0  0  0  0  0  0
   -6.2920    4.0566    0.6894 H   0  0  0  0  0  0  0  0  0  0  0  0
   -4.7110    4.6575    3.1824 H   0  0  0  0  0  0  0  0  0  0  0  0
   -6.4904    4.1584    3.2518 H   0  0  0  0  0  0  0  0  0  0  0  0
   -5.1132    0.4577   -0.7112 H   0  0  0  0  0  0  0  0  0  0  0  0
  1  2  1  0
  2  3  1  0
  2  4  1  0
  4  5  1  0
  5  6  2  0
  6  7  1  0
  7  8  1  0
  8  9  2  0
  8 10  1  0
 10 11  1  0
 11 12  1  0
 12 13  1  0
 13 14  2  0
 14 15  1  0
 15 16  2  0
 16 17  1  0
 17 18  2  0
 11 19  1  0
 19 20  1  0
 19 21  1  0
 21 22  1  0
 22 23  1  0
 23 24  1  0
 24 25  2  0
 25 26  1  0
 26 27  2  0
 27 28  1  0
 28 29  1  0
 29 30  1  0
 29 31  1  0
 29 32  1  0
 28 33  2  0
  7 34  2  0
 34 35  1  0
 35 36  1  0
 36 37  1  0
 37 38  1  0
 38 39  1  0
 39 40  1  0
 40 41  1  0
 41 42  2  0
 41 43  2  0
 35 44  2  0
 44  5  1  0
 18 13  1  0
 33 24  1  0
 41 36  1  0
  1 45  1  0
  1 46  1  0
  1 47  1  0
  2 48  1  0
  3 49  1  0
  3 50  1  0
  3 51  1  0
  4 52  1  0
  6 53  1  0
 10 54  1  0
 11 55  1  1
 12 56  1  0
 12 57  1  0
 14 58  1  0
 15 59  1  0
 16 60  1  0
 17 61  1  0
 18 62  1  0
 19 63  1  1
 20 64  1  0
 21 65  1  0
 21 66  1  0
 22 67  1  0
 23 68  1  0
 23 69  1  0
 25 70  1  0
 26 71  1  0
 27 72  1  0
 33 73  1  0
 34 74  1  0
 37 75  1  0
 37 76  1  0
 38 77  1  0
 38 78  1  0
 39 79  1  0
 39 80  1  0
 40 81  1  0
 40 82  1  0
 44 83  1  0
M  END
$$$$
