@<TRIPOS>MOLECULE
*****
 83 86 0 0 0
SMALL
GASTEIGER

@<TRIPOS>ATOM
      1 C          -3.4119   -3.9764   -0.9404 C.3     1  UNL1       -0.0470
      2 C          -3.6664   -3.0469   -2.1268 C.3     1  UNL1        0.0150
      3 C          -4.6484   -3.7372   -3.0394 C.3     1  UNL1       -0.0470
      4 N          -4.2006   -1.7839   -1.6512 N.pl3   1  UNL1       -0.3414
      5 C          -3.4922   -0.9178   -0.7815 C.ar    1  UNL1        0.0298
      6 C          -2.2044   -1.1719   -0.3118 C.ar    1  UNL1       -0.0286
      7 C          -1.5645   -0.3095    0.5419 C.ar    1  UNL1        0.0402
      8 C          -0.2259   -0.5495    1.0137 C.2     1  UNL1        0.2445
      9 O           0.1796    0.0678    2.0631 O.2     1  UNL1       -0.2702
     10 N           0.6510   -1.4377    0.3592 N.am    1  UNL1       -0.3057
     11 C           1.9861   -1.6608    0.8679 C.3     1  UNL1        0.0545
     12 C           2.4566   -3.0472    0.7206 C.3     1  UNL1       -0.0067
     13 C           1.6255   -4.0671    1.4119 C.ar    1  UNL1       -0.0455
     14 C           0.5464   -4.6608    0.7854 C.ar    1  UNL1       -0.0585
     15 C          -0.1895   -5.6072    1.4401 C.ar    1  UNL1       -0.0615
     16 C           0.0712   -6.0248    2.7121 C.ar    1  UNL1       -0.0617
     17 C           1.1427   -5.4448    3.3519 C.ar    1  UNL1       -0.0615
     18 C           1.9159   -4.4723    2.7064 C.ar    1  UNL1       -0.0585
     19 C           2.9116   -0.6152    0.2825 C.3     1  UNL1        0.0862
     20 O           2.3641    0.6168    0.7338 O.3     1  UNL1       -0.3887
     21 C           2.9287   -0.5826   -1.2181 C.3     1  UNL1        0.0240
     22 N           3.7005    0.5526   -1.6772 N.3     1  UNL1       -0.3095
     23 C           5.1025    0.4840   -1.4241 C.3     1  UNL1        0.0213
     24 C           5.6602    1.8272   -1.8193 C.ar    1  UNL1       -0.0330
     25 C           6.0922    2.1273   -3.0865 C.ar    1  UNL1       -0.0573
     26 C           6.5890    3.3833   -3.3914 C.ar    1  UNL1       -0.0609
     27 C           6.6415    4.3332   -2.3922 C.ar    1  UNL1       -0.0501
     28 C           6.2188    4.0787   -1.1056 C.ar    1  UNL1        0.0551
     29 C           6.2924    5.1340   -0.0643 C.3     1  UNL1        0.4174
     30 F           6.3085    4.5813    1.2120 F       1  UNL1       -0.1659
     31 F           7.3418    6.0007   -0.2549 F       1  UNL1       -0.1659
     32 F           5.1375    5.9236   -0.0980 F       1  UNL1       -0.1659
     33 C           5.7356    2.8094   -0.8644 C.ar    1  UNL1       -0.0457
     34 C          -2.2194    0.8334    0.9359 C.ar    1  UNL1       -0.0269
     35 C          -3.4937    1.1414    0.5042 C.ar    1  UNL1        0.0533
     36 N          -4.1100    2.3522    0.9538 N.pl3   1  UNL1       -0.2073
     37 C          -3.9235    3.5026    0.1212 C.3     1  UNL1        0.0346
     38 C          -4.2976    4.8113    0.7182 C.3     1  UNL1       -0.0340
     39 C          -5.7019    4.7901    1.3036 C.3     1  UNL1       -0.0304
     40 C          -5.5570    4.1306    2.6642 C.3     1  UNL1        0.0850
     41 S          -5.0394    2.4540    2.3906 S.O2    1  UNL1        0.0455
     42 O          -4.2261    2.0589    3.5976 O.2     1  UNL1       -0.1550
     43 O          -6.2845    1.6153    2.3266 O.2     1  UNL1       -0.1550
     44 C          -4.1045    0.2509   -0.3498 C.ar    1  UNL1       -0.0182
     45 H          -4.1186   -4.8375   -0.9760 H       1  UNL1        0.0247
     46 H          -2.3942   -4.3781   -0.9427 H       1  UNL1        0.0247
     47 H          -3.6098   -3.3880    0.0039 H       1  UNL1        0.0247
     48 H          -2.7069   -2.8887   -2.6820 H       1  UNL1        0.0492
     49 H          -4.1542   -4.4343   -3.7463 H       1  UNL1        0.0247
     50 H          -5.3849   -4.3626   -2.4642 H       1  UNL1        0.0247
     51 H          -5.2375   -3.0290   -3.6625 H       1  UNL1        0.0247
     52 H          -5.1441   -1.5206   -1.9726 H       1  UNL1        0.1463
     53 H          -1.7381   -2.0806   -0.6595 H       1  UNL1        0.0643
     54 H           0.3422   -1.9528   -0.5177 H       1  UNL1        0.1494
     55 H           1.9534   -1.3898    1.9632 H       1  UNL1        0.0527
     56 H           3.4832   -3.1885    1.1542 H       1  UNL1        0.0332
     57 H           2.5555   -3.3918   -0.3327 H       1  UNL1        0.0332
     58 H           0.3244   -4.3467   -0.2152 H       1  UNL1        0.0620
     59 H          -1.0217   -6.0327    0.8971 H       1  UNL1        0.0618
     60 H          -0.5379   -6.7858    3.2029 H       1  UNL1        0.0618
     61 H           1.4133   -5.7231    4.3562 H       1  UNL1        0.0618
     62 H           2.7446   -4.0548    3.2623 H       1  UNL1        0.0620
     63 H           3.9276   -0.6651    0.6846 H       1  UNL1        0.0624
     64 H           2.9008    0.9768    1.4906 H       1  UNL1        0.2099
     65 H           3.3101   -1.5078   -1.6774 H       1  UNL1        0.0450
     66 H           1.9013   -0.4385   -1.6098 H       1  UNL1        0.0450
     67 H           3.3402    1.4294   -1.2135 H       1  UNL1        0.1223
     68 H           5.6415   -0.2613   -2.0323 H       1  UNL1        0.0473
     69 H           5.3782    0.2881   -0.3652 H       1  UNL1        0.0473
     70 H           6.0415    1.3732   -3.8572 H       1  UNL1        0.0621
     71 H           6.9278    3.6150   -4.3855 H       1  UNL1        0.0618
     72 H           7.0349    5.3050   -2.6598 H       1  UNL1        0.0623
     73 H           5.4071    2.6113    0.1433 H       1  UNL1        0.0626
     74 H          -1.7469    1.5516    1.6156 H       1  UNL1        0.0644
     75 H          -2.8175    3.5556   -0.1084 H       1  UNL1        0.0482
     76 H          -4.4484    3.3755   -0.8713 H       1  UNL1        0.0482
     77 H          -3.5328    5.1599    1.4367 H       1  UNL1        0.0281
     78 H          -4.3167    5.5556   -0.1043 H       1  UNL1        0.0281
     79 H          -6.1494    5.7837    1.3452 H       1  UNL1        0.0282
     80 H          -6.2920    4.0566    0.6894 H       1  UNL1        0.0282
     81 H          -4.7110    4.6575    3.1824 H       1  UNL1        0.0518
     82 H          -6.4904    4.1584    3.2518 H       1  UNL1        0.0518
     83 H          -5.1132    0.4577   -0.7112 H       1  UNL1        0.0655
@<TRIPOS>BOND
     1     1     2    1
     2     2     3    1
     3     2     4    1
     4     4     5    1
     5     5     6   ar
     6     6     7   ar
     7     7     8    1
     8     8     9    2
     9     8    10   am
    10    10    11    1
    11    11    12    1
    12    12    13    1
    13    13    14   ar
    14    14    15   ar
    15    15    16   ar
    16    16    17   ar
    17    17    18   ar
    18    11    19    1
    19    19    20    1
    20    19    21    1
    21    21    22    1
    22    22    23    1
    23    23    24    1
    24    24    25   ar
    25    25    26   ar
    26    26    27   ar
    27    27    28   ar
    28    28    29    1
    29    29    30    1
    30    29    31    1
    31    29    32    1
    32    28    33   ar
    33     7    34   ar
    34    34    35   ar
    35    35    36    1
    36    36    37    1
    37    37    38    1
    38    38    39    1
    39    39    40    1
    40    40    41    1
    41    41    42    2
    42    41    43    2
    43    35    44   ar
    44    44     5   ar
    45    18    13   ar
    46    33    24   ar
    47    41    36    1
    48     1    45    1
    49     1    46    1
    50     1    47    1
    51     2    48    1
    52     3    49    1
    53     3    50    1
    54     3    51    1
    55     4    52    1
    56     6    53    1
    57    10    54    1
    58    11    55    1
    59    12    56    1
    60    12    57    1
    61    14    58    1
    62    15    59    1
    63    16    60    1
    64    17    61    1
    65    18    62    1
    66    19    63    1
    67    20    64    1
    68    21    65    1
    69    21    66    1
    70    22    67    1
    71    23    68    1
    72    23    69    1
    73    25    70    1
    74    26    71    1
    75    27    72    1
    76    33    73    1
    77    34    74    1
    78    37    75    1
    79    37    76    1
    80    38    77    1
    81    38    78    1
    82    39    79    1
    83    39    80    1
    84    40    81    1
    85    40    82    1
    86    44    83    1
