@<TRIPOS>MOLECULE
*****
 83 86 0 0 0
SMALL
GASTEIGER

@<TRIPOS>ATOM
      1 C           3.1144   -1.3368    3.1566 C.3     1  UNL1       -0.0626
      2 C           4.1034   -0.2583    2.9882 C.3     1  UNL1       -0.0450
      3 C           5.5014   -0.9087    2.9863 C.3     1  UNL1       -0.0626
      4 C           3.9496    0.6969    1.8664 C.3     1  UNL1       -0.0310
      5 C           3.9587    0.1855    0.4828 C.3     1  UNL1        0.0349
      6 N           3.8257    1.2969   -0.4481 N.3     1  UNL1       -0.3092
      7 C           4.0945    0.9113   -1.7977 C.3     1  UNL1       -0.0024
      8 C           5.5161    0.5465   -2.0951 C.3     1  UNL1       -0.0280
      9 C           6.4488    1.7031   -1.8079 C.3     1  UNL1       -0.0058
     10 N           7.8061    1.3249   -2.1113 N.3     1  UNL1       -0.3299
     11 C           3.0628   -0.9357    0.1611 C.ar    1  UNL1       -0.0067
     12 C           3.6080   -2.2025    0.1395 C.ar    1  UNL1       -0.0551
     13 C           2.9017   -3.3458   -0.1346 C.ar    1  UNL1       -0.0586
     14 C           1.5522   -3.2538   -0.4117 C.ar    1  UNL1       -0.0246
     15 C           1.0051   -2.0005   -0.3919 C.ar    1  UNL1        0.1446
     16 F          -0.3272   -1.9283   -0.6718 F       1  UNL1       -0.2035
     17 C           1.7204   -0.8259   -0.1130 C.ar    1  UNL1        0.0702
     18 N           1.0322    0.3819   -0.1613 N.pl3   1  UNL1       -0.3244
     19 C           0.7970    1.1770   -1.3606 C.3     1  UNL1        0.0281
     20 C          -0.6977    1.2330   -1.6501 C.3     1  UNL1        0.0305
     21 N          -1.4836    0.9811   -0.4617 N.am    1  UNL1       -0.2970
     22 C          -2.7453    0.3010   -0.6304 C.2     1  UNL1        0.2365
     23 O          -3.0707   -0.0663   -1.7979 O.2     1  UNL1       -0.2735
     24 C          -3.6520    0.0132    0.4709 C.3     1  UNL1        0.1063
     25 C          -4.6270    1.1168    0.8284 C.3     1  UNL1        0.0009
     26 C          -5.5726    1.5134   -0.2012 C.ar    1  UNL1       -0.0267
     27 C          -6.8469    0.9713   -0.1952 C.ar    1  UNL1       -0.0557
     28 C          -7.7300    1.3160   -1.1839 C.ar    1  UNL1       -0.0430
     29 C          -7.4018    2.1886   -2.1951 C.ar    1  UNL1        0.0424
     30 CL         -8.5739    2.6060   -3.4561 Cl      1  UNL1       -0.0835
     31 C          -6.1360    2.7335   -2.2087 C.ar    1  UNL1       -0.0248
     32 C          -5.2325    2.3787   -1.1931 C.ar    1  UNL1        0.0456
     33 CL         -3.6793    3.1993   -1.3096 Cl      1  UNL1       -0.0832
     34 N          -4.4202   -1.2283    0.2325 N.am    1  UNL1       -0.2896
     35 C          -4.3930   -2.3881    1.1321 C.3     1  UNL1        0.0159
     36 C          -5.8842   -2.7227    1.1862 C.3     1  UNL1       -0.0289
     37 C          -6.3010   -2.5346   -0.2729 C.3     1  UNL1        0.0256
     38 C          -5.2945   -1.5730   -0.8117 C.2     1  UNL1        0.2162
     39 O          -5.3040   -1.1977   -1.9898 O.2     1  UNL1       -0.2756
     40 C          -0.9794    1.3981    0.8064 C.3     1  UNL1        0.0305
     41 C           0.4585    0.9618    1.0355 C.3     1  UNL1        0.0281
     42 H           2.1543   -1.2477    2.6562 H       1  UNL1        0.0232
     43 H           2.8438   -1.3759    4.2649 H       1  UNL1        0.0232
     44 H           3.6001   -2.3300    3.0031 H       1  UNL1        0.0232
     45 H           4.1408    0.3754    3.9397 H       1  UNL1        0.0296
     46 H           5.8592   -1.0241    4.0199 H       1  UNL1        0.0232
     47 H           5.4121   -1.9472    2.5896 H       1  UNL1        0.0232
     48 H           6.1865   -0.3721    2.3242 H       1  UNL1        0.0232
     49 H           3.1517    1.4754    2.0749 H       1  UNL1        0.0286
     50 H           4.8850    1.3590    1.9318 H       1  UNL1        0.0286
     51 H           5.0151   -0.1651    0.2865 H       1  UNL1        0.0511
     52 H           4.4234    2.0854   -0.1767 H       1  UNL1        0.1225
     53 H           3.4802    0.0488   -2.1376 H       1  UNL1        0.0425
     54 H           3.8174    1.7624   -2.4510 H       1  UNL1        0.0425
     55 H           5.5513    0.3562   -3.2103 H       1  UNL1        0.0290
     56 H           5.7928   -0.3824   -1.5833 H       1  UNL1        0.0290
     57 H           6.3599    1.9872   -0.7200 H       1  UNL1        0.0422
     58 H           6.1714    2.5797   -2.3972 H       1  UNL1        0.0422
     59 H           8.3812    1.1832   -1.2665 H       1  UNL1        0.1182
     60 H           8.2098    2.0157   -2.7615 H       1  UNL1        0.1182
     61 H           4.6633   -2.3267    0.3490 H       1  UNL1        0.0621
     62 H           3.3458   -4.3422   -0.1489 H       1  UNL1        0.0619
     63 H           0.9595   -4.1467   -0.6370 H       1  UNL1        0.0647
     64 H           1.2610    0.7963   -2.2632 H       1  UNL1        0.0479
     65 H           1.1453    2.2115   -1.0993 H       1  UNL1        0.0479
     66 H          -0.9183    0.4212   -2.3702 H       1  UNL1        0.0480
     67 H          -0.9613    2.1793   -2.1282 H       1  UNL1        0.0480
     68 H          -3.1044   -0.1788    1.4215 H       1  UNL1        0.0600
     69 H          -4.0277    2.0049    1.1658 H       1  UNL1        0.0336
     70 H          -5.1840    0.7817    1.7261 H       1  UNL1        0.0336
     71 H          -7.1644    0.2746    0.5787 H       1  UNL1        0.0621
     72 H          -8.7546    0.8822   -1.1813 H       1  UNL1        0.0632
     73 H          -5.8760    3.4223   -3.0016 H       1  UNL1        0.0647
     74 H          -4.0092   -2.1233    2.1327 H       1  UNL1        0.0465
     75 H          -3.8728   -3.1940    0.6233 H       1  UNL1        0.0465
     76 H          -6.0866   -3.7230    1.5645 H       1  UNL1        0.0285
     77 H          -6.3665   -1.9288    1.8225 H       1  UNL1        0.0285
     78 H          -7.3240   -2.0913   -0.2692 H       1  UNL1        0.0359
     79 H          -6.2426   -3.5143   -0.7568 H       1  UNL1        0.0359
     80 H          -1.0891    2.5024    0.8602 H       1  UNL1        0.0480
     81 H          -1.5443    1.0102    1.6716 H       1  UNL1        0.0480
     82 H           0.5887    0.3596    1.9470 H       1  UNL1        0.0479
     83 H           1.0224    1.9105    1.1955 H       1  UNL1        0.0479
@<TRIPOS>BOND
     1     1     2    1
     2     2     3    1
     3     2     4    1
     4     4     5    1
     5     5     6    1
     6     6     7    1
     7     7     8    1
     8     8     9    1
     9     9    10    1
    10     5    11    1
    11    11    12   ar
    12    12    13   ar
    13    13    14   ar
    14    14    15   ar
    15    15    16    1
    16    15    17   ar
    17    17    18    1
    18    18    19    1
    19    19    20    1
    20    20    21    1
    21    21    22   am
    22    22    23    2
    23    22    24    1
    24    24    25    1
    25    25    26    1
    26    26    27   ar
    27    27    28   ar
    28    28    29   ar
    29    29    30    1
    30    29    31   ar
    31    31    32   ar
    32    32    33    1
    33    24    34    1
    34    34    35    1
    35    35    36    1
    36    36    37    1
    37    37    38    1
    38    38    39    2
    39    21    40    1
    40    40    41    1
    41    17    11   ar
    42    41    18    1
    43    32    26   ar
    44    38    34   am
    45     1    42    1
    46     1    43    1
    47     1    44    1
    48     2    45    1
    49     3    46    1
    50     3    47    1
    51     3    48    1
    52     4    49    1
    53     4    50    1
    54     5    51    1
    55     6    52    1
    56     7    53    1
    57     7    54    1
    58     8    55    1
    59     8    56    1
    60     9    57    1
    61     9    58    1
    62    10    59    1
    63    10    60    1
    64    12    61    1
    65    13    62    1
    66    14    63    1
    67    19    64    1
    68    19    65    1
    69    20    66    1
    70    20    67    1
    71    24    68    1
    72    25    69    1
    73    25    70    1
    74    27    71    1
    75    28    72    1
    76    31    73    1
    77    35    74    1
    78    35    75    1
    79    36    76    1
    80    36    77    1
    81    37    78    1
    82    37    79    1
    83    40    80    1
    84    40    81    1
    85    41    82    1
    86    41    83    1
