
     RDKit          3D

 64 64  0  0  0  0  0  0  0  0999 V2000
    1.3094   -0.6140   -0.0143 C   0  0  2  0  0  0  0  0  0  0  0  0
    1.3291   -0.4917    1.4774 C   0  0  0  0  0  0  0  0  0  0  0  0
    2.5131    0.2309    1.8861 N   0  0  0  0  0  0  0  0  0  0  0  0
    3.8604   -0.1181    1.6603 C   0  0  0  0  0  0  0  0  0  0  0  0
    4.1468   -1.1553    1.0439 O   0  0  0  0  0  0  0  0  0  0  0  0
    4.9782    0.7121    2.1340 C   0  0  0  0  0  0  0  0  0  0  0  0
    6.1648    0.6350    2.0706 N   0  0  0  0  0  0  0  0  0  0  0  0
    7.0097    1.5179    2.5790 C   0  0  0  0  0  0  0  0  0  0  0  0
    6.4476    2.6603    3.2622 C   0  0  0  0  0  0  0  0  0  0  0  0
    4.6379    2.2960    3.0744 S   0  0  0  0  0  0  0  0  0  0  0  0
    1.3113    0.7272   -0.6829 C   0  0  0  0  0  0  0  0  0  0  0  0
    1.2733    1.9305   -0.2970 O   0  0  0  0  0  0  0  0  0  0  0  0
    1.3746    0.5538   -2.1103 N   0  0  0  0  0  0  0  0  0  0  0  0
    1.3889    1.6548   -2.9303 O   0  0  0  0  0  0  0  0  0  0  0  0
    0.1895   -1.4808   -0.5141 C   0  0  1  0  0  0  0  0  0  0  0  0
    0.3178   -2.8677    0.0304 C   0  0  0  0  0  0  0  0  0  0  0  0
    1.5899   -3.5730   -0.3539 C   0  0  0  0  0  0  0  0  0  0  0  0
    1.6436   -3.6598   -1.8711 C   0  0  0  0  0  0  0  0  0  0  0  0
    1.5677   -4.9624    0.2530 C   0  0  0  0  0  0  0  0  0  0  0  0
   -1.1554   -0.9695   -0.1435 C   0  0  0  0  0  0  0  0  0  0  0  0
   -1.9537   -1.6706    0.5753 O   0  0  0  0  0  0  0  0  0  0  0  0
   -1.7366    0.2684   -0.4882 N   0  0  0  0  0  0  0  0  0  0  0  0
   -3.0661    0.6588   -0.0641 C   0  0  2  0  0  0  0  0  0  0  0  0
   -3.8574    0.8339   -1.3046 C   0  0  0  0  0  0  0  0  0  0  0  0
   -2.8086    0.5422   -1.9766 O   0  0  0  0  0  0  0  0  0  0  0  0
   -5.1404    1.1578   -1.7557 N   0  0  0  0  0  0  0  0  0  0  0  0
   -5.1812    1.1336   -3.1996 C   0  0  0  0  0  0  0  0  0  0  0  0
   -3.0445    1.9527    0.7168 C   0  0  0  0  0  0  0  0  0  0  0  0
   -2.1638    1.8002    1.9690 C   0  0  0  0  0  0  0  0  0  0  0  0
   -4.4212    2.2550    1.2666 C   0  0  0  0  0  0  0  0  0  0  0  0
   -2.5230    3.1238   -0.0495 C   0  0  0  0  0  0  0  0  0  0  0  0
    2.2539   -1.0841   -0.3340 H   0  0  0  0  0  0  0  0  0  0  0  0
    0.4146   -0.0943    1.9102 H   0  0  0  0  0  0  0  0  0  0  0  0
    1.4545   -1.5242    1.9117 H   0  0  0  0  0  0  0  0  0  0  0  0
    2.3422    1.1224    2.4140 H   0  0  0  0  0  0  0  0  0  0  0  0
    8.0670    1.2519    2.4058 H   0  0  0  0  0  0  0  0  0  0  0  0
    7.3189    3.3552    3.6594 H   0  0  0  0  0  0  0  0  0  0  0  0
    1.4173   -0.2934   -2.7509 H   0  0  0  0  0  0  0  0  0  0  0  0
    2.2680    1.6290   -3.4031 H   0  0  0  0  0  0  0  0  0  0  0  0
    0.2892   -1.5542   -1.6161 H   0  0  0  0  0  0  0  0  0  0  0  0
    0.1545   -2.9224    1.1290 H   0  0  0  0  0  0  0  0  0  0  0  0
   -0.5147   -3.5005   -0.3994 H   0  0  0  0  0  0  0  0  0  0  0  0
    2.4687   -3.0400    0.0276 H   0  0  0  0  0  0  0  0  0  0  0  0
    0.6059   -3.6282   -2.3041 H   0  0  0  0  0  0  0  0  0  0  0  0
    2.1217   -4.5908   -2.2050 H   0  0  0  0  0  0  0  0  0  0  0  0
    2.1762   -2.7931   -2.3144 H   0  0  0  0  0  0  0  0  0  0  0  0
    0.5217   -5.3180    0.2984 H   0  0  0  0  0  0  0  0  0  0  0  0
    2.2084   -5.6017   -0.3944 H   0  0  0  0  0  0  0  0  0  0  0  0
    2.0080   -4.8696    1.2665 H   0  0  0  0  0  0  0  0  0  0  0  0
   -1.1567    0.9047   -1.0728 H   0  0  0  0  0  0  0  0  0  0  0  0
   -3.5624   -0.0946    0.5545 H   0  0  0  0  0  0  0  0  0  0  0  0
   -5.6794    1.3179   -0.8967 H   0  0  0  0  0  0  0  0  0  0  0  0
   -5.0685    0.1103   -3.6013 H   0  0  0  0  0  0  0  0  0  0  0  0
   -6.1933    1.5325   -3.4806 H   0  0  0  0  0  0  0  0  0  0  0  0
   -4.3822    1.7946   -3.6379 H   0  0  0  0  0  0  0  0  0  0  0  0
   -2.3862    2.6991    2.5887 H   0  0  0  0  0  0  0  0  0  0  0  0
   -2.4405    0.9278    2.5738 H   0  0  0  0  0  0  0  0  0  0  0  0
   -1.0886    1.8743    1.7167 H   0  0  0  0  0  0  0  0  0  0  0  0
   -4.3683    2.7081    2.2916 H   0  0  0  0  0  0  0  0  0  0  0  0
   -4.9866    2.9842    0.6534 H   0  0  0  0  0  0  0  0  0  0  0  0
   -5.0062    1.3229    1.3900 H   0  0  0  0  0  0  0  0  0  0  0  0
   -2.9057    4.0492    0.4439 H   0  0  0  0  0  0  0  0  0  0  0  0
   -1.4165    3.1464   -0.0659 H   0  0  0  0  0  0  0  0  0  0  0  0
   -2.9366    3.0967   -1.0871 H   0  0  0  0  0  0  0  0  0  0  0  0
  1  2  1  0
  2  3  1  0
  3  4  1  0
  4  5  2  0
  4  6  1  0
  6  7  2  0
  7  8  1  0
  8  9  2  0
  9 10  1  0
  1 11  1  0
 11 12  2  0
 11 13  1  0
 13 14  1  0
  1 15  1  0
 15 16  1  0
 16 17  1  0
 17 18  1  0
 17 19  1  0
 15 20  1  0
 20 21  2  0
 20 22  1  0
 22 23  1  0
 23 24  1  0
 24 25  2  0
 24 26  1  0
 26 27  1  0
 23 28  1  0
 28 29  1  0
 28 30  1  0
 28 31  1  0
 10  6  1  0
  1 32  1  6
  2 33  1  0
  2 34  1  0
  3 35  1  0
  8 36  1  0
  9 37  1  0
 13 38  1  0
 14 39  1  0
 15 40  1  6
 16 41  1  0
 16 42  1  0
 17 43  1  0
 18 44  1  0
 18 45  1  0
 18 46  1  0
 19 47  1  0
 19 48  1  0
 19 49  1  0
 22 50  1  0
 23 51  1  1
 26 52  1  0
 27 53  1  0
 27 54  1  0
 27 55  1  0
 29 56  1  0
 29 57  1  0
 29 58  1  0
 30 59  1  0
 30 60  1  0
 30 61  1  0
 31 62  1  0
 31 63  1  0
 31 64  1  0
M  END
$$$$
