@<TRIPOS>MOLECULE
*****
 64 64 0 0 0
SMALL
GASTEIGER

@<TRIPOS>ATOM
      1 C           1.3094   -0.6140   -0.0143 C.3     1  UNL1        0.0640
      2 C           1.3291   -0.4917    1.4774 C.3     1  UNL1        0.0238
      3 N           2.5131    0.2309    1.8861 N.am    1  UNL1       -0.3089
      4 C           3.8604   -0.1181    1.6603 C.2     1  UNL1        0.2692
      5 O           4.1468   -1.1553    1.0439 O.2     1  UNL1       -0.2679
      6 C           4.9782    0.7121    2.1340 C.ar    1  UNL1        0.1627
      7 N           6.1648    0.6350    2.0706 N.ar    1  UNL1       -0.2428
      8 C           7.0097    1.5179    2.5790 C.ar    1  UNL1        0.0356
      9 C           6.4476    2.6603    3.2622 C.ar    1  UNL1       -0.0041
     10 S           4.6379    2.2960    3.0744 S.2     1  UNL1       -0.0712
     11 C           1.3113    0.7272   -0.6829 C.2     1  UNL1        0.2407
     12 O           1.2733    1.9305   -0.2970 O.2     1  UNL1       -0.2734
     13 N           1.3746    0.5538   -2.1103 N.am    1  UNL1       -0.1972
     14 O           1.3889    1.6548   -2.9303 O.3     1  UNL1       -0.2952
     15 C           0.1895   -1.4808   -0.5141 C.3     1  UNL1        0.0484
     16 C           0.3178   -2.8677    0.0304 C.3     1  UNL1       -0.0388
     17 C           1.5899   -3.5730   -0.3539 C.3     1  UNL1       -0.0460
     18 C           1.6436   -3.6598   -1.8711 C.3     1  UNL1       -0.0626
     19 C           1.5677   -4.9624    0.2530 C.3     1  UNL1       -0.0626
     20 C          -1.1554   -0.9695   -0.1435 C.2     1  UNL1        0.2175
     21 O          -1.9537   -1.6706    0.5753 O.2     1  UNL1       -0.2755
     22 N          -1.7366    0.2684   -0.4882 N.am    1  UNL1       -0.3033
     23 C          -3.0661    0.6588   -0.0641 C.3     1  UNL1        0.1042
     24 C          -3.8574    0.8339   -1.3046 C.2     1  UNL1        0.2336
     25 O          -2.8086    0.5422   -1.9766 O.2     1  UNL1       -0.2738
     26 N          -5.1404    1.1578   -1.7557 N.am    1  UNL1       -0.3168
     27 C          -5.1812    1.1336   -3.1996 C.3     1  UNL1        0.0001
     28 C          -3.0445    1.9527    0.7168 C.3     1  UNL1       -0.0108
     29 C          -2.1638    1.8002    1.9690 C.3     1  UNL1       -0.0579
     30 C          -4.4212    2.2550    1.2666 C.3     1  UNL1       -0.0579
     31 C          -2.5230    3.1238   -0.0495 C.3     1  UNL1       -0.0579
     32 H           2.2539   -1.0841   -0.3340 H       1  UNL1        0.0418
     33 H           0.4146   -0.0943    1.9102 H       1  UNL1        0.0470
     34 H           1.4545   -1.5242    1.9117 H       1  UNL1        0.0470
     35 H           2.3422    1.1224    2.4140 H       1  UNL1        0.1491
     36 H           8.0670    1.2519    2.4058 H       1  UNL1        0.0835
     37 H           7.3189    3.3552    3.6594 H       1  UNL1        0.0709
     38 H           1.4173   -0.2934   -2.7509 H       1  UNL1        0.1822
     39 H           2.2680    1.6290   -3.4031 H       1  UNL1        0.2414
     40 H           0.2892   -1.5542   -1.6161 H       1  UNL1        0.0402
     41 H           0.1545   -2.9224    1.1290 H       1  UNL1        0.0275
     42 H          -0.5147   -3.5005   -0.3994 H       1  UNL1        0.0275
     43 H           2.4687   -3.0400    0.0276 H       1  UNL1        0.0296
     44 H           0.6059   -3.6282   -2.3041 H       1  UNL1        0.0232
     45 H           2.1217   -4.5908   -2.2050 H       1  UNL1        0.0232
     46 H           2.1762   -2.7931   -2.3144 H       1  UNL1        0.0232
     47 H           0.5217   -5.3180    0.2984 H       1  UNL1        0.0232
     48 H           2.2084   -5.6017   -0.3944 H       1  UNL1        0.0232
     49 H           2.0080   -4.8696    1.2665 H       1  UNL1        0.0232
     50 H          -1.1567    0.9047   -1.0728 H       1  UNL1        0.1495
     51 H          -3.5624   -0.0946    0.5545 H       1  UNL1        0.0600
     52 H          -5.6794    1.3179   -0.8967 H       1  UNL1        0.1484
     53 H          -5.0685    0.1103   -3.6013 H       1  UNL1        0.0426
     54 H          -6.1933    1.5325   -3.4806 H       1  UNL1        0.0426
     55 H          -4.3822    1.7946   -3.6379 H       1  UNL1        0.0426
     56 H          -2.3862    2.6991    2.5887 H       1  UNL1        0.0236
     57 H          -2.4405    0.9278    2.5738 H       1  UNL1        0.0236
     58 H          -1.0886    1.8743    1.7167 H       1  UNL1        0.0236
     59 H          -4.3683    2.7081    2.2916 H       1  UNL1        0.0236
     60 H          -4.9866    2.9842    0.6534 H       1  UNL1        0.0236
     61 H          -5.0062    1.3229    1.3900 H       1  UNL1        0.0236
     62 H          -2.9057    4.0492    0.4439 H       1  UNL1        0.0236
     63 H          -1.4165    3.1464   -0.0659 H       1  UNL1        0.0236
     64 H          -2.9366    3.0967   -1.0871 H       1  UNL1        0.0236
@<TRIPOS>BOND
     1     1     2    1
     2     2     3    1
     3     3     4   am
     4     4     5    2
     5     4     6    1
     6     6     7   ar
     7     7     8   ar
     8     8     9   ar
     9     9    10   ar
    10     1    11    1
    11    11    12    2
    12    11    13   am
    13    13    14    1
    14     1    15    1
    15    15    16    1
    16    16    17    1
    17    17    18    1
    18    17    19    1
    19    15    20    1
    20    20    21    2
    21    20    22   am
    22    22    23    1
    23    23    24    1
    24    24    25    2
    25    24    26   am
    26    26    27    1
    27    23    28    1
    28    28    29    1
    29    28    30    1
    30    28    31    1
    31    10     6   ar
    32     1    32    1
    33     2    33    1
    34     2    34    1
    35     3    35    1
    36     8    36    1
    37     9    37    1
    38    13    38    1
    39    14    39    1
    40    15    40    1
    41    16    41    1
    42    16    42    1
    43    17    43    1
    44    18    44    1
    45    18    45    1
    46    18    46    1
    47    19    47    1
    48    19    48    1
    49    19    49    1
    50    22    50    1
    51    23    51    1
    52    26    52    1
    53    27    53    1
    54    27    54    1
    55    27    55    1
    56    29    56    1
    57    29    57    1
    58    29    58    1
    59    30    59    1
    60    30    60    1
    61    30    61    1
    62    31    62    1
    63    31    63    1
    64    31    64    1
