@<TRIPOS>MOLECULE
*****
 68 71 0 0 0
SMALL
GASTEIGER

@<TRIPOS>ATOM
      1 C          -9.4389    2.7388    1.6412 C.3     1  UNL1        0.0804
      2 O          -8.2605    3.3975    1.2318 O.3     1  UNL1       -0.4796
      3 C          -7.1131    2.6571    1.0345 C.ar    1  UNL1        0.2144
      4 C          -5.9260    3.2199    0.6360 C.ar    1  UNL1        0.0003
      5 C          -4.7870    2.4783    0.4407 C.ar    1  UNL1       -0.0494
      6 C          -4.8141    1.1161    0.6462 C.ar    1  UNL1        0.0022
      7 C          -3.6395    0.2209    0.4479 C.3     1  UNL1        0.0924
      8 O          -4.1872   -1.0911    0.3355 O.3     1  UNL1       -0.3839
      9 C          -2.8099    0.3230    1.6991 C.3     1  UNL1       -0.0184
     10 C          -1.4788   -0.3320    1.6487 C.3     1  UNL1       -0.0344
     11 C          -1.1002   -0.7217    0.2494 C.3     1  UNL1        0.0107
     12 N           0.2742   -1.0032    0.0617 N.3     1  UNL1       -0.2976
     13 C           0.5205   -1.4529   -1.2884 C.3     1  UNL1        0.0009
     14 C           0.5711   -2.9770   -1.1018 C.3     1  UNL1       -0.0205
     15 C           1.4371   -3.0652    0.1328 C.3     1  UNL1        0.0370
     16 N           2.8410   -2.8527   -0.2527 N.am    1  UNL1       -0.3099
     17 C           3.7864   -3.8370    0.1149 C.2     1  UNL1        0.2305
     18 O           3.3518   -4.8597    0.7571 O.2     1  UNL1       -0.2741
     19 C           5.2203   -3.7432   -0.2058 C.3     1  UNL1        0.0884
     20 N           5.4921   -2.4938   -0.8618 N.am    1  UNL1       -0.3028
     21 C           5.2860   -1.2893   -0.1550 C.2     1  UNL1        0.2445
     22 O           4.8713   -1.3328    1.0542 O.2     1  UNL1       -0.2702
     23 C           5.5274   -0.0095   -0.7505 C.ar    1  UNL1        0.0372
     24 C           5.9708    0.0888   -2.0481 C.ar    1  UNL1       -0.0496
     25 C           6.2048    1.3474   -2.6214 C.ar    1  UNL1       -0.0605
     26 C           5.9837    2.4682   -1.8660 C.ar    1  UNL1       -0.0501
     27 C           5.5397    2.3867   -0.5647 C.ar    1  UNL1        0.0555
     28 C           5.3038    3.6210    0.2493 C.3     1  UNL1        0.4174
     29 F           4.9112    4.6302   -0.5890 F       1  UNL1       -0.1659
     30 F           4.3828    3.3247    1.2129 F       1  UNL1       -0.1659
     31 F           6.5386    3.9455    0.8196 F       1  UNL1       -0.1659
     32 C           5.3081    1.1529    0.0034 C.ar    1  UNL1       -0.0380
     33 C           0.9023   -1.9080    0.9512 C.3     1  UNL1        0.0176
     34 C          -1.4382    0.5148   -0.6033 C.3     1  UNL1       -0.0344
     35 C          -2.9403    0.5874   -0.8100 C.3     1  UNL1       -0.0184
     36 C          -6.0445    0.5939    1.0507 C.ar    1  UNL1        0.0373
     37 N          -7.1410    1.3349    1.2351 N.ar    1  UNL1       -0.2210
     38 H         -10.0387    2.3839    0.7720 H       1  UNL1        0.0660
     39 H         -10.0233    3.4581    2.2537 H       1  UNL1        0.0660
     40 H          -9.1839    1.8873    2.3198 H       1  UNL1        0.0660
     41 H          -5.8839    4.3004    0.4678 H       1  UNL1        0.0671
     42 H          -3.8464    2.9501    0.1318 H       1  UNL1        0.0623
     43 H          -4.6659   -1.1220   -0.5401 H       1  UNL1        0.2106
     44 H          -2.7493    1.4259    1.9355 H       1  UNL1        0.0297
     45 H          -3.4511   -0.0913    2.5282 H       1  UNL1        0.0297
     46 H          -1.4711   -1.1779    2.3601 H       1  UNL1        0.0281
     47 H          -0.7182    0.3975    1.9988 H       1  UNL1        0.0281
     48 H          -1.6891   -1.6029   -0.1216 H       1  UNL1        0.0462
     49 H           1.4791   -1.1233   -1.7072 H       1  UNL1        0.0427
     50 H          -0.3344   -1.2990   -1.9778 H       1  UNL1        0.0427
     51 H           1.0409   -3.4575   -1.9813 H       1  UNL1        0.0296
     52 H          -0.4405   -3.3572   -0.8822 H       1  UNL1        0.0296
     53 H           1.3171   -4.0286    0.6601 H       1  UNL1        0.0511
     54 H           3.0765   -1.9896   -0.7988 H       1  UNL1        0.1491
     55 H           5.8498   -3.8534    0.7076 H       1  UNL1        0.0558
     56 H           5.4339   -4.6190   -0.8939 H       1  UNL1        0.0558
     57 H           5.8307   -2.5104   -1.8315 H       1  UNL1        0.1495
     58 H           6.1541   -0.7839   -2.6696 H       1  UNL1        0.0625
     59 H           6.5565    1.4112   -3.6513 H       1  UNL1        0.0618
     60 H           6.1630    3.4279   -2.3069 H       1  UNL1        0.0623
     61 H           4.9618    1.0279    1.0132 H       1  UNL1        0.0631
     62 H           1.8147   -1.4072    1.3883 H       1  UNL1        0.0445
     63 H           0.2626   -2.3398    1.7321 H       1  UNL1        0.0445
     64 H          -1.1618    1.3873    0.0239 H       1  UNL1        0.0281
     65 H          -0.8526    0.5899   -1.5126 H       1  UNL1        0.0281
     66 H          -3.2631    1.5824   -1.1475 H       1  UNL1        0.0297
     67 H          -3.1988   -0.1727   -1.5947 H       1  UNL1        0.0297
     68 H          -6.0744   -0.4729    1.2146 H       1  UNL1        0.0834
@<TRIPOS>BOND
     1     1     2    1
     2     2     3    1
     3     3     4   ar
     4     4     5   ar
     5     5     6   ar
     6     6     7    1
     7     7     8    1
     8     7     9    1
     9     9    10    1
    10    10    11    1
    11    11    12    1
    12    12    13    1
    13    13    14    1
    14    14    15    1
    15    15    16    1
    16    16    17   am
    17    17    18    2
    18    17    19    1
    19    19    20    1
    20    20    21   am
    21    21    22    2
    22    21    23    1
    23    23    24   ar
    24    24    25   ar
    25    25    26   ar
    26    26    27   ar
    27    27    28    1
    28    28    29    1
    29    28    30    1
    30    28    31    1
    31    27    32   ar
    32    15    33    1
    33    11    34    1
    34    34    35    1
    35     6    36   ar
    36    36    37   ar
    37    37     3   ar
    38    35     7    1
    39    33    12    1
    40    32    23   ar
    41     1    38    1
    42     1    39    1
    43     1    40    1
    44     4    41    1
    45     5    42    1
    46     8    43    1
    47     9    44    1
    48     9    45    1
    49    10    46    1
    50    10    47    1
    51    11    48    1
    52    13    49    1
    53    13    50    1
    54    14    51    1
    55    14    52    1
    56    15    53    1
    57    16    54    1
    58    19    55    1
    59    19    56    1
    60    20    57    1
    61    24    58    1
    62    25    59    1
    63    26    60    1
    64    32    61    1
    65    33    62    1
    66    33    63    1
    67    34    64    1
    68    34    65    1
    69    35    66    1
    70    35    67    1
    71    36    68    1
