
     RDKit          3D

 68 71  0  0  0  0  0  0  0  0999 V2000
   -9.4389    2.7388    1.6412 C   0  0  0  0  0  0  0  0  0  0  0  0
   -8.2605    3.3975    1.2318 O   0  0  0  0  0  0  0  0  0  0  0  0
   -7.1131    2.6571    1.0345 C   0  0  0  0  0  0  0  0  0  0  0  0
   -5.9260    3.2199    0.6360 C   0  0  0  0  0  0  0  0  0  0  0  0
   -4.7870    2.4783    0.4407 C   0  0  0  0  0  0  0  0  0  0  0  0
   -4.8141    1.1161    0.6462 C   0  0  0  0  0  0  0  0  0  0  0  0
   -3.6395    0.2209    0.4479 C   0  0  2  0  0  0  0  0  0  0  0  0
   -4.1872   -1.0911    0.3355 O   0  0  0  0  0  0  0  0  0  0  0  0
   -2.8099    0.3230    1.6991 C   0  0  0  0  0  0  0  0  0  0  0  0
   -1.4788   -0.3320    1.6487 C   0  0  0  0  0  0  0  0  0  0  0  0
   -1.1002   -0.7217    0.2494 C   0  0  2  0  0  0  0  0  0  0  0  0
    0.2742   -1.0032    0.0617 N   0  0  0  0  0  0  0  0  0  0  0  0
    0.5205   -1.4529   -1.2884 C   0  0  0  0  0  0  0  0  0  0  0  0
    0.5711   -2.9770   -1.1018 C   0  0  0  0  0  0  0  0  0  0  0  0
    1.4371   -3.0652    0.1328 C   0  0  1  0  0  0  0  0  0  0  0  0
    2.8410   -2.8527   -0.2527 N   0  0  0  0  0  0  0  0  0  0  0  0
    3.7864   -3.8370    0.1149 C   0  0  0  0  0  0  0  0  0  0  0  0
    3.3518   -4.8597    0.7571 O   0  0  0  0  0  0  0  0  0  0  0  0
    5.2203   -3.7432   -0.2058 C   0  0  0  0  0  0  0  0  0  0  0  0
    5.4921   -2.4938   -0.8618 N   0  0  0  0  0  0  0  0  0  0  0  0
    5.2860   -1.2893   -0.1550 C   0  0  0  0  0  0  0  0  0  0  0  0
    4.8713   -1.3328    1.0542 O   0  0  0  0  0  0  0  0  0  0  0  0
    5.5274   -0.0095   -0.7505 C   0  0  0  0  0  0  0  0  0  0  0  0
    5.9708    0.0888   -2.0481 C   0  0  0  0  0  0  0  0  0  0  0  0
    6.2048    1.3474   -2.6214 C   0  0  0  0  0  0  0  0  0  0  0  0
    5.9837    2.4682   -1.8660 C   0  0  0  0  0  0  0  0  0  0  0  0
    5.5397    2.3867   -0.5647 C   0  0  0  0  0  0  0  0  0  0  0  0
    5.3038    3.6210    0.2493 C   0  0  0  0  0  0  0  0  0  0  0  0
    4.9112    4.6302   -0.5890 F   0  0  0  0  0  0  0  0  0  0  0  0
    4.3828    3.3247    1.2129 F   0  0  0  0  0  0  0  0  0  0  0  0
    6.5386    3.9455    0.8196 F   0  0  0  0  0  0  0  0  0  0  0  0
    5.3081    1.1529    0.0034 C   0  0  0  0  0  0  0  0  0  0  0  0
    0.9023   -1.9080    0.9512 C   0  0  0  0  0  0  0  0  0  0  0  0
   -1.4382    0.5148   -0.6033 C   0  0  0  0  0  0  0  0  0  0  0  0
   -2.9403    0.5874   -0.8100 C   0  0  0  0  0  0  0  0  0  0  0  0
   -6.0445    0.5939    1.0507 C   0  0  0  0  0  0  0  0  0  0  0  0
   -7.1410    1.3349    1.2351 N   0  0  0  0  0  0  0  0  0  0  0  0
  -10.0387    2.3839    0.7720 H   0  0  0  0  0  0  0  0  0  0  0  0
  -10.0233    3.4581    2.2537 H   0  0  0  0  0  0  0  0  0  0  0  0
   -9.1839    1.8873    2.3198 H   0  0  0  0  0  0  0  0  0  0  0  0
   -5.8839    4.3004    0.4678 H   0  0  0  0  0  0  0  0  0  0  0  0
   -3.8464    2.9501    0.1318 H   0  0  0  0  0  0  0  0  0  0  0  0
   -4.6659   -1.1220   -0.5401 H   0  0  0  0  0  0  0  0  0  0  0  0
   -2.7493    1.4259    1.9355 H   0  0  0  0  0  0  0  0  0  0  0  0
   -3.4511   -0.0913    2.5282 H   0  0  0  0  0  0  0  0  0  0  0  0
   -1.4711   -1.1779    2.3601 H   0  0  0  0  0  0  0  0  0  0  0  0
   -0.7182    0.3975    1.9988 H   0  0  0  0  0  0  0  0  0  0  0  0
   -1.6891   -1.6029   -0.1216 H   0  0  0  0  0  0  0  0  0  0  0  0
    1.4791   -1.1233   -1.7072 H   0  0  0  0  0  0  0  0  0  0  0  0
   -0.3344   -1.2990   -1.9778 H   0  0  0  0  0  0  0  0  0  0  0  0
    1.0409   -3.4575   -1.9813 H   0  0  0  0  0  0  0  0  0  0  0  0
   -0.4405   -3.3572   -0.8822 H   0  0  0  0  0  0  0  0  0  0  0  0
    1.3171   -4.0286    0.6601 H   0  0  0  0  0  0  0  0  0  0  0  0
    3.0765   -1.9896   -0.7988 H   0  0  0  0  0  0  0  0  0  0  0  0
    5.8498   -3.8534    0.7076 H   0  0  0  0  0  0  0  0  0  0  0  0
    5.4339   -4.6190   -0.8939 H   0  0  0  0  0  0  0  0  0  0  0  0
    5.8307   -2.5104   -1.8315 H   0  0  0  0  0  0  0  0  0  0  0  0
    6.1541   -0.7839   -2.6696 H   0  0  0  0  0  0  0  0  0  0  0  0
    6.5565    1.4112   -3.6513 H   0  0  0  0  0  0  0  0  0  0  0  0
    6.1630    3.4279   -2.3069 H   0  0  0  0  0  0  0  0  0  0  0  0
    4.9618    1.0279    1.0132 H   0  0  0  0  0  0  0  0  0  0  0  0
    1.8147   -1.4072    1.3883 H   0  0  0  0  0  0  0  0  0  0  0  0
    0.2626   -2.3398    1.7321 H   0  0  0  0  0  0  0  0  0  0  0  0
   -1.1618    1.3873    0.0239 H   0  0  0  0  0  0  0  0  0  0  0  0
   -0.8526    0.5899   -1.5126 H   0  0  0  0  0  0  0  0  0  0  0  0
   -3.2631    1.5824   -1.1475 H   0  0  0  0  0  0  0  0  0  0  0  0
   -3.1988   -0.1727   -1.5947 H   0  0  0  0  0  0  0  0  0  0  0  0
   -6.0744   -0.4729    1.2146 H   0  0  0  0  0  0  0  0  0  0  0  0
  1  2  1  0
  2  3  1  0
  3  4  2  0
  4  5  1  0
  5  6  2  0
  6  7  1  0
  7  8  1  6
  7  9  1  0
  9 10  1  0
 10 11  1  0
 11 12  1  0
 12 13  1  0
 13 14  1  0
 14 15  1  0
 15 16  1  0
 16 17  1  0
 17 18  2  0
 17 19  1  0
 19 20  1  0
 20 21  1  0
 21 22  2  0
 21 23  1  0
 23 24  2  0
 24 25  1  0
 25 26  2  0
 26 27  1  0
 27 28  1  0
 28 29  1  0
 28 30  1  0
 28 31  1  0
 27 32  2  0
 15 33  1  0
 11 34  1  0
 34 35  1  0
  6 36  1  0
 36 37  2  0
 37  3  1  0
 35  7  1  0
 33 12  1  0
 32 23  1  0
  1 38  1  0
  1 39  1  0
  1 40  1  0
  4 41  1  0
  5 42  1  0
  8 43  1  0
  9 44  1  0
  9 45  1  0
 10 46  1  0
 10 47  1  0
 11 48  1  6
 13 49  1  0
 13 50  1  0
 14 51  1  0
 14 52  1  0
 15 53  1  1
 16 54  1  0
 19 55  1  0
 19 56  1  0
 20 57  1  0
 24 58  1  0
 25 59  1  0
 26 60  1  0
 32 61  1  0
 33 62  1  0
 33 63  1  0
 34 64  1  0
 34 65  1  0
 35 66  1  0
 35 67  1  0
 36 68  1  0
M  END
$$$$
