@<TRIPOS>MOLECULE
*****
 42 45 0 0 0
SMALL
GASTEIGER

@<TRIPOS>ATOM
      1 O5*        -5.0984   -0.8966    2.2439 O.3     1  UNL1       -0.3924
      2 C5*        -3.7841   -0.5060    1.9726 C.3     1  UNL1        0.0730
      3 C4*        -3.7764    0.9474    1.4944 C.3     1  UNL1        0.1126
      4 O4*        -2.5085    1.3753    1.2210 O.3     1  UNL1       -0.3457
      5 C1*        -2.3052    1.4095   -0.1529 C.3     1  UNL1        0.1667
      6 N          -0.9812    1.0408   -0.5355 N.ar    1  UNL1       -0.2855
      7 C          -0.0982    1.7942   -1.2139 C.ar    1  UNL1        0.1004
      8 N           1.0481    1.1233   -1.3844 N.ar    1  UNL1       -0.2305
      9 C           0.9403   -0.0943   -0.8179 C.ar    1  UNL1        0.1478
     10 C           1.7855   -1.1746   -0.6905 C.ar    1  UNL1        0.1539
     11 N           3.0859   -1.1174   -1.2356 N.pl3   1  UNL1       -0.2976
     12 C           4.2706   -0.8182   -0.5227 C.ar    1  UNL1        0.0324
     13 C           4.5241    0.4062    0.0427 C.ar    1  UNL1       -0.0405
     14 C           5.7208    0.5941    0.7452 C.ar    1  UNL1       -0.0600
     15 C           6.6580   -0.3992    0.8955 C.ar    1  UNL1       -0.0616
     16 C           6.3810   -1.6366    0.3132 C.ar    1  UNL1       -0.0600
     17 C           5.2041   -1.8214   -0.3780 C.ar    1  UNL1       -0.0405
     18 N           1.3437   -2.2864   -0.0346 N.ar    1  UNL1       -0.2183
     19 C           0.0961   -2.3037    0.4734 C.ar    1  UNL1        0.1205
     20 N          -0.7203   -1.2502    0.3465 N.ar    1  UNL1       -0.2159
     21 C          -0.3492   -0.1189   -0.2901 C.ar    1  UNL1        0.1674
     22 C2*        -3.4029    0.5787   -0.7727 C.3     1  UNL1        0.1285
     23 O2*        -3.7713    1.0230   -2.0359 O.3     1  UNL1       -0.3847
     24 C3*        -4.5485    0.9588    0.1807 C.3     1  UNL1        0.1135
     25 O3*        -4.8729    2.2713   -0.0942 O.3     1  UNL1       -0.3864
     26 H5*        -5.1718   -1.1087    3.2148 H       1  UNL1        0.2095
     27 H5*1       -3.1427   -0.6305    2.8654 H       1  UNL1        0.0584
     28 H5*2       -3.3992   -1.1974    1.1831 H       1  UNL1        0.0584
     29 H4*        -4.3126    1.5208    2.2879 H       1  UNL1        0.0647
     30 H1*        -2.5112    2.4679   -0.4751 H       1  UNL1        0.0866
     31 H          -0.3311    2.8186   -1.5607 H       1  UNL1        0.1030
     32 H           3.2121   -1.3080   -2.2716 H       1  UNL1        0.1536
     33 H           3.8624    1.2433   -0.0164 H       1  UNL1        0.0636
     34 H           5.9349    1.5528    1.1914 H       1  UNL1        0.0618
     35 H           7.5789   -0.2419    1.4384 H       1  UNL1        0.0618
     36 H           7.1124   -2.4270    0.4278 H       1  UNL1        0.0618
     37 H           5.0529   -2.8107   -0.8019 H       1  UNL1        0.0636
     38 H          -0.2190   -3.2021    0.9892 H       1  UNL1        0.1048
     39 H2*        -3.1854   -0.4942   -0.7148 H       1  UNL1        0.0665
     40 H2*        -4.3041    1.8437   -1.9030 H       1  UNL1        0.2101
     41 H3*        -5.3731    0.2535    0.1552 H       1  UNL1        0.0647
     42 H3*        -5.6444    2.6211    0.3976 H       1  UNL1        0.2100
@<TRIPOS>BOND
     1     1     2    1
     2     2     3    1
     3     3     4    1
     4     4     5    1
     5     5     6    1
     6     6     7   ar
     7     7     8   ar
     8     8     9   ar
     9     9    10   ar
    10    10    11    1
    11    11    12    1
    12    12    13   ar
    13    13    14   ar
    14    14    15   ar
    15    15    16   ar
    16    16    17   ar
    17    10    18   ar
    18    18    19   ar
    19    19    20   ar
    20    20    21   ar
    21     5    22    1
    22    22    23    1
    23    22    24    1
    24    24    25    1
    25    24     3    1
    26    21     6   ar
    27    21     9   ar
    28    17    12   ar
    29     1    26    1
    30     2    27    1
    31     2    28    1
    32     3    29    1
    33     5    30    1
    34     7    31    1
    35    11    32    1
    36    13    33    1
    37    14    34    1
    38    15    35    1
    39    16    36    1
    40    17    37    1
    41    19    38    1
    42    22    39    1
    43    23    40    1
    44    24    41    1
    45    25    42    1
