
     RDKit          3D

 42 45  0  0  0  0  0  0  0  0999 V2000
   -5.0984   -0.8966    2.2439 O   0  0  0  0  0  0  0  0  0  0  0  0
   -3.7841   -0.5060    1.9726 C   0  0  0  0  0  0  0  0  0  0  0  0
   -3.7764    0.9474    1.4944 C   0  0  1  0  0  0  0  0  0  0  0  0
   -2.5085    1.3753    1.2210 O   0  0  0  0  0  0  0  0  0  0  0  0
   -2.3052    1.4095   -0.1529 C   0  0  1  0  0  0  0  0  0  0  0  0
   -0.9812    1.0408   -0.5355 N   0  0  0  0  0  0  0  0  0  0  0  0
   -0.0982    1.7942   -1.2139 C   0  0  0  0  0  0  0  0  0  0  0  0
    1.0481    1.1233   -1.3844 N   0  0  0  0  0  0  0  0  0  0  0  0
    0.9403   -0.0943   -0.8179 C   0  0  0  0  0  0  0  0  0  0  0  0
    1.7855   -1.1746   -0.6905 C   0  0  0  0  0  0  0  0  0  0  0  0
    3.0859   -1.1174   -1.2356 N   0  0  0  0  0  0  0  0  0  0  0  0
    4.2706   -0.8182   -0.5227 C   0  0  0  0  0  0  0  0  0  0  0  0
    4.5241    0.4062    0.0427 C   0  0  0  0  0  0  0  0  0  0  0  0
    5.7208    0.5941    0.7452 C   0  0  0  0  0  0  0  0  0  0  0  0
    6.6580   -0.3992    0.8955 C   0  0  0  0  0  0  0  0  0  0  0  0
    6.3810   -1.6366    0.3132 C   0  0  0  0  0  0  0  0  0  0  0  0
    5.2041   -1.8214   -0.3780 C   0  0  0  0  0  0  0  0  0  0  0  0
    1.3437   -2.2864   -0.0346 N   0  0  0  0  0  0  0  0  0  0  0  0
    0.0961   -2.3037    0.4734 C   0  0  0  0  0  0  0  0  0  0  0  0
   -0.7203   -1.2502    0.3465 N   0  0  0  0  0  0  0  0  0  0  0  0
   -0.3492   -0.1189   -0.2901 C   0  0  0  0  0  0  0  0  0  0  0  0
   -3.4029    0.5787   -0.7727 C   0  0  2  0  0  0  0  0  0  0  0  0
   -3.7713    1.0230   -2.0359 O   0  0  0  0  0  0  0  0  0  0  0  0
   -4.5485    0.9588    0.1807 C   0  0  2  0  0  0  0  0  0  0  0  0
   -4.8729    2.2713   -0.0942 O   0  0  0  0  0  0  0  0  0  0  0  0
   -5.1718   -1.1087    3.2148 H   0  0  0  0  0  0  0  0  0  0  0  0
   -3.1427   -0.6305    2.8654 H   0  0  0  0  0  0  0  0  0  0  0  0
   -3.3992   -1.1974    1.1831 H   0  0  0  0  0  0  0  0  0  0  0  0
   -4.3126    1.5208    2.2879 H   0  0  0  0  0  0  0  0  0  0  0  0
   -2.5112    2.4679   -0.4751 H   0  0  0  0  0  0  0  0  0  0  0  0
   -0.3311    2.8186   -1.5607 H   0  0  0  0  0  0  0  0  0  0  0  0
    3.2121   -1.3080   -2.2716 H   0  0  0  0  0  0  0  0  0  0  0  0
    3.8624    1.2433   -0.0164 H   0  0  0  0  0  0  0  0  0  0  0  0
    5.9349    1.5528    1.1914 H   0  0  0  0  0  0  0  0  0  0  0  0
    7.5789   -0.2419    1.4384 H   0  0  0  0  0  0  0  0  0  0  0  0
    7.1124   -2.4270    0.4278 H   0  0  0  0  0  0  0  0  0  0  0  0
    5.0529   -2.8107   -0.8019 H   0  0  0  0  0  0  0  0  0  0  0  0
   -0.2190   -3.2021    0.9892 H   0  0  0  0  0  0  0  0  0  0  0  0
   -3.1854   -0.4942   -0.7148 H   0  0  0  0  0  0  0  0  0  0  0  0
   -4.3041    1.8437   -1.9030 H   0  0  0  0  0  0  0  0  0  0  0  0
   -5.3731    0.2535    0.1552 H   0  0  0  0  0  0  0  0  0  0  0  0
   -5.6444    2.6211    0.3976 H   0  0  0  0  0  0  0  0  0  0  0  0
  1  2  1  0
  2  3  1  0
  3  4  1  0
  4  5  1  0
  5  6  1  0
  6  7  1  0
  7  8  2  0
  8  9  1  0
  9 10  2  0
 10 11  1  0
 11 12  1  0
 12 13  2  0
 13 14  1  0
 14 15  2  0
 15 16  1  0
 16 17  2  0
 10 18  1  0
 18 19  2  0
 19 20  1  0
 20 21  2  0
  5 22  1  0
 22 23  1  0
 22 24  1  0
 24 25  1  0
 24  3  1  0
 21  6  1  0
 21  9  1  0
 17 12  1  0
  1 26  1  0
  2 27  1  0
  2 28  1  0
  3 29  1  1
  5 30  1  6
  7 31  1  0
 11 32  1  0
 13 33  1  0
 14 34  1  0
 15 35  1  0
 16 36  1  0
 17 37  1  0
 19 38  1  0
 22 39  1  6
 23 40  1  0
 24 41  1  1
 25 42  1  0
M  END
$$$$
