@<TRIPOS>MOLECULE
*****
 55 57 0 0 0
SMALL
GASTEIGER

@<TRIPOS>ATOM
      1 C           6.3600    2.2357    1.2697 C.3     1  UNL1       -0.0307
      2 C           6.2767    1.2197    0.1551 C.3     1  UNL1        0.0868
      3 O           5.0466    0.5639    0.1321 O.3     1  UNL1       -0.4922
      4 C           3.8738    1.2311   -0.0815 C.ar    1  UNL1        0.1211
      5 C           3.8319    2.5893   -0.3049 C.ar    1  UNL1       -0.0199
      6 C           2.6277    3.2286   -0.5146 C.ar    1  UNL1       -0.0577
      7 C           1.4842    2.4784   -0.4950 C.ar    1  UNL1       -0.0524
      8 C           1.4935    1.0876   -0.2702 C.ar    1  UNL1        0.0035
      9 C           0.2305    0.3736   -0.2328 C.ar    1  UNL1        0.0697
     10 C          -0.8362    0.7337    0.5721 C.ar    1  UNL1       -0.0108
     11 C          -1.8968   -0.1121    0.3289 C.ar    1  UNL1        0.0892
     12 C          -3.2520   -0.0925    0.9722 C.3     1  UNL1        0.0928
     13 O          -4.0525    0.7209    0.2103 O.3     1  UNL1       -0.3566
     14 C          -5.3419    0.8586    0.6502 C.3     1  UNL1        0.1602
     15 C          -5.4266    1.4494    2.0508 C.3     1  UNL1       -0.0256
     16 C          -6.1137   -0.4445    0.6323 C.3     1  UNL1       -0.0256
     17 C          -6.0557    1.8027   -0.2431 C.2     1  UNL1        0.3365
     18 O          -5.4439    2.3176   -1.2094 O.2     1  UNL1       -0.2478
     19 O          -7.3889    2.1453   -0.0532 O.3     1  UNL1       -0.4786
     20 N          -1.4534   -0.9556   -0.6074 N.ar    1  UNL1       -0.1730
     21 N          -0.1723   -0.6719   -0.9537 N.ar    1  UNL1       -0.2590
     22 C           0.4715   -1.4744   -1.9608 C.3     1  UNL1        0.0685
     23 C           1.1227   -2.6956   -1.4679 C.ar    1  UNL1       -0.0078
     24 C           2.4810   -2.8818   -1.3985 C.ar    1  UNL1       -0.0554
     25 C           3.0992   -4.0230   -0.9716 C.ar    1  UNL1       -0.0614
     26 C           2.3284   -5.0811   -0.5759 C.ar    1  UNL1       -0.0604
     27 C           0.9600   -4.9600   -0.6213 C.ar    1  UNL1       -0.0431
     28 C           0.3579   -3.7938   -1.0575 C.ar    1  UNL1        0.0459
     29 CL         -1.3910   -3.7734   -1.0743 Cl      1  UNL1       -0.0832
     30 C           2.6970    0.4707   -0.0630 C.ar    1  UNL1       -0.0108
     31 H           6.7362    3.2309    0.9245 H       1  UNL1        0.0262
     32 H           5.3902    2.3820    1.7750 H       1  UNL1        0.0262
     33 H           7.0639    1.8842    2.0727 H       1  UNL1        0.0262
     34 H           6.5131    1.7088   -0.8348 H       1  UNL1        0.0694
     35 H           7.0561    0.4508    0.3381 H       1  UNL1        0.0694
     36 H           4.7444    3.2061   -0.3355 H       1  UNL1        0.0654
     37 H           2.6425    4.2982   -0.6856 H       1  UNL1        0.0619
     38 H           0.5212    2.9712   -0.6598 H       1  UNL1        0.0624
     39 H          -0.8820    1.5386    1.2908 H       1  UNL1        0.0658
     40 H          -3.0885    0.3650    1.9765 H       1  UNL1        0.0626
     41 H          -3.5935   -1.1307    1.0388 H       1  UNL1        0.0626
     42 H          -6.5198    1.5011    2.3115 H       1  UNL1        0.0263
     43 H          -4.8809    0.8757    2.8005 H       1  UNL1        0.0263
     44 H          -5.0699    2.4996    2.0750 H       1  UNL1        0.0263
     45 H          -6.0181   -0.8963    1.6480 H       1  UNL1        0.0263
     46 H          -7.1774   -0.1986    0.4787 H       1  UNL1        0.0263
     47 H          -5.7527   -1.1003   -0.1598 H       1  UNL1        0.0263
     48 H          -7.7238    2.9906   -0.4895 H       1  UNL1        0.2951
     49 H          -0.3228   -1.7816   -2.7076 H       1  UNL1        0.0559
     50 H           1.1671   -0.8604   -2.5922 H       1  UNL1        0.0559
     51 H           3.1163   -2.0455   -1.7158 H       1  UNL1        0.0621
     52 H           4.1813   -4.0545   -0.9598 H       1  UNL1        0.0618
     53 H           2.8358   -5.9773   -0.2406 H       1  UNL1        0.0618
     54 H           0.3745   -5.8120   -0.3027 H       1  UNL1        0.0632
     55 H           2.7690   -0.5924    0.1364 H       1  UNL1        0.0661
@<TRIPOS>BOND
     1     1     2    1
     2     2     3    1
     3     3     4    1
     4     4     5   ar
     5     5     6   ar
     6     6     7   ar
     7     7     8   ar
     8     8     9    1
     9     9    10   ar
    10    10    11   ar
    11    11    12    1
    12    12    13    1
    13    13    14    1
    14    14    15    1
    15    14    16    1
    16    14    17    1
    17    17    18    2
    18    17    19    1
    19    11    20   ar
    20    20    21   ar
    21    21    22    1
    22    22    23    1
    23    23    24   ar
    24    24    25   ar
    25    25    26   ar
    26    26    27   ar
    27    27    28   ar
    28    28    29    1
    29     8    30   ar
    30    30     4   ar
    31    21     9   ar
    32    28    23   ar
    33     1    31    1
    34     1    32    1
    35     1    33    1
    36     2    34    1
    37     2    35    1
    38     5    36    1
    39     6    37    1
    40     7    38    1
    41    10    39    1
    42    12    40    1
    43    12    41    1
    44    15    42    1
    45    15    43    1
    46    15    44    1
    47    16    45    1
    48    16    46    1
    49    16    47    1
    50    19    48    1
    51    22    49    1
    52    22    50    1
    53    24    51    1
    54    25    52    1
    55    26    53    1
    56    27    54    1
    57    30    55    1
