
     RDKit          3D

 55 57  0  0  0  0  0  0  0  0999 V2000
    6.3600    2.2357    1.2697 C   0  0  0  0  0  0  0  0  0  0  0  0
    6.2767    1.2197    0.1551 C   0  0  0  0  0  0  0  0  0  0  0  0
    5.0466    0.5639    0.1321 O   0  0  0  0  0  0  0  0  0  0  0  0
    3.8738    1.2311   -0.0815 C   0  0  0  0  0  0  0  0  0  0  0  0
    3.8319    2.5893   -0.3049 C   0  0  0  0  0  0  0  0  0  0  0  0
    2.6277    3.2286   -0.5146 C   0  0  0  0  0  0  0  0  0  0  0  0
    1.4842    2.4784   -0.4950 C   0  0  0  0  0  0  0  0  0  0  0  0
    1.4935    1.0876   -0.2702 C   0  0  0  0  0  0  0  0  0  0  0  0
    0.2305    0.3736   -0.2328 C   0  0  0  0  0  0  0  0  0  0  0  0
   -0.8362    0.7337    0.5721 C   0  0  0  0  0  0  0  0  0  0  0  0
   -1.8968   -0.1121    0.3289 C   0  0  0  0  0  0  0  0  0  0  0  0
   -3.2520   -0.0925    0.9722 C   0  0  0  0  0  0  0  0  0  0  0  0
   -4.0525    0.7209    0.2103 O   0  0  0  0  0  0  0  0  0  0  0  0
   -5.3419    0.8586    0.6502 C   0  0  0  0  0  0  0  0  0  0  0  0
   -5.4266    1.4494    2.0508 C   0  0  0  0  0  0  0  0  0  0  0  0
   -6.1137   -0.4445    0.6323 C   0  0  0  0  0  0  0  0  0  0  0  0
   -6.0557    1.8027   -0.2431 C   0  0  0  0  0  0  0  0  0  0  0  0
   -5.4439    2.3176   -1.2094 O   0  0  0  0  0  0  0  0  0  0  0  0
   -7.3889    2.1453   -0.0532 O   0  0  0  0  0  0  0  0  0  0  0  0
   -1.4534   -0.9556   -0.6074 N   0  0  0  0  0  0  0  0  0  0  0  0
   -0.1723   -0.6719   -0.9537 N   0  0  0  0  0  0  0  0  0  0  0  0
    0.4715   -1.4744   -1.9608 C   0  0  0  0  0  0  0  0  0  0  0  0
    1.1227   -2.6956   -1.4679 C   0  0  0  0  0  0  0  0  0  0  0  0
    2.4810   -2.8818   -1.3985 C   0  0  0  0  0  0  0  0  0  0  0  0
    3.0992   -4.0230   -0.9716 C   0  0  0  0  0  0  0  0  0  0  0  0
    2.3284   -5.0811   -0.5759 C   0  0  0  0  0  0  0  0  0  0  0  0
    0.9600   -4.9600   -0.6213 C   0  0  0  0  0  0  0  0  0  0  0  0
    0.3579   -3.7938   -1.0575 C   0  0  0  0  0  0  0  0  0  0  0  0
   -1.3910   -3.7734   -1.0743 Cl  0  0  0  0  0  0  0  0  0  0  0  0
    2.6970    0.4707   -0.0630 C   0  0  0  0  0  0  0  0  0  0  0  0
    6.7362    3.2309    0.9245 H   0  0  0  0  0  0  0  0  0  0  0  0
    5.3902    2.3820    1.7750 H   0  0  0  0  0  0  0  0  0  0  0  0
    7.0639    1.8842    2.0727 H   0  0  0  0  0  0  0  0  0  0  0  0
    6.5131    1.7088   -0.8348 H   0  0  0  0  0  0  0  0  0  0  0  0
    7.0561    0.4508    0.3381 H   0  0  0  0  0  0  0  0  0  0  0  0
    4.7444    3.2061   -0.3355 H   0  0  0  0  0  0  0  0  0  0  0  0
    2.6425    4.2982   -0.6856 H   0  0  0  0  0  0  0  0  0  0  0  0
    0.5212    2.9712   -0.6598 H   0  0  0  0  0  0  0  0  0  0  0  0
   -0.8820    1.5386    1.2908 H   0  0  0  0  0  0  0  0  0  0  0  0
   -3.0885    0.3650    1.9765 H   0  0  0  0  0  0  0  0  0  0  0  0
   -3.5935   -1.1307    1.0388 H   0  0  0  0  0  0  0  0  0  0  0  0
   -6.5198    1.5011    2.3115 H   0  0  0  0  0  0  0  0  0  0  0  0
   -4.8809    0.8757    2.8005 H   0  0  0  0  0  0  0  0  0  0  0  0
   -5.0699    2.4996    2.0750 H   0  0  0  0  0  0  0  0  0  0  0  0
   -6.0181   -0.8963    1.6480 H   0  0  0  0  0  0  0  0  0  0  0  0
   -7.1774   -0.1986    0.4787 H   0  0  0  0  0  0  0  0  0  0  0  0
   -5.7527   -1.1003   -0.1598 H   0  0  0  0  0  0  0  0  0  0  0  0
   -7.7238    2.9906   -0.4895 H   0  0  0  0  0  0  0  0  0  0  0  0
   -0.3228   -1.7816   -2.7076 H   0  0  0  0  0  0  0  0  0  0  0  0
    1.1671   -0.8604   -2.5922 H   0  0  0  0  0  0  0  0  0  0  0  0
    3.1163   -2.0455   -1.7158 H   0  0  0  0  0  0  0  0  0  0  0  0
    4.1813   -4.0545   -0.9598 H   0  0  0  0  0  0  0  0  0  0  0  0
    2.8358   -5.9773   -0.2406 H   0  0  0  0  0  0  0  0  0  0  0  0
    0.3745   -5.8120   -0.3027 H   0  0  0  0  0  0  0  0  0  0  0  0
    2.7690   -0.5924    0.1364 H   0  0  0  0  0  0  0  0  0  0  0  0
  1  2  1  0
  2  3  1  0
  3  4  1  0
  4  5  2  0
  5  6  1  0
  6  7  2  0
  7  8  1  0
  8  9  1  0
  9 10  2  0
 10 11  1  0
 11 12  1  0
 12 13  1  0
 13 14  1  0
 14 15  1  0
 14 16  1  0
 14 17  1  0
 17 18  2  0
 17 19  1  0
 11 20  2  0
 20 21  1  0
 21 22  1  0
 22 23  1  0
 23 24  2  0
 24 25  1  0
 25 26  2  0
 26 27  1  0
 27 28  2  0
 28 29  1  0
  8 30  2  0
 30  4  1  0
 21  9  1  0
 28 23  1  0
  1 31  1  0
  1 32  1  0
  1 33  1  0
  2 34  1  0
  2 35  1  0
  5 36  1  0
  6 37  1  0
  7 38  1  0
 10 39  1  0
 12 40  1  0
 12 41  1  0
 15 42  1  0
 15 43  1  0
 15 44  1  0
 16 45  1  0
 16 46  1  0
 16 47  1  0
 19 48  1  0
 22 49  1  0
 22 50  1  0
 24 51  1  0
 25 52  1  0
 26 53  1  0
 27 54  1  0
 30 55  1  0
M  END
$$$$
