
     RDKit          3D

 44 45  0  0  0  0  0  0  0  0999 V2000
    6.5376   -1.0323    0.1061 C   0  0  0  0  0  0  0  0  0  0  0  0
    5.8738    0.2045   -0.4797 C   0  0  0  0  0  0  0  0  0  0  0  0
    6.8116    1.3728   -0.5285 C   0  0  0  0  0  0  0  0  0  0  0  0
    4.7027    0.5829    0.2854 N   0  0  0  0  0  0  0  0  0  0  0  0
    3.4000    0.5741   -0.2890 C   0  0  0  0  0  0  0  0  0  0  0  0
    3.0799    0.2615   -1.4602 O   0  0  0  0  0  0  0  0  0  0  0  0
    2.3415    0.9617    0.5539 N   0  0  0  0  0  0  0  0  0  0  0  0
    0.6770    1.0368    0.1062 S   0  0  0  0  0  0  0  0  0  0  0  0
   -0.0341    2.1417    0.8585 O   0  0  0  0  0  0  0  0  0  0  0  0
    0.5676    1.3512   -1.3602 O   0  0  0  0  0  0  0  0  0  0  0  0
   -0.0522   -0.5179    0.4393 C   0  0  0  0  0  0  0  0  0  0  0  0
   -1.3832   -0.7360    0.1740 C   0  0  0  0  0  0  0  0  0  0  0  0
   -2.1423    0.3302   -0.3577 N   0  0  0  0  0  0  0  0  0  0  0  0
   -3.5075    0.4985   -0.6926 C   0  0  0  0  0  0  0  0  0  0  0  0
   -3.9213    1.2612   -1.7928 C   0  0  0  0  0  0  0  0  0  0  0  0
   -5.2303    1.4650   -2.1447 C   0  0  0  0  0  0  0  0  0  0  0  0
   -6.2091    0.8845   -1.3698 C   0  0  0  0  0  0  0  0  0  0  0  0
   -5.8907    0.1183   -0.2684 C   0  0  0  0  0  0  0  0  0  0  0  0
   -6.9834   -0.4874    0.5371 C   0  0  0  0  0  0  0  0  0  0  0  0
   -4.5675   -0.0337    0.0113 C   0  0  0  0  0  0  0  0  0  0  0  0
   -1.8385   -1.9982    0.4787 C   0  0  0  0  0  0  0  0  0  0  0  0
   -1.0765   -3.0001    1.0066 C   0  0  0  0  0  0  0  0  0  0  0  0
    0.2216   -2.7534    1.2543 N   0  0  0  0  0  0  0  0  0  0  0  0
    0.6998   -1.5432    0.9722 C   0  0  0  0  0  0  0  0  0  0  0  0
    6.1719   -1.9471   -0.4361 H   0  0  0  0  0  0  0  0  0  0  0  0
    6.2044   -1.1215    1.1610 H   0  0  0  0  0  0  0  0  0  0  0  0
    7.6403   -0.9683    0.1011 H   0  0  0  0  0  0  0  0  0  0  0  0
    5.5432   -0.0633   -1.5065 H   0  0  0  0  0  0  0  0  0  0  0  0
    6.2183    2.2995   -0.4649 H   0  0  0  0  0  0  0  0  0  0  0  0
    7.3932    1.4302   -1.4783 H   0  0  0  0  0  0  0  0  0  0  0  0
    7.4782    1.3693    0.3697 H   0  0  0  0  0  0  0  0  0  0  0  0
    4.8574    0.8577    1.2621 H   0  0  0  0  0  0  0  0  0  0  0  0
    2.5187    1.2437    1.5638 H   0  0  0  0  0  0  0  0  0  0  0  0
   -1.6430    1.2268   -0.5711 H   0  0  0  0  0  0  0  0  0  0  0  0
   -3.1329    1.7222   -2.4075 H   0  0  0  0  0  0  0  0  0  0  0  0
   -5.4429    2.0717   -3.0144 H   0  0  0  0  0  0  0  0  0  0  0  0
   -7.2342    1.0568   -1.6640 H   0  0  0  0  0  0  0  0  0  0  0  0
   -7.2263    0.2373    1.3550 H   0  0  0  0  0  0  0  0  0  0  0  0
   -7.8602   -0.7546   -0.0721 H   0  0  0  0  0  0  0  0  0  0  0  0
   -6.6139   -1.3971    1.0726 H   0  0  0  0  0  0  0  0  0  0  0  0
   -4.3902   -0.6316    0.8938 H   0  0  0  0  0  0  0  0  0  0  0  0
   -2.8514   -2.2480    0.2920 H   0  0  0  0  0  0  0  0  0  0  0  0
   -1.4530   -3.9665    1.2332 H   0  0  0  0  0  0  0  0  0  0  0  0
    1.7455   -1.3598    1.1766 H   0  0  0  0  0  0  0  0  0  0  0  0
  1  2  1  0
  2  3  1  0
  2  4  1  0
  4  5  1  0
  5  6  2  0
  5  7  1  0
  7  8  1  0
  8  9  2  0
  8 10  2  0
  8 11  1  0
 11 12  2  0
 12 13  1  0
 13 14  1  0
 14 15  2  0
 15 16  1  0
 16 17  2  0
 17 18  1  0
 18 19  1  0
 18 20  2  0
 12 21  1  0
 21 22  2  0
 22 23  1  0
 23 24  2  0
 24 11  1  0
 20 14  1  0
  1 25  1  0
  1 26  1  0
  1 27  1  0
  2 28  1  0
  3 29  1  0
  3 30  1  0
  3 31  1  0
  4 32  1  0
  7 33  1  0
 13 34  1  0
 15 35  1  0
 16 36  1  0
 17 37  1  0
 19 38  1  0
 19 39  1  0
 19 40  1  0
 20 41  1  0
 21 42  1  0
 22 43  1  0
 24 44  1  0
M  END
$$$$
