@<TRIPOS>MOLECULE
*****
 44 45 0 0 0
SMALL
GASTEIGER

@<TRIPOS>ATOM
      1 C           6.5376   -1.0323    0.1061 C.3     1  UNL1       -0.0468
      2 C           5.8738    0.2045   -0.4797 C.3     1  UNL1        0.0190
      3 C           6.8116    1.3728   -0.5285 C.3     1  UNL1       -0.0468
      4 N           4.7027    0.5829    0.2854 N.am    1  UNL1       -0.2959
      5 C           3.4000    0.5741   -0.2890 C.2     1  UNL1        0.3191
      6 O           3.0799    0.2615   -1.4602 O.2     1  UNL1       -0.2512
      7 N           2.3415    0.9617    0.5539 N.am    1  UNL1       -0.1692
      8 S           0.6770    1.0368    0.1062 S.O2    1  UNL1        0.0788
      9 O          -0.0341    2.1417    0.8585 O.2     1  UNL1       -0.1498
     10 O           0.5676    1.3512   -1.3602 O.2     1  UNL1       -0.1498
     11 C          -0.0522   -0.5179    0.4393 C.ar    1  UNL1        0.1476
     12 C          -1.3832   -0.7360    0.1740 C.ar    1  UNL1        0.0612
     13 N          -2.1423    0.3302   -0.3577 N.pl3   1  UNL1       -0.3129
     14 C          -3.5075    0.4985   -0.6926 C.ar    1  UNL1        0.0316
     15 C          -3.9213    1.2612   -1.7928 C.ar    1  UNL1       -0.0405
     16 C          -5.2303    1.4650   -2.1447 C.ar    1  UNL1       -0.0598
     17 C          -6.2091    0.8845   -1.3698 C.ar    1  UNL1       -0.0587
     18 C          -5.8907    0.1183   -0.2684 C.ar    1  UNL1       -0.0487
     19 C          -6.9834   -0.4874    0.5371 C.3     1  UNL1       -0.0397
     20 C          -4.5675   -0.0337    0.0113 C.ar    1  UNL1       -0.0376
     21 C          -1.8385   -1.9982    0.4787 C.ar    1  UNL1       -0.0205
     22 C          -1.0765   -3.0001    1.0066 C.ar    1  UNL1        0.0294
     23 N           0.2216   -2.7534    1.2543 N.ar    1  UNL1       -0.2612
     24 C           0.6998   -1.5432    0.9722 C.ar    1  UNL1        0.0560
     25 H           6.1719   -1.9471   -0.4361 H       1  UNL1        0.0247
     26 H           6.2044   -1.1215    1.1610 H       1  UNL1        0.0247
     27 H           7.6403   -0.9683    0.1011 H       1  UNL1        0.0247
     28 H           5.5432   -0.0633   -1.5065 H       1  UNL1        0.0493
     29 H           6.2183    2.2995   -0.4649 H       1  UNL1        0.0247
     30 H           7.3932    1.4302   -1.4783 H       1  UNL1        0.0247
     31 H           7.4782    1.3693    0.3697 H       1  UNL1        0.0247
     32 H           4.8574    0.8577    1.2621 H       1  UNL1        0.1505
     33 H           2.5187    1.2437    1.5638 H       1  UNL1        0.1781
     34 H          -1.6430    1.2268   -0.5711 H       1  UNL1        0.1522
     35 H          -3.1329    1.7222   -2.4075 H       1  UNL1        0.0636
     36 H          -5.4429    2.0717   -3.0144 H       1  UNL1        0.0618
     37 H          -7.2342    1.0568   -1.6640 H       1  UNL1        0.0620
     38 H          -7.2263    0.2373    1.3550 H       1  UNL1        0.0278
     39 H          -7.8602   -0.7546   -0.0721 H       1  UNL1        0.0278
     40 H          -6.6139   -1.3971    1.0726 H       1  UNL1        0.0278
     41 H          -4.3902   -0.6316    0.8938 H       1  UNL1        0.0639
     42 H          -2.8514   -2.2480    0.2920 H       1  UNL1        0.0652
     43 H          -1.4530   -3.9665    1.2332 H       1  UNL1        0.0830
     44 H           1.7455   -1.3598    1.1766 H       1  UNL1        0.0850
@<TRIPOS>BOND
     1     1     2    1
     2     2     3    1
     3     2     4    1
     4     4     5   am
     5     5     6    2
     6     5     7   am
     7     7     8    1
     8     8     9    2
     9     8    10    2
    10     8    11    1
    11    11    12   ar
    12    12    13    1
    13    13    14    1
    14    14    15   ar
    15    15    16   ar
    16    16    17   ar
    17    17    18   ar
    18    18    19    1
    19    18    20   ar
    20    12    21   ar
    21    21    22   ar
    22    22    23   ar
    23    23    24   ar
    24    24    11   ar
    25    20    14   ar
    26     1    25    1
    27     1    26    1
    28     1    27    1
    29     2    28    1
    30     3    29    1
    31     3    30    1
    32     3    31    1
    33     4    32    1
    34     7    33    1
    35    13    34    1
    36    15    35    1
    37    16    36    1
    38    17    37    1
    39    19    38    1
    40    19    39    1
    41    19    40    1
    42    20    41    1
    43    21    42    1
    44    22    43    1
    45    24    44    1
