@<TRIPOS>MOLECULE
*****
 24 24 0 0 0
SMALL
GASTEIGER

@<TRIPOS>ATOM
      1 C           4.2642    0.1105   -0.2060 C.3     1  UNL1        0.0820
      2 O           2.9147   -0.3000   -0.1514 O.3     1  UNL1       -0.4646
      3 C           1.8468    0.5554    0.0214 C.2     1  UNL1        0.3358
      4 O           2.2930    1.7104    0.1153 O.2     1  UNL1       -0.2453
      5 C           0.4606    0.0436    0.0676 C.2     1  UNL1        0.0466
      6 C           0.2764   -1.2756   -0.0637 C.2     1  UNL1       -0.0716
      7 C          -1.1655   -1.6927   -0.0030 C.3     1  UNL1       -0.0211
      8 C          -1.8831   -0.7210   -0.9355 C.3     1  UNL1        0.0024
      9 N          -1.8760    0.6190   -0.4154 N.3     1  UNL1       -0.3007
     10 C          -3.0823    0.9636    0.2925 C.3     1  UNL1       -0.0124
     11 C          -0.6609    0.9757    0.2528 C.3     1  UNL1        0.0302
     12 H           4.6452   -0.3015   -1.1860 H       1  UNL1        0.0661
     13 H           4.4067    1.2028   -0.2334 H       1  UNL1        0.0661
     14 H           4.8338   -0.3818    0.6302 H       1  UNL1        0.0661
     15 H           1.1338   -1.9497   -0.2010 H       1  UNL1        0.0578
     16 H          -1.4705   -1.5459    1.0369 H       1  UNL1        0.0320
     17 H          -1.3108   -2.6922   -0.4098 H       1  UNL1        0.0320
     18 H          -1.2973   -0.7004   -1.8778 H       1  UNL1        0.0429
     19 H          -2.9274   -1.0234   -1.1064 H       1  UNL1        0.0429
     20 H          -3.6040    0.0850    0.7142 H       1  UNL1        0.0391
     21 H          -2.8147    1.7295    1.0487 H       1  UNL1        0.0391
     22 H          -3.7495    1.4756   -0.4373 H       1  UNL1        0.0391
     23 H          -0.3458    1.9631   -0.1726 H       1  UNL1        0.0478
     24 H          -0.8875    1.1499    1.3454 H       1  UNL1        0.0478
@<TRIPOS>BOND
     1     1     2    1
     2     2     3    1
     3     3     4    2
     4     3     5    1
     5     5     6    2
     6     6     7    1
     7     7     8    1
     8     8     9    1
     9     9    10    1
    10     9    11    1
    11    11     5    1
    12     1    12    1
    13     1    13    1
    14     1    14    1
    15     6    15    1
    16     7    16    1
    17     7    17    1
    18     8    18    1
    19     8    19    1
    20    10    20    1
    21    10    21    1
    22    10    22    1
    23    11    23    1
    24    11    24    1
