
     RDKit          3D

 24 24  0  0  0  0  0  0  0  0999 V2000
    4.2642    0.1105   -0.2060 C   0  0  0  0  0  0  0  0  0  0  0  0
    2.9147   -0.3000   -0.1514 O   0  0  0  0  0  0  0  0  0  0  0  0
    1.8468    0.5554    0.0214 C   0  0  0  0  0  0  0  0  0  0  0  0
    2.2930    1.7104    0.1153 O   0  0  0  0  0  0  0  0  0  0  0  0
    0.4606    0.0436    0.0676 C   0  0  0  0  0  0  0  0  0  0  0  0
    0.2764   -1.2756   -0.0637 C   0  0  0  0  0  0  0  0  0  0  0  0
   -1.1655   -1.6927   -0.0030 C   0  0  0  0  0  0  0  0  0  0  0  0
   -1.8831   -0.7210   -0.9355 C   0  0  0  0  0  0  0  0  0  0  0  0
   -1.8760    0.6190   -0.4154 N   0  0  0  0  0  0  0  0  0  0  0  0
   -3.0823    0.9636    0.2925 C   0  0  0  0  0  0  0  0  0  0  0  0
   -0.6609    0.9757    0.2528 C   0  0  0  0  0  0  0  0  0  0  0  0
    4.6452   -0.3015   -1.1860 H   0  0  0  0  0  0  0  0  0  0  0  0
    4.4067    1.2028   -0.2334 H   0  0  0  0  0  0  0  0  0  0  0  0
    4.8338   -0.3818    0.6302 H   0  0  0  0  0  0  0  0  0  0  0  0
    1.1338   -1.9497   -0.2010 H   0  0  0  0  0  0  0  0  0  0  0  0
   -1.4705   -1.5459    1.0369 H   0  0  0  0  0  0  0  0  0  0  0  0
   -1.3108   -2.6922   -0.4098 H   0  0  0  0  0  0  0  0  0  0  0  0
   -1.2973   -0.7004   -1.8778 H   0  0  0  0  0  0  0  0  0  0  0  0
   -2.9274   -1.0234   -1.1064 H   0  0  0  0  0  0  0  0  0  0  0  0
   -3.6040    0.0850    0.7142 H   0  0  0  0  0  0  0  0  0  0  0  0
   -2.8147    1.7295    1.0487 H   0  0  0  0  0  0  0  0  0  0  0  0
   -3.7495    1.4756   -0.4373 H   0  0  0  0  0  0  0  0  0  0  0  0
   -0.3458    1.9631   -0.1726 H   0  0  0  0  0  0  0  0  0  0  0  0
   -0.8875    1.1499    1.3454 H   0  0  0  0  0  0  0  0  0  0  0  0
  1  2  1  0
  2  3  1  0
  3  4  2  0
  3  5  1  0
  5  6  2  0
  6  7  1  0
  7  8  1  0
  8  9  1  0
  9 10  1  0
  9 11  1  0
 11  5  1  0
  1 12  1  0
  1 13  1  0
  1 14  1  0
  6 15  1  0
  7 16  1  0
  7 17  1  0
  8 18  1  0
  8 19  1  0
 10 20  1  0
 10 21  1  0
 10 22  1  0
 11 23  1  0
 11 24  1  0
M  END
$$$$
