@<TRIPOS>MOLECULE
*****
 54 56 0 0 0
SMALL
GASTEIGER

@<TRIPOS>ATOM
      1 C           2.3956   -3.1555    1.5299 C.3     1  UNL1       -0.0211
      2 C           2.9105   -2.0203    0.7209 C.ar    1  UNL1        0.0582
      3 C           2.0550   -1.6128   -0.2873 C.ar    1  UNL1        0.0967
      4 S           3.0100   -0.2390   -1.0340 S.2     1  UNL1       -0.0623
      5 C           4.4378   -0.4685    0.1875 C.ar    1  UNL1        0.1092
      6 N           4.0678   -1.3758    0.8611 N.ar    1  UNL1       -0.2435
      7 C           5.6324    0.3623    0.1665 C.ar    1  UNL1        0.0072
      8 C           6.6044    0.0854    1.1255 C.ar    1  UNL1       -0.0515
      9 C           7.7197    0.8943    1.0775 C.ar    1  UNL1       -0.0495
     10 C           7.8539    1.9000    0.1458 C.ar    1  UNL1        0.0548
     11 C           6.8763    2.1525   -0.7921 C.ar    1  UNL1       -0.0495
     12 C           5.7178    1.3650   -0.7964 C.ar    1  UNL1       -0.0515
     13 C           9.1281    2.6708    0.2494 C.3     1  UNL1        0.4174
     14 F           9.1845    3.7454   -0.5840 F       1  UNL1       -0.1659
     15 F           9.2127    3.1160    1.5570 F       1  UNL1       -0.1659
     16 F          10.1771    1.7821    0.0896 F       1  UNL1       -0.1659
     17 C           0.7639   -1.8798   -0.9032 C.2     1  UNL1        0.2528
     18 O           0.4307   -1.1388   -1.8880 O.2     1  UNL1       -0.2696
     19 N          -0.1860   -2.8578   -0.5606 N.am    1  UNL1       -0.3068
     20 C          -1.4484   -3.0873   -1.1906 C.3     1  UNL1        0.0372
     21 C          -2.5112   -2.1403   -0.8377 C.ar    1  UNL1       -0.0301
     22 C          -2.8358   -0.9642   -1.4472 C.ar    1  UNL1       -0.0536
     23 C          -3.8517   -0.1429   -1.0386 C.ar    1  UNL1       -0.0196
     24 C          -4.6275   -0.4566    0.0350 C.ar    1  UNL1        0.1221
     25 O          -5.6794    0.2232    0.5973 O.3     1  UNL1       -0.4751
     26 C          -6.1972    1.4601    0.1494 C.3     1  UNL1        0.2003
     27 C          -5.1317    2.5372    0.2038 C.3     1  UNL1       -0.0145
     28 C          -6.7804    1.3775   -1.2432 C.3     1  UNL1       -0.0145
     29 C          -7.3024    1.8002    1.1167 C.2     1  UNL1        0.3485
     30 O          -8.1545    2.8758    1.1788 O.3     1  UNL1       -0.4779
     31 O          -7.5411    1.0008    2.0591 O.2     1  UNL1       -0.2465
     32 C          -4.3285   -1.6559    0.6900 C.ar    1  UNL1       -0.0196
     33 C          -3.2948   -2.4813    0.2662 C.ar    1  UNL1       -0.0536
     34 H           3.1085   -3.4281    2.3487 H       1  UNL1        0.0293
     35 H           1.4608   -2.8710    2.0964 H       1  UNL1        0.0293
     36 H           2.2764   -4.0909    0.9478 H       1  UNL1        0.0293
     37 H           6.4224   -0.7212    1.8203 H       1  UNL1        0.0624
     38 H           8.4809    0.6767    1.8295 H       1  UNL1        0.0623
     39 H           7.0279    2.9531   -1.5017 H       1  UNL1        0.0623
     40 H           4.9365    1.5377   -1.5164 H       1  UNL1        0.0624
     41 H           0.0959   -3.4584    0.2413 H       1  UNL1        0.1494
     42 H          -1.3676   -3.0776   -2.3188 H       1  UNL1        0.0512
     43 H          -1.7908   -4.1373   -0.9767 H       1  UNL1        0.0512
     44 H          -2.2369   -0.6918   -2.3032 H       1  UNL1        0.0622
     45 H          -4.1071    0.7876   -1.5211 H       1  UNL1        0.0654
     46 H          -4.1330    2.1611    0.4445 H       1  UNL1        0.0273
     47 H          -5.4050    3.2779    0.9857 H       1  UNL1        0.0273
     48 H          -5.0909    3.0961   -0.7485 H       1  UNL1        0.0273
     49 H          -6.4628    2.2420   -1.8945 H       1  UNL1        0.0273
     50 H          -7.8989    1.4939   -1.1999 H       1  UNL1        0.0273
     51 H          -6.4694    0.4152   -1.7060 H       1  UNL1        0.0273
     52 H          -9.1671    2.6820    1.1983 H       1  UNL1        0.2952
     53 H          -4.8851   -2.0028    1.5588 H       1  UNL1        0.0654
     54 H          -3.1022   -3.4068    0.8115 H       1  UNL1        0.0622
@<TRIPOS>BOND
     1     1     2    1
     2     2     3   ar
     3     3     4   ar
     4     4     5   ar
     5     5     6   ar
     6     5     7    1
     7     7     8   ar
     8     8     9   ar
     9     9    10   ar
    10    10    11   ar
    11    11    12   ar
    12    10    13    1
    13    13    14    1
    14    13    15    1
    15    13    16    1
    16     3    17    1
    17    17    18    2
    18    17    19   am
    19    19    20    1
    20    20    21    1
    21    21    22   ar
    22    22    23   ar
    23    23    24   ar
    24    24    25    1
    25    25    26    1
    26    26    27    1
    27    26    28    1
    28    26    29    1
    29    29    30    1
    30    29    31    2
    31    24    32   ar
    32    32    33   ar
    33     6     2   ar
    34    12     7   ar
    35    33    21   ar
    36     1    34    1
    37     1    35    1
    38     1    36    1
    39     8    37    1
    40     9    38    1
    41    11    39    1
    42    12    40    1
    43    19    41    1
    44    20    42    1
    45    20    43    1
    46    22    44    1
    47    23    45    1
    48    27    46    1
    49    27    47    1
    50    27    48    1
    51    28    49    1
    52    28    50    1
    53    28    51    1
    54    30    52    1
    55    32    53    1
    56    33    54    1
