@<TRIPOS>MOLECULE
*****
 32 34 0 0 0
SMALL
GASTEIGER

@<TRIPOS>ATOM
      1 O          -1.8727   -2.4918   -1.8089 O.2     1  UNL1       -0.2830
      2 C          -1.4635   -1.5194   -1.1418 C.ar    1  UNL1        0.2379
      3 C          -0.1141   -1.2442   -1.0067 C.ar    1  UNL1        0.2082
      4 O           0.7484   -2.1039   -1.6499 O.3     1  UNL1       -0.5007
      5 C           0.3022   -0.1753   -0.2719 C.ar    1  UNL1        0.1807
      6 C           1.7246    0.1835   -0.0811 C.ar    1  UNL1        0.0247
      7 C           1.9656    1.3129    0.7037 C.ar    1  UNL1       -0.0473
      8 C           3.2510    1.7323    0.9431 C.ar    1  UNL1       -0.0159
      9 C           4.3267    1.0249    0.3980 C.ar    1  UNL1        0.1583
     10 O           5.6355    1.4246    0.6226 O.3     1  UNL1       -0.5033
     11 C           4.0793   -0.0853   -0.3730 C.ar    1  UNL1        0.1589
     12 O           5.1365   -0.7896   -0.9150 O.3     1  UNL1       -0.5033
     13 C           2.7728   -0.5096   -0.6149 C.ar    1  UNL1       -0.0057
     14 O          -0.6031    0.5770    0.2974 O.2     1  UNL1       -0.4507
     15 C          -1.8805    0.3839    0.2171 C.ar    1  UNL1        0.1465
     16 C          -2.7930    1.2152    0.8424 C.ar    1  UNL1        0.0231
     17 C          -4.1268    0.9628    0.7227 C.ar    1  UNL1        0.1239
     18 O          -5.0074    1.8263    1.3693 O.3     1  UNL1       -0.5065
     19 C          -4.5891   -0.1086   -0.0118 C.ar    1  UNL1        0.0223
     20 C          -3.7004   -0.9458   -0.6403 C.ar    1  UNL1        0.1348
     21 O          -4.1102   -2.0307   -1.3867 O.3     1  UNL1       -0.5058
     22 C          -2.3592   -0.6922   -0.5201 C.ar    1  UNL1        0.1092
     23 H           0.9188   -3.0527   -1.3808 H       1  UNL1        0.2924
     24 H           1.1267    1.8810    1.1403 H       1  UNL1        0.0626
     25 H           3.4706    2.6009    1.5452 H       1  UNL1        0.0655
     26 H           6.3824    0.7318    0.6243 H       1  UNL1        0.2923
     27 H           5.7655   -0.3475   -1.5859 H       1  UNL1        0.2923
     28 H           2.6364   -1.3725   -1.2166 H       1  UNL1        0.0662
     29 H          -2.4170    2.0622    1.4227 H       1  UNL1        0.0691
     30 H          -5.2544    2.7375    1.0095 H       1  UNL1        0.2921
     31 H          -5.6626   -0.2519   -0.0661 H       1  UNL1        0.0691
     32 H          -4.2892   -2.9359   -0.9497 H       1  UNL1        0.2922
@<TRIPOS>BOND
     1     1     2    2
     2     2     3   ar
     3     3     4    1
     4     3     5   ar
     5     5     6    1
     6     6     7   ar
     7     7     8   ar
     8     8     9   ar
     9     9    10    1
    10     9    11   ar
    11    11    12    1
    12    11    13   ar
    13     5    14   ar
    14    14    15   ar
    15    15    16   ar
    16    16    17   ar
    17    17    18    1
    18    17    19   ar
    19    19    20   ar
    20    20    21    1
    21    20    22   ar
    22    22     2   ar
    23    13     6   ar
    24    22    15   ar
    25     4    23    1
    26     7    24    1
    27     8    25    1
    28    10    26    1
    29    12    27    1
    30    13    28    1
    31    16    29    1
    32    18    30    1
    33    19    31    1
    34    21    32    1
