@<TRIPOS>MOLECULE
*****
 49 51 0 0 0
SMALL
GASTEIGER

@<TRIPOS>ATOM
      1 C           5.6506    2.9520   -0.9431 C.3     1  UNL1       -0.0397
      2 C           4.8400    1.7977   -0.4239 C.ar    1  UNL1       -0.0503
      3 C           5.4259    0.7569    0.2622 C.ar    1  UNL1       -0.0571
      4 C           4.6430   -0.2945    0.7378 C.ar    1  UNL1       -0.0403
      5 C           3.2782   -0.3318    0.5424 C.ar    1  UNL1        0.0324
      6 N           2.5068   -1.4171    1.0668 N.pl3   1  UNL1       -0.2987
      7 C           1.1848   -1.5801    0.5818 C.ar    1  UNL1        0.1402
      8 N           0.1487   -0.8088    0.9449 N.ar    1  UNL1       -0.1987
      9 C          -1.1058   -0.9682    0.4891 C.ar    1  UNL1        0.2171
     10 N          -2.1795   -0.1290    0.8951 N.pl3   1  UNL1       -0.3091
     11 C          -3.5125   -0.3324    0.3643 C.3     1  UNL1        0.0384
     12 C          -3.5515   -0.1875   -1.1286 C.3     1  UNL1       -0.0331
     13 C          -2.9478    1.1570   -1.4860 C.3     1  UNL1       -0.0513
     14 C          -3.6412    2.2333   -0.6944 C.3     1  UNL1       -0.0515
     15 C          -4.8736    1.7028    0.0132 C.3     1  UNL1       -0.0360
     16 C          -4.4992    0.5967    0.9931 C.3     1  UNL1        0.0234
     17 N          -3.9814    1.1805    2.2137 N.3     1  UNL1       -0.3257
     18 N          -1.3030   -1.9778   -0.3882 N.ar    1  UNL1       -0.2221
     19 C          -0.3116   -2.8013   -0.8050 C.ar    1  UNL1        0.0466
     20 C           0.9607   -2.6095   -0.3185 C.ar    1  UNL1        0.0946
     21 C           2.0819   -3.4575   -0.7072 C.2     1  UNL1        0.2463
     22 N           1.8558   -4.5148   -1.6278 N.am    1  UNL1       -0.3252
     23 O           3.2226   -3.2728   -0.2499 O.2     1  UNL1       -0.2702
     24 C           2.6897    0.7193   -0.1515 C.ar    1  UNL1       -0.0403
     25 C           3.4656    1.7720   -0.6275 C.ar    1  UNL1       -0.0571
     26 H           6.5246    3.1036   -0.2658 H       1  UNL1        0.0278
     27 H           6.0225    2.6694   -1.9352 H       1  UNL1        0.0278
     28 H           4.9953    3.8473   -0.9474 H       1  UNL1        0.0278
     29 H           6.5042    0.7625    0.4335 H       1  UNL1        0.0621
     30 H           5.1373   -1.1066    1.2748 H       1  UNL1        0.0636
     31 H           2.9180   -2.0574    1.7794 H       1  UNL1        0.1536
     32 H          -2.0251    0.6313    1.5678 H       1  UNL1        0.1492
     33 H          -3.7821   -1.4011    0.5924 H       1  UNL1        0.0513
     34 H          -4.6000   -0.2053   -1.4649 H       1  UNL1        0.0284
     35 H          -3.0493   -1.0243   -1.6659 H       1  UNL1        0.0284
     36 H          -1.8592    1.0768   -1.2137 H       1  UNL1        0.0266
     37 H          -2.9689    1.3781   -2.5686 H       1  UNL1        0.0266
     38 H          -2.9673    2.6078    0.1211 H       1  UNL1        0.0266
     39 H          -3.9569    3.0632   -1.3445 H       1  UNL1        0.0266
     40 H          -5.3151    2.5647    0.5707 H       1  UNL1        0.0281
     41 H          -5.6415    1.3431   -0.6976 H       1  UNL1        0.0281
     42 H          -5.4179    0.0150    1.2262 H       1  UNL1        0.0476
     43 H          -3.8702    0.5252    2.9863 H       1  UNL1        0.1185
     44 H          -4.4001    2.1024    2.4592 H       1  UNL1        0.1185
     45 H          -0.4972   -3.6176   -1.5168 H       1  UNL1        0.0839
     46 H           1.2318   -5.3316   -1.4710 H       1  UNL1        0.1453
     47 H           2.3608   -4.4600   -2.5443 H       1  UNL1        0.1453
     48 H           1.6077    0.7257   -0.3264 H       1  UNL1        0.0636
     49 H           3.0014    2.6025   -1.1695 H       1  UNL1        0.0621
@<TRIPOS>BOND
     1     1     2    1
     2     2     3   ar
     3     3     4   ar
     4     4     5   ar
     5     5     6    1
     6     6     7    1
     7     7     8   ar
     8     8     9   ar
     9     9    10    1
    10    10    11    1
    11    11    12    1
    12    12    13    1
    13    13    14    1
    14    14    15    1
    15    15    16    1
    16    16    17    1
    17     9    18   ar
    18    18    19   ar
    19    19    20   ar
    20    20    21    1
    21    21    22   am
    22    21    23    2
    23     5    24   ar
    24    24    25   ar
    25    25     2   ar
    26    20     7   ar
    27    16    11    1
    28     1    26    1
    29     1    27    1
    30     1    28    1
    31     3    29    1
    32     4    30    1
    33     6    31    1
    34    10    32    1
    35    11    33    1
    36    12    34    1
    37    12    35    1
    38    13    36    1
    39    13    37    1
    40    14    38    1
    41    14    39    1
    42    15    40    1
    43    15    41    1
    44    16    42    1
    45    17    43    1
    46    17    44    1
    47    19    45    1
    48    22    46    1
    49    22    47    1
    50    24    48    1
    51    25    49    1
