
     RDKit          3D

 49 51  0  0  0  0  0  0  0  0999 V2000
    5.6506    2.9520   -0.9431 C   0  0  0  0  0  0  0  0  0  0  0  0
    4.8400    1.7977   -0.4239 C   0  0  0  0  0  0  0  0  0  0  0  0
    5.4259    0.7569    0.2622 C   0  0  0  0  0  0  0  0  0  0  0  0
    4.6430   -0.2945    0.7378 C   0  0  0  0  0  0  0  0  0  0  0  0
    3.2782   -0.3318    0.5424 C   0  0  0  0  0  0  0  0  0  0  0  0
    2.5068   -1.4171    1.0668 N   0  0  0  0  0  0  0  0  0  0  0  0
    1.1848   -1.5801    0.5818 C   0  0  0  0  0  0  0  0  0  0  0  0
    0.1487   -0.8088    0.9449 N   0  0  0  0  0  0  0  0  0  0  0  0
   -1.1058   -0.9682    0.4891 C   0  0  0  0  0  0  0  0  0  0  0  0
   -2.1795   -0.1290    0.8951 N   0  0  0  0  0  0  0  0  0  0  0  0
   -3.5125   -0.3324    0.3643 C   0  0  2  0  0  0  0  0  0  0  0  0
   -3.5515   -0.1875   -1.1286 C   0  0  0  0  0  0  0  0  0  0  0  0
   -2.9478    1.1570   -1.4860 C   0  0  0  0  0  0  0  0  0  0  0  0
   -3.6412    2.2333   -0.6944 C   0  0  0  0  0  0  0  0  0  0  0  0
   -4.8736    1.7028    0.0132 C   0  0  0  0  0  0  0  0  0  0  0  0
   -4.4992    0.5967    0.9931 C   0  0  2  0  0  0  0  0  0  0  0  0
   -3.9814    1.1805    2.2137 N   0  0  0  0  0  0  0  0  0  0  0  0
   -1.3030   -1.9778   -0.3882 N   0  0  0  0  0  0  0  0  0  0  0  0
   -0.3116   -2.8013   -0.8050 C   0  0  0  0  0  0  0  0  0  0  0  0
    0.9607   -2.6095   -0.3185 C   0  0  0  0  0  0  0  0  0  0  0  0
    2.0819   -3.4575   -0.7072 C   0  0  0  0  0  0  0  0  0  0  0  0
    1.8558   -4.5148   -1.6278 N   0  0  0  0  0  0  0  0  0  0  0  0
    3.2226   -3.2728   -0.2499 O   0  0  0  0  0  0  0  0  0  0  0  0
    2.6897    0.7193   -0.1515 C   0  0  0  0  0  0  0  0  0  0  0  0
    3.4656    1.7720   -0.6275 C   0  0  0  0  0  0  0  0  0  0  0  0
    6.5246    3.1036   -0.2658 H   0  0  0  0  0  0  0  0  0  0  0  0
    6.0225    2.6694   -1.9352 H   0  0  0  0  0  0  0  0  0  0  0  0
    4.9953    3.8473   -0.9474 H   0  0  0  0  0  0  0  0  0  0  0  0
    6.5042    0.7625    0.4335 H   0  0  0  0  0  0  0  0  0  0  0  0
    5.1373   -1.1066    1.2748 H   0  0  0  0  0  0  0  0  0  0  0  0
    2.9180   -2.0574    1.7794 H   0  0  0  0  0  0  0  0  0  0  0  0
   -2.0251    0.6313    1.5678 H   0  0  0  0  0  0  0  0  0  0  0  0
   -3.7821   -1.4011    0.5924 H   0  0  0  0  0  0  0  0  0  0  0  0
   -4.6000   -0.2053   -1.4649 H   0  0  0  0  0  0  0  0  0  0  0  0
   -3.0493   -1.0243   -1.6659 H   0  0  0  0  0  0  0  0  0  0  0  0
   -1.8592    1.0768   -1.2137 H   0  0  0  0  0  0  0  0  0  0  0  0
   -2.9689    1.3781   -2.5686 H   0  0  0  0  0  0  0  0  0  0  0  0
   -2.9673    2.6078    0.1211 H   0  0  0  0  0  0  0  0  0  0  0  0
   -3.9569    3.0632   -1.3445 H   0  0  0  0  0  0  0  0  0  0  0  0
   -5.3151    2.5647    0.5707 H   0  0  0  0  0  0  0  0  0  0  0  0
   -5.6415    1.3431   -0.6976 H   0  0  0  0  0  0  0  0  0  0  0  0
   -5.4179    0.0150    1.2262 H   0  0  0  0  0  0  0  0  0  0  0  0
   -3.8702    0.5252    2.9863 H   0  0  0  0  0  0  0  0  0  0  0  0
   -4.4001    2.1024    2.4592 H   0  0  0  0  0  0  0  0  0  0  0  0
   -0.4972   -3.6176   -1.5168 H   0  0  0  0  0  0  0  0  0  0  0  0
    1.2318   -5.3316   -1.4710 H   0  0  0  0  0  0  0  0  0  0  0  0
    2.3608   -4.4600   -2.5443 H   0  0  0  0  0  0  0  0  0  0  0  0
    1.6077    0.7257   -0.3264 H   0  0  0  0  0  0  0  0  0  0  0  0
    3.0014    2.6025   -1.1695 H   0  0  0  0  0  0  0  0  0  0  0  0
  1  2  1  0
  2  3  2  0
  3  4  1  0
  4  5  2  0
  5  6  1  0
  6  7  1  0
  7  8  2  0
  8  9  1  0
  9 10  1  0
 10 11  1  0
 11 12  1  0
 12 13  1  0
 13 14  1  0
 14 15  1  0
 15 16  1  0
 16 17  1  0
  9 18  2  0
 18 19  1  0
 19 20  2  0
 20 21  1  0
 21 22  1  0
 21 23  2  0
  5 24  1  0
 24 25  2  0
 25  2  1  0
 20  7  1  0
 16 11  1  0
  1 26  1  0
  1 27  1  0
  1 28  1  0
  3 29  1  0
  4 30  1  0
  6 31  1  0
 10 32  1  0
 11 33  1  6
 12 34  1  0
 12 35  1  0
 13 36  1  0
 13 37  1  0
 14 38  1  0
 14 39  1  0
 15 40  1  0
 15 41  1  0
 16 42  1  1
 17 43  1  0
 17 44  1  0
 19 45  1  0
 22 46  1  0
 22 47  1  0
 24 48  1  0
 25 49  1  0
M  END
$$$$
