@<TRIPOS>MOLECULE
*****
 48 50 0 0 0
SMALL
GASTEIGER

@<TRIPOS>ATOM
      1 C           6.2083   -1.1428    0.2295 C.3     1  UNL1       -0.0582
      2 C           5.2485   -1.2786   -0.9534 C.3     1  UNL1        0.0076
      3 C           3.8592   -1.2950   -0.4590 C.2     1  UNL1        0.1630
      4 O           3.4740   -2.4042   -0.0252 O.2     1  UNL1       -0.2921
      5 C           2.9751   -0.1354   -0.4585 C.ar    1  UNL1        0.0192
      6 C           1.6859   -0.2152    0.0150 C.ar    1  UNL1       -0.0288
      7 C           0.7647    0.8118    0.0648 C.ar    1  UNL1        0.0486
      8 C           1.2943    1.9649   -0.4284 C.ar    1  UNL1        0.0341
      9 S           0.3031    3.4393   -0.4980 S.3     1  UNL1       -0.0857
     10 C          -1.2416    3.0154    0.2593 C.ar    1  UNL1        0.0341
     11 C          -2.0882    4.0524    0.3675 C.ar    1  UNL1       -0.0462
     12 C          -3.3301    3.8545    0.9534 C.ar    1  UNL1       -0.0606
     13 C          -3.6312    2.5727    1.4028 C.ar    1  UNL1       -0.0599
     14 C          -2.6944    1.5916    1.2424 C.ar    1  UNL1       -0.0393
     15 C          -1.4498    1.7289    0.6686 C.ar    1  UNL1        0.0479
     16 N          -0.5557    0.6313    0.6076 N.pl3   1  UNL1       -0.2968
     17 C          -0.9358   -0.7198    0.9997 C.3     1  UNL1        0.0327
     18 C          -1.6391   -1.4964   -0.0834 C.3     1  UNL1        0.0231
     19 C          -0.8292   -1.6446   -1.3542 C.3     1  UNL1       -0.0480
     20 N          -3.0084   -1.1591   -0.2831 N.3     1  UNL1       -0.3042
     21 C          -3.5308   -1.7608   -1.5205 C.3     1  UNL1       -0.0127
     22 C          -3.8064   -1.8704    0.7561 C.3     1  UNL1       -0.0127
     23 C           2.5416    2.1477   -0.9143 C.ar    1  UNL1       -0.0455
     24 C           3.4147    1.0793   -0.9358 C.ar    1  UNL1       -0.0501
     25 H           5.8029   -0.4007    0.9472 H       1  UNL1        0.0234
     26 H           6.2727   -2.1206    0.7885 H       1  UNL1        0.0234
     27 H           7.2332   -0.8918   -0.1023 H       1  UNL1        0.0234
     28 H           5.5066   -2.2531   -1.4289 H       1  UNL1        0.0342
     29 H           5.4754   -0.4830   -1.6807 H       1  UNL1        0.0342
     30 H           1.4562   -1.2104    0.3610 H       1  UNL1        0.0643
     31 H          -1.9066    5.0655    0.0373 H       1  UNL1        0.0629
     32 H          -4.0451    4.6565    1.0624 H       1  UNL1        0.0618
     33 H          -4.6085    2.4621    1.8529 H       1  UNL1        0.0618
     34 H          -3.0510    0.6693    1.6637 H       1  UNL1        0.0636
     35 H          -1.6199   -0.6628    1.9141 H       1  UNL1        0.0483
     36 H          -0.1126   -1.3283    1.3570 H       1  UNL1        0.0483
     37 H          -1.7059   -2.6064    0.2601 H       1  UNL1        0.0475
     38 H          -1.4380   -2.1917   -2.1368 H       1  UNL1        0.0245
     39 H           0.0710   -2.2722   -1.2385 H       1  UNL1        0.0245
     40 H          -0.4941   -0.6836   -1.7885 H       1  UNL1        0.0245
     41 H          -4.6413   -1.6492   -1.4191 H       1  UNL1        0.0391
     42 H          -3.3279   -2.8373   -1.5830 H       1  UNL1        0.0391
     43 H          -3.2459   -1.1753   -2.4189 H       1  UNL1        0.0391
     44 H          -3.3154   -1.7132    1.7263 H       1  UNL1        0.0391
     45 H          -4.8277   -1.4493    0.8189 H       1  UNL1        0.0391
     46 H          -3.8743   -2.9433    0.4748 H       1  UNL1        0.0391
     47 H           2.9467    3.0638   -1.3001 H       1  UNL1        0.0629
     48 H           4.4208    1.1876   -1.3159 H       1  UNL1        0.0625
@<TRIPOS>BOND
     1     1     2    1
     2     2     3    1
     3     3     4    2
     4     3     5    1
     5     5     6   ar
     6     6     7   ar
     7     7     8   ar
     8     8     9    1
     9     9    10    1
    10    10    11   ar
    11    11    12   ar
    12    12    13   ar
    13    13    14   ar
    14    14    15   ar
    15    15    16    1
    16    16    17    1
    17    17    18    1
    18    18    19    1
    19    18    20    1
    20    20    21    1
    21    20    22    1
    22     8    23   ar
    23    23    24   ar
    24    24     5   ar
    25    16     7    1
    26    15    10   ar
    27     1    25    1
    28     1    26    1
    29     1    27    1
    30     2    28    1
    31     2    29    1
    32     6    30    1
    33    11    31    1
    34    12    32    1
    35    13    33    1
    36    14    34    1
    37    17    35    1
    38    17    36    1
    39    18    37    1
    40    19    38    1
    41    19    39    1
    42    19    40    1
    43    21    41    1
    44    21    42    1
    45    21    43    1
    46    22    44    1
    47    22    45    1
    48    22    46    1
    49    23    47    1
    50    24    48    1
