
     RDKit          3D

 48 50  0  0  0  0  0  0  0  0999 V2000
    6.2083   -1.1428    0.2295 C   0  0  0  0  0  0  0  0  0  0  0  0
    5.2485   -1.2786   -0.9534 C   0  0  0  0  0  0  0  0  0  0  0  0
    3.8592   -1.2950   -0.4590 C   0  0  0  0  0  0  0  0  0  0  0  0
    3.4740   -2.4042   -0.0252 O   0  0  0  0  0  0  0  0  0  0  0  0
    2.9751   -0.1354   -0.4585 C   0  0  0  0  0  0  0  0  0  0  0  0
    1.6859   -0.2152    0.0150 C   0  0  0  0  0  0  0  0  0  0  0  0
    0.7647    0.8118    0.0648 C   0  0  0  0  0  0  0  0  0  0  0  0
    1.2943    1.9649   -0.4284 C   0  0  0  0  0  0  0  0  0  0  0  0
    0.3031    3.4393   -0.4980 S   0  0  0  0  0  0  0  0  0  0  0  0
   -1.2416    3.0154    0.2593 C   0  0  0  0  0  0  0  0  0  0  0  0
   -2.0882    4.0524    0.3675 C   0  0  0  0  0  0  0  0  0  0  0  0
   -3.3301    3.8545    0.9534 C   0  0  0  0  0  0  0  0  0  0  0  0
   -3.6312    2.5727    1.4028 C   0  0  0  0  0  0  0  0  0  0  0  0
   -2.6944    1.5916    1.2424 C   0  0  0  0  0  0  0  0  0  0  0  0
   -1.4498    1.7289    0.6686 C   0  0  0  0  0  0  0  0  0  0  0  0
   -0.5557    0.6313    0.6076 N   0  0  0  0  0  0  0  0  0  0  0  0
   -0.9358   -0.7198    0.9997 C   0  0  0  0  0  0  0  0  0  0  0  0
   -1.6391   -1.4964   -0.0834 C   0  0  0  0  0  0  0  0  0  0  0  0
   -0.8292   -1.6446   -1.3542 C   0  0  0  0  0  0  0  0  0  0  0  0
   -3.0084   -1.1591   -0.2831 N   0  0  0  0  0  0  0  0  0  0  0  0
   -3.5308   -1.7608   -1.5205 C   0  0  0  0  0  0  0  0  0  0  0  0
   -3.8064   -1.8704    0.7561 C   0  0  0  0  0  0  0  0  0  0  0  0
    2.5416    2.1477   -0.9143 C   0  0  0  0  0  0  0  0  0  0  0  0
    3.4147    1.0793   -0.9358 C   0  0  0  0  0  0  0  0  0  0  0  0
    5.8029   -0.4007    0.9472 H   0  0  0  0  0  0  0  0  0  0  0  0
    6.2727   -2.1206    0.7885 H   0  0  0  0  0  0  0  0  0  0  0  0
    7.2332   -0.8918   -0.1023 H   0  0  0  0  0  0  0  0  0  0  0  0
    5.5066   -2.2531   -1.4289 H   0  0  0  0  0  0  0  0  0  0  0  0
    5.4754   -0.4830   -1.6807 H   0  0  0  0  0  0  0  0  0  0  0  0
    1.4562   -1.2104    0.3610 H   0  0  0  0  0  0  0  0  0  0  0  0
   -1.9066    5.0655    0.0373 H   0  0  0  0  0  0  0  0  0  0  0  0
   -4.0451    4.6565    1.0624 H   0  0  0  0  0  0  0  0  0  0  0  0
   -4.6085    2.4621    1.8529 H   0  0  0  0  0  0  0  0  0  0  0  0
   -3.0510    0.6693    1.6637 H   0  0  0  0  0  0  0  0  0  0  0  0
   -1.6199   -0.6628    1.9141 H   0  0  0  0  0  0  0  0  0  0  0  0
   -0.1126   -1.3283    1.3570 H   0  0  0  0  0  0  0  0  0  0  0  0
   -1.7059   -2.6064    0.2601 H   0  0  0  0  0  0  0  0  0  0  0  0
   -1.4380   -2.1917   -2.1368 H   0  0  0  0  0  0  0  0  0  0  0  0
    0.0710   -2.2722   -1.2385 H   0  0  0  0  0  0  0  0  0  0  0  0
   -0.4941   -0.6836   -1.7885 H   0  0  0  0  0  0  0  0  0  0  0  0
   -4.6413   -1.6492   -1.4191 H   0  0  0  0  0  0  0  0  0  0  0  0
   -3.3279   -2.8373   -1.5830 H   0  0  0  0  0  0  0  0  0  0  0  0
   -3.2459   -1.1753   -2.4189 H   0  0  0  0  0  0  0  0  0  0  0  0
   -3.3154   -1.7132    1.7263 H   0  0  0  0  0  0  0  0  0  0  0  0
   -4.8277   -1.4493    0.8189 H   0  0  0  0  0  0  0  0  0  0  0  0
   -3.8743   -2.9433    0.4748 H   0  0  0  0  0  0  0  0  0  0  0  0
    2.9467    3.0638   -1.3001 H   0  0  0  0  0  0  0  0  0  0  0  0
    4.4208    1.1876   -1.3159 H   0  0  0  0  0  0  0  0  0  0  0  0
  1  2  1  0
  2  3  1  0
  3  4  2  0
  3  5  1  0
  5  6  2  0
  6  7  1  0
  7  8  2  0
  8  9  1  0
  9 10  1  0
 10 11  2  0
 11 12  1  0
 12 13  2  0
 13 14  1  0
 14 15  2  0
 15 16  1  0
 16 17  1  0
 17 18  1  0
 18 19  1  0
 18 20  1  0
 20 21  1  0
 20 22  1  0
  8 23  1  0
 23 24  2  0
 24  5  1  0
 16  7  1  0
 15 10  1  0
  1 25  1  0
  1 26  1  0
  1 27  1  0
  2 28  1  0
  2 29  1  0
  6 30  1  0
 11 31  1  0
 12 32  1  0
 13 33  1  0
 14 34  1  0
 17 35  1  0
 17 36  1  0
 18 37  1  0
 19 38  1  0
 19 39  1  0
 19 40  1  0
 21 41  1  0
 21 42  1  0
 21 43  1  0
 22 44  1  0
 22 45  1  0
 22 46  1  0
 23 47  1  0
 24 48  1  0
M  END
$$$$
