
     RDKit          3D

 85 89  0  0  0  0  0  0  0  0999 V2000
   -2.7745    2.9162   -1.7760 C   0  0  0  0  0  0  0  0  0  0  0  0
   -2.1868    2.2715   -2.9793 C   0  0  0  0  0  0  0  0  0  0  0  0
   -1.2497    1.1365   -2.7895 C   0  0  0  0  0  0  0  0  0  0  0  0
   -1.7269   -0.1162   -2.1668 C   0  0  0  0  0  0  0  0  0  0  0  0
   -2.2464   -0.0920   -0.8294 N   0  0  0  0  0  0  0  0  0  0  0  0
   -3.6734    0.1744   -0.6933 C   0  0  0  0  0  0  0  0  0  0  0  0
   -4.3311   -0.0109   -1.7542 O   0  0  0  0  0  0  0  0  0  0  0  0
   -4.1802    0.6068    0.5784 C   0  0  1  0  0  0  0  0  0  0  0  0
   -5.6241    0.8577    0.7457 C   0  0  1  0  0  0  0  0  0  0  0  0
   -6.1541    1.5609   -0.3317 O   0  0  0  0  0  0  0  0  0  0  0  0
   -6.5161   -0.2069    1.2313 C   0  0  0  0  0  0  0  0  0  0  0  0
   -7.9600    0.3402    1.2975 C   0  0  0  0  0  0  0  0  0  0  0  0
   -8.9523   -0.7971    1.2842 C   0  0  0  0  0  0  0  0  0  0  0  0
   -8.3388   -2.0666    1.8480 C   0  0  0  0  0  0  0  0  0  0  0  0
   -7.1549   -2.5589    1.0824 C   0  0  0  0  0  0  0  0  0  0  0  0
   -6.5595   -1.3941    0.3142 C   0  0  0  0  0  0  0  0  0  0  0  0
   -3.6035   -0.1732    1.6498 N   0  0  0  0  0  0  0  0  0  0  0  0
   -2.2245   -0.4265    1.5831 C   0  0  0  0  0  0  0  0  0  0  0  0
   -1.5549   -0.7117    2.6320 O   0  0  0  0  0  0  0  0  0  0  0  0
   -1.4199   -0.3915    0.3184 C   0  0  0  0  0  0  0  0  0  0  0  0
   -0.9146   -1.8151    0.1549 C   0  0  0  0  0  0  0  0  0  0  0  0
    0.2870   -2.1424    0.9751 C   0  0  0  0  0  0  0  0  0  0  0  0
    1.3547   -1.1931    0.9303 N   0  0  0  0  0  0  0  0  0  0  0  0
    2.5312   -1.8366    0.3761 C   0  0  0  0  0  0  0  0  0  0  0  0
    3.7052   -0.9599    0.3802 C   0  0  0  0  0  0  0  0  0  0  0  0
    4.5177   -0.9789    1.4913 C   0  0  0  0  0  0  0  0  0  0  0  0
    5.6190   -0.1833    1.5493 C   0  0  0  0  0  0  0  0  0  0  0  0
    5.9307    0.6439    0.5045 C   0  0  0  0  0  0  0  0  0  0  0  0
    7.0575    1.4637    0.5535 O   0  0  0  0  0  0  0  0  0  0  0  0
    8.2848    1.0142    0.1016 C   0  0  0  0  0  0  0  0  0  0  0  0
    9.1459    0.3732    0.9846 C   0  0  0  0  0  0  0  0  0  0  0  0
   10.3859   -0.0937    0.5716 C   0  0  0  0  0  0  0  0  0  0  0  0
   10.7847    0.0738   -0.7305 C   0  0  0  0  0  0  0  0  0  0  0  0
   12.0790   -0.4063   -1.1854 C   0  0  0  0  0  0  0  0  0  0  0  0
   12.4212   -0.2412   -2.3782 O   0  0  0  0  0  0  0  0  0  0  0  0
   12.9528   -1.0510   -0.3168 O   0  0  0  0  0  0  0  0  0  0  0  0
    9.9288    0.7061   -1.5905 C   0  0  0  0  0  0  0  0  0  0  0  0
    8.6799    1.1798   -1.1893 C   0  0  0  0  0  0  0  0  0  0  0  0
    5.1282    0.6646   -0.5971 C   0  0  0  0  0  0  0  0  0  0  0  0
    4.0089   -0.1341   -0.6741 C   0  0  0  0  0  0  0  0  0  0  0  0
    1.0479   -0.0589    0.0675 C   0  0  0  0  0  0  0  0  0  0  0  0
   -0.2855    0.5547    0.4502 C   0  0  0  0  0  0  0  0  0  0  0  0
   -2.2615    2.6238   -0.8524 H   0  0  0  0  0  0  0  0  0  0  0  0
   -3.8782    2.7938   -1.6635 H   0  0  0  0  0  0  0  0  0  0  0  0
   -2.6736    4.0528   -1.8237 H   0  0  0  0  0  0  0  0  0  0  0  0
   -3.0050    1.9650   -3.6905 H   0  0  0  0  0  0  0  0  0  0  0  0
   -1.6502    3.0888   -3.5470 H   0  0  0  0  0  0  0  0  0  0  0  0
   -0.8141    0.8894   -3.8407 H   0  0  0  0  0  0  0  0  0  0  0  0
   -0.3230    1.5547   -2.3024 H   0  0  0  0  0  0  0  0  0  0  0  0
   -0.8663   -0.8386   -2.2385 H   0  0  0  0  0  0  0  0  0  0  0  0
   -2.4954   -0.6248   -2.8593 H   0  0  0  0  0  0  0  0  0  0  0  0
   -3.6962    1.6426    0.7491 H   0  0  0  0  0  0  0  0  0  0  0  0
   -5.6686    1.6643    1.5844 H   0  0  0  0  0  0  0  0  0  0  0  0
   -5.9463    2.5231   -0.3052 H   0  0  0  0  0  0  0  0  0  0  0  0
   -6.3264   -0.5102    2.2957 H   0  0  0  0  0  0  0  0  0  0  0  0
   -8.1134    0.9497    0.3869 H   0  0  0  0  0  0  0  0  0  0  0  0
   -8.1199    0.9723    2.1715 H   0  0  0  0  0  0  0  0  0  0  0  0
   -9.4250   -0.9634    0.2927 H   0  0  0  0  0  0  0  0  0  0  0  0
   -9.7772   -0.5186    1.9728 H   0  0  0  0  0  0  0  0  0  0  0  0
   -9.1232   -2.8463    1.8174 H   0  0  0  0  0  0  0  0  0  0  0  0
   -8.1228   -1.9100    2.9295 H   0  0  0  0  0  0  0  0  0  0  0  0
   -6.3941   -2.9242    1.8273 H   0  0  0  0  0  0  0  0  0  0  0  0
   -7.3718   -3.4293    0.4312 H   0  0  0  0  0  0  0  0  0  0  0  0
   -7.1822   -1.1747   -0.5795 H   0  0  0  0  0  0  0  0  0  0  0  0
   -5.5537   -1.6684   -0.0833 H   0  0  0  0  0  0  0  0  0  0  0  0
   -4.1844   -0.5310    2.4362 H   0  0  0  0  0  0  0  0  0  0  0  0
   -0.7341   -2.1397   -0.8601 H   0  0  0  0  0  0  0  0  0  0  0  0
   -1.7453   -2.4780    0.5537 H   0  0  0  0  0  0  0  0  0  0  0  0
    0.6262   -3.1617    0.6196 H   0  0  0  0  0  0  0  0  0  0  0  0
    0.0395   -2.3170    2.0625 H   0  0  0  0  0  0  0  0  0  0  0  0
    2.6979   -2.8004    0.8774 H   0  0  0  0  0  0  0  0  0  0  0  0
    2.2474   -2.0937   -0.6866 H   0  0  0  0  0  0  0  0  0  0  0  0
    4.2781   -1.6350    2.3317 H   0  0  0  0  0  0  0  0  0  0  0  0
    6.2384   -0.2151    2.4276 H   0  0  0  0  0  0  0  0  0  0  0  0
    8.8304    0.2432    2.0030 H   0  0  0  0  0  0  0  0  0  0  0  0
   11.0608   -0.6001    1.2739 H   0  0  0  0  0  0  0  0  0  0  0  0
   13.8889   -1.2454   -0.6513 H   0  0  0  0  0  0  0  0  0  0  0  0
   10.2061    0.8605   -2.6389 H   0  0  0  0  0  0  0  0  0  0  0  0
    8.0139    1.6780   -1.8794 H   0  0  0  0  0  0  0  0  0  0  0  0
    5.3619    1.3210   -1.4441 H   0  0  0  0  0  0  0  0  0  0  0  0
    3.4019   -0.0841   -1.5697 H   0  0  0  0  0  0  0  0  0  0  0  0
    1.0987   -0.3644   -0.9736 H   0  0  0  0  0  0  0  0  0  0  0  0
    1.8250    0.7076    0.2592 H   0  0  0  0  0  0  0  0  0  0  0  0
   -0.2103    0.8433    1.5598 H   0  0  0  0  0  0  0  0  0  0  0  0
   -0.3721    1.5209   -0.0468 H   0  0  0  0  0  0  0  0  0  0  0  0
  1  2  1  0
  2  3  1  0
  3  4  1  0
  4  5  1  0
  5  6  1  0
  6  7  2  0
  6  8  1  0
  8  9  1  0
  9 10  1  0
  9 11  1  0
 11 12  1  0
 12 13  1  0
 13 14  1  0
 14 15  1  0
 15 16  1  0
  8 17  1  0
 17 18  1  0
 18 19  2  0
 18 20  1  0
 20 21  1  0
 21 22  1  0
 22 23  1  0
 23 24  1  0
 24 25  1  0
 25 26  2  0
 26 27  1  0
 27 28  2  0
 28 29  1  0
 29 30  1  0
 30 31  2  0
 31 32  1  0
 32 33  2  0
 33 34  1  0
 34 35  2  0
 34 36  1  0
 33 37  1  0
 37 38  2  0
 28 39  1  0
 39 40  2  0
 23 41  1  0
 41 42  1  0
 20  5  1  0
 40 25  1  0
 16 11  1  0
 42 20  1  0
 38 30  1  0
  1 43  1  0
  1 44  1  0
  1 45  1  0
  2 46  1  0
  2 47  1  0
  3 48  1  0
  3 49  1  0
  4 50  1  0
  4 51  1  0
  8 52  1  1
  9 53  1  1
 10 54  1  0
 11 55  1  0
 12 56  1  0
 12 57  1  0
 13 58  1  0
 13 59  1  0
 14 60  1  0
 14 61  1  0
 15 62  1  0
 15 63  1  0
 16 64  1  0
 16 65  1  0
 17 66  1  0
 21 67  1  0
 21 68  1  0
 22 69  1  0
 22 70  1  0
 24 71  1  0
 24 72  1  0
 26 73  1  0
 27 74  1  0
 31 75  1  0
 32 76  1  0
 36 77  1  0
 37 78  1  0
 38 79  1  0
 39 80  1  0
 40 81  1  0
 41 82  1  0
 41 83  1  0
 42 84  1  0
 42 85  1  0
M  END
$$$$
