@<TRIPOS>MOLECULE
*****
 85 89 0 0 0
SMALL
GASTEIGER

@<TRIPOS>ATOM
      1 C          -2.7745    2.9162   -1.7760 C.3     1  UNL1       -0.0652
      2 C          -2.1868    2.2715   -2.9793 C.3     1  UNL1       -0.0545
      3 C          -1.2497    1.1365   -2.7895 C.3     1  UNL1       -0.0374
      4 C          -1.7269   -0.1162   -2.1668 C.3     1  UNL1        0.0158
      5 N          -2.2464   -0.0920   -0.8294 N.am    1  UNL1       -0.2855
      6 C          -3.6734    0.1744   -0.6933 C.2     1  UNL1        0.2393
      7 O          -4.3311   -0.0109   -1.7542 O.2     1  UNL1       -0.2734
      8 C          -4.1802    0.6068    0.5784 C.3     1  UNL1        0.1259
      9 C          -5.6241    0.8577    0.7457 C.3     1  UNL1        0.0848
     10 O          -6.1541    1.5609   -0.3317 O.3     1  UNL1       -0.3892
     11 C          -6.5161   -0.2069    1.2313 C.3     1  UNL1       -0.0127
     12 C          -7.9600    0.3402    1.2975 C.3     1  UNL1       -0.0478
     13 C          -8.9523   -0.7971    1.2842 C.3     1  UNL1       -0.0527
     14 C          -8.3388   -2.0666    1.8480 C.3     1  UNL1       -0.0530
     15 C          -7.1549   -2.5589    1.0824 C.3     1  UNL1       -0.0527
     16 C          -6.5595   -1.3941    0.3142 C.3     1  UNL1       -0.0478
     17 N          -3.6035   -0.1732    1.6498 N.am    1  UNL1       -0.3001
     18 C          -2.2245   -0.4265    1.5831 C.2     1  UNL1        0.2375
     19 O          -1.5549   -0.7117    2.6320 O.2     1  UNL1       -0.2734
     20 C          -1.4199   -0.3915    0.3184 C.3     1  UNL1        0.1156
     21 C          -0.9146   -1.8151    0.1549 C.3     1  UNL1       -0.0100
     22 C           0.2870   -2.1424    0.9751 C.3     1  UNL1        0.0016
     23 N           1.3547   -1.1931    0.9303 N.3     1  UNL1       -0.2980
     24 C           2.5312   -1.8366    0.3761 C.3     1  UNL1        0.0240
     25 C           3.7052   -0.9599    0.3802 C.ar    1  UNL1       -0.0331
     26 C           4.5177   -0.9789    1.4913 C.ar    1  UNL1       -0.0539
     27 C           5.6190   -0.1833    1.5493 C.ar    1  UNL1       -0.0190
     28 C           5.9307    0.6439    0.5045 C.ar    1  UNL1        0.1285
     29 O           7.0575    1.4637    0.5535 O.3     1  UNL1       -0.4560
     30 C           8.2848    1.0142    0.1016 C.ar    1  UNL1        0.1285
     31 C           9.1459    0.3732    0.9846 C.ar    1  UNL1       -0.0186
     32 C          10.3859   -0.0937    0.5716 C.ar    1  UNL1       -0.0443
     33 C          10.7847    0.0738   -0.7305 C.ar    1  UNL1        0.0591
     34 C          12.0790   -0.4063   -1.1854 C.2     1  UNL1        0.3368
     35 O          12.4212   -0.2412   -2.3782 O.2     1  UNL1       -0.2451
     36 O          12.9528   -1.0510   -0.3168 O.3     1  UNL1       -0.4771
     37 C           9.9288    0.7061   -1.5905 C.ar    1  UNL1       -0.0443
     38 C           8.6799    1.1798   -1.1893 C.ar    1  UNL1       -0.0186
     39 C           5.1282    0.6646   -0.5971 C.ar    1  UNL1       -0.0190
     40 C           4.0089   -0.1341   -0.6741 C.ar    1  UNL1       -0.0539
     41 C           1.0479   -0.0589    0.0675 C.3     1  UNL1        0.0016
     42 C          -0.2855    0.5547    0.4502 C.3     1  UNL1       -0.0100
     43 H          -2.2615    2.6238   -0.8524 H       1  UNL1        0.0230
     44 H          -3.8782    2.7938   -1.6635 H       1  UNL1        0.0230
     45 H          -2.6736    4.0528   -1.8237 H       1  UNL1        0.0230
     46 H          -3.0050    1.9650   -3.6905 H       1  UNL1        0.0263
     47 H          -1.6502    3.0888   -3.5470 H       1  UNL1        0.0263
     48 H          -0.8141    0.8894   -3.8407 H       1  UNL1        0.0280
     49 H          -0.3230    1.5547   -2.3024 H       1  UNL1        0.0280
     50 H          -0.8663   -0.8386   -2.2385 H       1  UNL1        0.0465
     51 H          -2.4954   -0.6248   -2.8593 H       1  UNL1        0.0465
     52 H          -3.6962    1.6426    0.7491 H       1  UNL1        0.0621
     53 H          -5.6686    1.6643    1.5844 H       1  UNL1        0.0619
     54 H          -5.9463    2.5231   -0.3052 H       1  UNL1        0.2099
     55 H          -6.3264   -0.5102    2.2957 H       1  UNL1        0.0326
     56 H          -8.1134    0.9497    0.3869 H       1  UNL1        0.0269
     57 H          -8.1199    0.9723    2.1715 H       1  UNL1        0.0269
     58 H          -9.4250   -0.9634    0.2927 H       1  UNL1        0.0265
     59 H          -9.7772   -0.5186    1.9728 H       1  UNL1        0.0265
     60 H          -9.1232   -2.8463    1.8174 H       1  UNL1        0.0265
     61 H          -8.1228   -1.9100    2.9295 H       1  UNL1        0.0265
     62 H          -6.3941   -2.9242    1.8273 H       1  UNL1        0.0265
     63 H          -7.3718   -3.4293    0.4312 H       1  UNL1        0.0265
     64 H          -7.1822   -1.1747   -0.5795 H       1  UNL1        0.0269
     65 H          -5.5537   -1.6684   -0.0833 H       1  UNL1        0.0269
     66 H          -4.1844   -0.5310    2.4362 H       1  UNL1        0.1496
     67 H          -0.7341   -2.1397   -0.8601 H       1  UNL1        0.0303
     68 H          -1.7453   -2.4780    0.5537 H       1  UNL1        0.0303
     69 H           0.6262   -3.1617    0.6196 H       1  UNL1        0.0427
     70 H           0.0395   -2.3170    2.0625 H       1  UNL1        0.0427
     71 H           2.6979   -2.8004    0.8774 H       1  UNL1        0.0476
     72 H           2.2474   -2.0937   -0.6866 H       1  UNL1        0.0476
     73 H           4.2781   -1.6350    2.3317 H       1  UNL1        0.0622
     74 H           6.2384   -0.2151    2.4276 H       1  UNL1        0.0654
     75 H           8.8304    0.2432    2.0030 H       1  UNL1        0.0654
     76 H          11.0608   -0.6001    1.2739 H       1  UNL1        0.0627
     77 H          13.8889   -1.2454   -0.6513 H       1  UNL1        0.2954
     78 H          10.2061    0.8605   -2.6389 H       1  UNL1        0.0627
     79 H           8.0139    1.6780   -1.8794 H       1  UNL1        0.0654
     80 H           5.3619    1.3210   -1.4441 H       1  UNL1        0.0654
     81 H           3.4019   -0.0841   -1.5697 H       1  UNL1        0.0622
     82 H           1.0987   -0.3644   -0.9736 H       1  UNL1        0.0427
     83 H           1.8250    0.7076    0.2592 H       1  UNL1        0.0427
     84 H          -0.2103    0.8433    1.5598 H       1  UNL1        0.0303
     85 H          -0.3721    1.5209   -0.0468 H       1  UNL1        0.0303
@<TRIPOS>BOND
     1     1     2    1
     2     2     3    1
     3     3     4    1
     4     4     5    1
     5     5     6   am
     6     6     7    2
     7     6     8    1
     8     8     9    1
     9     9    10    1
    10     9    11    1
    11    11    12    1
    12    12    13    1
    13    13    14    1
    14    14    15    1
    15    15    16    1
    16     8    17    1
    17    17    18   am
    18    18    19    2
    19    18    20    1
    20    20    21    1
    21    21    22    1
    22    22    23    1
    23    23    24    1
    24    24    25    1
    25    25    26   ar
    26    26    27   ar
    27    27    28   ar
    28    28    29    1
    29    29    30    1
    30    30    31   ar
    31    31    32   ar
    32    32    33   ar
    33    33    34    1
    34    34    35    2
    35    34    36    1
    36    33    37   ar
    37    37    38   ar
    38    28    39   ar
    39    39    40   ar
    40    23    41    1
    41    41    42    1
    42    20     5    1
    43    40    25   ar
    44    16    11    1
    45    42    20    1
    46    38    30   ar
    47     1    43    1
    48     1    44    1
    49     1    45    1
    50     2    46    1
    51     2    47    1
    52     3    48    1
    53     3    49    1
    54     4    50    1
    55     4    51    1
    56     8    52    1
    57     9    53    1
    58    10    54    1
    59    11    55    1
    60    12    56    1
    61    12    57    1
    62    13    58    1
    63    13    59    1
    64    14    60    1
    65    14    61    1
    66    15    62    1
    67    15    63    1
    68    16    64    1
    69    16    65    1
    70    17    66    1
    71    21    67    1
    72    21    68    1
    73    22    69    1
    74    22    70    1
    75    24    71    1
    76    24    72    1
    77    26    73    1
    78    27    74    1
    79    31    75    1
    80    32    76    1
    81    36    77    1
    82    37    78    1
    83    38    79    1
    84    39    80    1
    85    40    81    1
    86    41    82    1
    87    41    83    1
    88    42    84    1
    89    42    85    1
