@<TRIPOS>MOLECULE
*****
 46 47 0 0 0
SMALL
GASTEIGER

@<TRIPOS>ATOM
      1 C          -5.1346    0.8810   -1.2701 C.3     1  UNL1       -0.0122
      2 N          -4.1081    0.0009   -0.7271 N.3     1  UNL1       -0.2968
      3 C          -4.7735   -1.0497   -0.0388 C.3     1  UNL1       -0.0122
      4 C          -3.1043    0.7214   -0.0071 C.3     1  UNL1        0.0739
      5 C          -2.4736    1.7374   -0.9952 C.3     1  UNL1       -0.0398
      6 C          -3.6553    1.5120    1.1297 C.3     1  UNL1       -0.0398
      7 C          -2.0189   -0.2051    0.4604 C.ar    1  UNL1        0.1307
      8 N          -0.8226   -0.1899   -0.1173 N.ar    1  UNL1       -0.2235
      9 C           0.2399   -0.9747    0.2335 C.ar    1  UNL1        0.1740
     10 C           1.4950   -0.8365   -0.5015 C.2     1  UNL1        0.2665
     11 O           1.5080    0.0630   -1.4011 O.2     1  UNL1       -0.2684
     12 N           2.6640   -1.5795   -0.3216 N.am    1  UNL1       -0.3059
     13 C           3.8992   -1.4058   -1.0770 C.3     1  UNL1        0.0372
     14 C           4.6890   -0.2375   -0.6175 C.ar    1  UNL1       -0.0301
     15 C           4.5463    0.9693   -1.2546 C.ar    1  UNL1       -0.0544
     16 C           5.2548    2.0831   -0.8514 C.ar    1  UNL1       -0.0261
     17 C           6.1205    1.9978    0.2022 C.ar    1  UNL1        0.1234
     18 F           6.8302    3.0825    0.6175 F       1  UNL1       -0.2055
     19 C           6.2694    0.7862    0.8478 C.ar    1  UNL1       -0.0261
     20 C           5.5627   -0.3155    0.4425 C.ar    1  UNL1       -0.0544
     21 C           0.0381   -1.8469    1.2724 C.ar    1  UNL1        0.2128
     22 O           1.0482   -2.6924    1.7140 O.3     1  UNL1       -0.5006
     23 C          -1.2021   -1.8790    1.8897 C.ar    1  UNL1        0.2940
     24 O          -1.3946   -2.6795    2.8469 O.2     1  UNL1       -0.2638
     25 N          -2.1950   -1.0647    1.4744 N.ar    1  UNL1       -0.3063
     26 H          -5.8252    1.2372   -0.4802 H       1  UNL1        0.0391
     27 H          -5.7614    0.2331   -1.9493 H       1  UNL1        0.0391
     28 H          -4.7230    1.6755   -1.9047 H       1  UNL1        0.0391
     29 H          -5.2113   -0.7018    0.9115 H       1  UNL1        0.0391
     30 H          -4.1885   -1.9937    0.0548 H       1  UNL1        0.0391
     31 H          -5.6568   -1.3555   -0.6721 H       1  UNL1        0.0391
     32 H          -2.2937    1.2651   -1.9636 H       1  UNL1        0.0252
     33 H          -1.5028    2.0535   -0.5681 H       1  UNL1        0.0252
     34 H          -3.1431    2.6010   -1.0020 H       1  UNL1        0.0252
     35 H          -4.4087    0.9800    1.7312 H       1  UNL1        0.0252
     36 H          -4.0740    2.4662    0.6959 H       1  UNL1        0.0252
     37 H          -2.8102    1.7612    1.8277 H       1  UNL1        0.0252
     38 H           2.6793   -2.3160    0.3963 H       1  UNL1        0.1494
     39 H           3.6603   -1.3105   -2.1564 H       1  UNL1        0.0512
     40 H           4.5201   -2.3070   -0.9560 H       1  UNL1        0.0512
     41 H           3.8830    1.0975   -2.1023 H       1  UNL1        0.0622
     42 H           5.1169    3.0195   -1.3769 H       1  UNL1        0.0646
     43 H           6.9719    0.7501    1.6896 H       1  UNL1        0.0646
     44 H           5.6929   -1.2509    0.9585 H       1  UNL1        0.0622
     45 H           0.9226   -3.6951    1.7639 H       1  UNL1        0.2924
     46 H          -3.1311   -1.0874    1.9562 H       1  UNL1        0.1702
@<TRIPOS>BOND
     1     1     2    1
     2     2     3    1
     3     2     4    1
     4     4     5    1
     5     4     6    1
     6     4     7    1
     7     7     8   ar
     8     8     9   ar
     9     9    10    1
    10    10    11    2
    11    10    12   am
    12    12    13    1
    13    13    14    1
    14    14    15   ar
    15    15    16   ar
    16    16    17   ar
    17    17    18    1
    18    17    19   ar
    19    19    20   ar
    20     9    21   ar
    21    21    22    1
    22    21    23   ar
    23    23    24    2
    24    23    25   ar
    25    25     7   ar
    26    20    14   ar
    27     1    26    1
    28     1    27    1
    29     1    28    1
    30     3    29    1
    31     3    30    1
    32     3    31    1
    33     5    32    1
    34     5    33    1
    35     5    34    1
    36     6    35    1
    37     6    36    1
    38     6    37    1
    39    12    38    1
    40    13    39    1
    41    13    40    1
    42    15    41    1
    43    16    42    1
    44    19    43    1
    45    20    44    1
    46    22    45    1
    47    25    46    1
