@<TRIPOS>MOLECULE
*****
 57 60 0 0 0
SMALL
GASTEIGER

@<TRIPOS>ATOM
      1 C          -7.2081    0.3236   -2.5189 C.3     1  UNL1        0.0790
      2 O          -7.1874    0.0027   -1.1561 O.3     1  UNL1       -0.4914
      3 C          -5.9832   -0.1014   -0.4665 C.ar    1  UNL1        0.1618
      4 C          -4.7747    0.1056   -1.0930 C.ar    1  UNL1       -0.0124
      5 C          -3.5758    0.0083   -0.4329 C.ar    1  UNL1       -0.0325
      6 C          -3.5923   -0.3102    0.9121 C.ar    1  UNL1        0.0246
      7 C          -4.7980   -0.5251    1.5724 C.ar    1  UNL1       -0.0056
      8 C          -5.9993   -0.4194    0.8765 C.ar    1  UNL1        0.1622
      9 O          -7.2230   -0.6235    1.4872 O.3     1  UNL1       -0.4914
     10 C          -7.3539   -0.9520    2.8509 C.3     1  UNL1        0.0790
     11 C          -2.2182   -0.3574    1.3965 C.2     1  UNL1        0.1669
     12 O          -1.8921   -0.9021    2.4835 O.2     1  UNL1       -0.2917
     13 C          -1.3559    0.3321    0.3904 C.3     1  UNL1        0.0264
     14 C          -0.0426   -0.4002    0.3613 C.3     1  UNL1       -0.0399
     15 C           0.9304    0.2021   -0.6257 C.3     1  UNL1       -0.0381
     16 C           1.2571    1.6258   -0.3247 C.3     1  UNL1       -0.0373
     17 C           2.6254    1.9672   -0.8676 C.3     1  UNL1       -0.0005
     18 N           3.6763    1.2207   -0.2542 N.3     1  UNL1       -0.2981
     19 C           4.7253    0.8413   -1.1312 C.3     1  UNL1        0.0240
     20 C           5.8127    0.0694   -0.4813 C.ar    1  UNL1       -0.0334
     21 C           5.8258   -1.3066   -0.4400 C.ar    1  UNL1       -0.0573
     22 C           6.8528   -1.9623    0.1721 C.ar    1  UNL1       -0.0615
     23 C           7.8813   -1.2601    0.7517 C.ar    1  UNL1       -0.0617
     24 C           7.8792    0.1159    0.7167 C.ar    1  UNL1       -0.0615
     25 C           6.8543    0.7639    0.1061 C.ar    1  UNL1       -0.0573
     26 C           3.1322    0.0681    0.4144 C.3     1  UNL1       -0.0005
     27 C           2.1994   -0.6315   -0.5722 C.3     1  UNL1       -0.0373
     28 C          -2.1539    0.1790   -0.8619 C.3     1  UNL1       -0.0170
     29 H          -8.2688    0.5834   -2.7873 H       1  UNL1        0.0660
     30 H          -6.5394    1.2068   -2.6676 H       1  UNL1        0.0660
     31 H          -6.9082   -0.5281   -3.1602 H       1  UNL1        0.0660
     32 H          -4.7596    0.3549   -2.1451 H       1  UNL1        0.0658
     33 H          -4.8035   -0.7739    2.6244 H       1  UNL1        0.0662
     34 H          -7.0641   -0.0895    3.5099 H       1  UNL1        0.0660
     35 H          -8.4461   -1.1286    3.0458 H       1  UNL1        0.0660
     36 H          -6.7588   -1.8363    3.1287 H       1  UNL1        0.0660
     37 H          -1.2377    1.3875    0.7126 H       1  UNL1        0.0384
     38 H          -0.2494   -1.4410    0.0187 H       1  UNL1        0.0275
     39 H           0.3616   -0.4726    1.3713 H       1  UNL1        0.0275
     40 H           0.5261    0.0951   -1.6462 H       1  UNL1        0.0302
     41 H           0.5279    2.2671   -0.9004 H       1  UNL1        0.0280
     42 H           1.1245    1.9043    0.7312 H       1  UNL1        0.0280
     43 H           2.5894    1.8480   -1.9663 H       1  UNL1        0.0427
     44 H           2.7885    3.0506   -0.6514 H       1  UNL1        0.0427
     45 H           4.4018    0.2083   -2.0082 H       1  UNL1        0.0476
     46 H           5.1910    1.7383   -1.6478 H       1  UNL1        0.0476
     47 H           5.0269   -1.8774   -0.8896 H       1  UNL1        0.0621
     48 H           6.8820   -3.0609    0.2160 H       1  UNL1        0.0618
     49 H           8.6902   -1.7753    1.2338 H       1  UNL1        0.0618
     50 H           8.7047    0.6257    1.1832 H       1  UNL1        0.0618
     51 H           6.8703    1.8625    0.0884 H       1  UNL1        0.0621
     52 H           3.8750   -0.6347    0.8094 H       1  UNL1        0.0427
     53 H           2.5186    0.4869    1.2734 H       1  UNL1        0.0427
     54 H           1.9818   -1.6445   -0.1492 H       1  UNL1        0.0280
     55 H           2.6484   -0.6854   -1.5723 H       1  UNL1        0.0280
     56 H          -2.0981    1.0347   -1.5467 H       1  UNL1        0.0320
     57 H          -1.8688   -0.7796   -1.3562 H       1  UNL1        0.0320
@<TRIPOS>BOND
     1     1     2    1
     2     2     3    1
     3     3     4   ar
     4     4     5   ar
     5     5     6   ar
     6     6     7   ar
     7     7     8   ar
     8     8     9    1
     9     9    10    1
    10     6    11    1
    11    11    12    2
    12    11    13    1
    13    13    14    1
    14    14    15    1
    15    15    16    1
    16    16    17    1
    17    17    18    1
    18    18    19    1
    19    19    20    1
    20    20    21   ar
    21    21    22   ar
    22    22    23   ar
    23    23    24   ar
    24    24    25   ar
    25    18    26    1
    26    26    27    1
    27    13    28    1
    28     8     3   ar
    29    27    15    1
    30    28     5    1
    31    25    20   ar
    32     1    29    1
    33     1    30    1
    34     1    31    1
    35     4    32    1
    36     7    33    1
    37    10    34    1
    38    10    35    1
    39    10    36    1
    40    13    37    1
    41    14    38    1
    42    14    39    1
    43    15    40    1
    44    16    41    1
    45    16    42    1
    46    17    43    1
    47    17    44    1
    48    19    45    1
    49    19    46    1
    50    21    47    1
    51    22    48    1
    52    23    49    1
    53    24    50    1
    54    25    51    1
    55    26    52    1
    56    26    53    1
    57    27    54    1
    58    27    55    1
    59    28    56    1
    60    28    57    1
