
     RDKit          3D

 57 60  0  0  0  0  0  0  0  0999 V2000
   -7.2081    0.3236   -2.5189 C   0  0  0  0  0  0  0  0  0  0  0  0
   -7.1874    0.0027   -1.1561 O   0  0  0  0  0  0  0  0  0  0  0  0
   -5.9832   -0.1014   -0.4665 C   0  0  0  0  0  0  0  0  0  0  0  0
   -4.7747    0.1056   -1.0930 C   0  0  0  0  0  0  0  0  0  0  0  0
   -3.5758    0.0083   -0.4329 C   0  0  0  0  0  0  0  0  0  0  0  0
   -3.5923   -0.3102    0.9121 C   0  0  0  0  0  0  0  0  0  0  0  0
   -4.7980   -0.5251    1.5724 C   0  0  0  0  0  0  0  0  0  0  0  0
   -5.9993   -0.4194    0.8765 C   0  0  0  0  0  0  0  0  0  0  0  0
   -7.2230   -0.6235    1.4872 O   0  0  0  0  0  0  0  0  0  0  0  0
   -7.3539   -0.9520    2.8509 C   0  0  0  0  0  0  0  0  0  0  0  0
   -2.2182   -0.3574    1.3965 C   0  0  0  0  0  0  0  0  0  0  0  0
   -1.8921   -0.9021    2.4835 O   0  0  0  0  0  0  0  0  0  0  0  0
   -1.3559    0.3321    0.3904 C   0  0  0  0  0  0  0  0  0  0  0  0
   -0.0426   -0.4002    0.3613 C   0  0  0  0  0  0  0  0  0  0  0  0
    0.9304    0.2021   -0.6257 C   0  0  0  0  0  0  0  0  0  0  0  0
    1.2571    1.6258   -0.3247 C   0  0  0  0  0  0  0  0  0  0  0  0
    2.6254    1.9672   -0.8676 C   0  0  0  0  0  0  0  0  0  0  0  0
    3.6763    1.2207   -0.2542 N   0  0  0  0  0  0  0  0  0  0  0  0
    4.7253    0.8413   -1.1312 C   0  0  0  0  0  0  0  0  0  0  0  0
    5.8127    0.0694   -0.4813 C   0  0  0  0  0  0  0  0  0  0  0  0
    5.8258   -1.3066   -0.4400 C   0  0  0  0  0  0  0  0  0  0  0  0
    6.8528   -1.9623    0.1721 C   0  0  0  0  0  0  0  0  0  0  0  0
    7.8813   -1.2601    0.7517 C   0  0  0  0  0  0  0  0  0  0  0  0
    7.8792    0.1159    0.7167 C   0  0  0  0  0  0  0  0  0  0  0  0
    6.8543    0.7639    0.1061 C   0  0  0  0  0  0  0  0  0  0  0  0
    3.1322    0.0681    0.4144 C   0  0  0  0  0  0  0  0  0  0  0  0
    2.1994   -0.6315   -0.5722 C   0  0  0  0  0  0  0  0  0  0  0  0
   -2.1539    0.1790   -0.8619 C   0  0  0  0  0  0  0  0  0  0  0  0
   -8.2688    0.5834   -2.7873 H   0  0  0  0  0  0  0  0  0  0  0  0
   -6.5394    1.2068   -2.6676 H   0  0  0  0  0  0  0  0  0  0  0  0
   -6.9082   -0.5281   -3.1602 H   0  0  0  0  0  0  0  0  0  0  0  0
   -4.7596    0.3549   -2.1451 H   0  0  0  0  0  0  0  0  0  0  0  0
   -4.8035   -0.7739    2.6244 H   0  0  0  0  0  0  0  0  0  0  0  0
   -7.0641   -0.0895    3.5099 H   0  0  0  0  0  0  0  0  0  0  0  0
   -8.4461   -1.1286    3.0458 H   0  0  0  0  0  0  0  0  0  0  0  0
   -6.7588   -1.8363    3.1287 H   0  0  0  0  0  0  0  0  0  0  0  0
   -1.2377    1.3875    0.7126 H   0  0  0  0  0  0  0  0  0  0  0  0
   -0.2494   -1.4410    0.0187 H   0  0  0  0  0  0  0  0  0  0  0  0
    0.3616   -0.4726    1.3713 H   0  0  0  0  0  0  0  0  0  0  0  0
    0.5261    0.0951   -1.6462 H   0  0  0  0  0  0  0  0  0  0  0  0
    0.5279    2.2671   -0.9004 H   0  0  0  0  0  0  0  0  0  0  0  0
    1.1245    1.9043    0.7312 H   0  0  0  0  0  0  0  0  0  0  0  0
    2.5894    1.8480   -1.9663 H   0  0  0  0  0  0  0  0  0  0  0  0
    2.7885    3.0506   -0.6514 H   0  0  0  0  0  0  0  0  0  0  0  0
    4.4018    0.2083   -2.0082 H   0  0  0  0  0  0  0  0  0  0  0  0
    5.1910    1.7383   -1.6478 H   0  0  0  0  0  0  0  0  0  0  0  0
    5.0269   -1.8774   -0.8896 H   0  0  0  0  0  0  0  0  0  0  0  0
    6.8820   -3.0609    0.2160 H   0  0  0  0  0  0  0  0  0  0  0  0
    8.6902   -1.7753    1.2338 H   0  0  0  0  0  0  0  0  0  0  0  0
    8.7047    0.6257    1.1832 H   0  0  0  0  0  0  0  0  0  0  0  0
    6.8703    1.8625    0.0884 H   0  0  0  0  0  0  0  0  0  0  0  0
    3.8750   -0.6347    0.8094 H   0  0  0  0  0  0  0  0  0  0  0  0
    2.5186    0.4869    1.2734 H   0  0  0  0  0  0  0  0  0  0  0  0
    1.9818   -1.6445   -0.1492 H   0  0  0  0  0  0  0  0  0  0  0  0
    2.6484   -0.6854   -1.5723 H   0  0  0  0  0  0  0  0  0  0  0  0
   -2.0981    1.0347   -1.5467 H   0  0  0  0  0  0  0  0  0  0  0  0
   -1.8688   -0.7796   -1.3562 H   0  0  0  0  0  0  0  0  0  0  0  0
  1  2  1  0
  2  3  1  0
  3  4  2  0
  4  5  1  0
  5  6  2  0
  6  7  1  0
  7  8  2  0
  8  9  1  0
  9 10  1  0
  6 11  1  0
 11 12  2  0
 11 13  1  0
 13 14  1  0
 14 15  1  0
 15 16  1  0
 16 17  1  0
 17 18  1  0
 18 19  1  0
 19 20  1  0
 20 21  2  0
 21 22  1  0
 22 23  2  0
 23 24  1  0
 24 25  2  0
 18 26  1  0
 26 27  1  0
 13 28  1  0
  8  3  1  0
 27 15  1  0
 28  5  1  0
 25 20  1  0
  1 29  1  0
  1 30  1  0
  1 31  1  0
  4 32  1  0
  7 33  1  0
 10 34  1  0
 10 35  1  0
 10 36  1  0
 13 37  1  0
 14 38  1  0
 14 39  1  0
 15 40  1  0
 16 41  1  0
 16 42  1  0
 17 43  1  0
 17 44  1  0
 19 45  1  0
 19 46  1  0
 21 47  1  0
 22 48  1  0
 23 49  1  0
 24 50  1  0
 25 51  1  0
 26 52  1  0
 26 53  1  0
 27 54  1  0
 27 55  1  0
 28 56  1  0
 28 57  1  0
M  END
$$$$
