
     RDKit          3D

 16 15  0  0  0  0  0  0  0  0999 V2000
    2.4617   -0.7390    0.4909 N   0  0  0  0  0  0  0  0  0  0  0  0
    1.9665    0.4064   -0.2043 C   0  0  0  0  0  0  0  0  0  0  0  0
    0.4634    0.5843    0.0085 C   0  0  0  0  0  0  0  0  0  0  0  0
   -0.2208   -0.5375   -0.4591 O   0  0  0  0  0  0  0  0  0  0  0  0
   -1.8663   -0.2982   -0.2035 P   0  0  0  0  0  0  0  0  0  0  0  0
   -2.6319   -1.6738    0.4429 O   0  0  0  0  0  0  0  0  0  0  0  0
   -2.1553    0.9786    0.8955 O   0  0  0  0  0  0  0  0  0  0  0  0
   -2.4789    0.0446   -1.5611 O   0  0  0  0  0  0  0  0  0  0  0  0
    3.2876   -0.5568    1.0973 H   0  0  0  0  0  0  0  0  0  0  0  0
    2.5163   -1.6016   -0.0754 H   0  0  0  0  0  0  0  0  0  0  0  0
    2.1025    0.3577   -1.3021 H   0  0  0  0  0  0  0  0  0  0  0  0
    2.4778    1.3161    0.1606 H   0  0  0  0  0  0  0  0  0  0  0  0
    0.1604    1.4472   -0.6124 H   0  0  0  0  0  0  0  0  0  0  0  0
    0.2214    0.7829    1.0810 H   0  0  0  0  0  0  0  0  0  0  0  0
   -3.3685   -1.9959   -0.1584 H   0  0  0  0  0  0  0  0  0  0  0  0
   -2.9358    1.4852    0.5537 H   0  0  0  0  0  0  0  0  0  0  0  0
  1  2  1  0
  2  3  1  0
  3  4  1  0
  4  5  1  0
  5  6  1  0
  5  7  1  0
  5  8  2  0
  1  9  1  0
  1 10  1  0
  2 11  1  0
  2 12  1  0
  3 13  1  0
  3 14  1  0
  6 15  1  0
  7 16  1  0
M  END
$$$$
