@<TRIPOS>MOLECULE
*****
 16 15 0 0 0
SMALL
GASTEIGER

@<TRIPOS>ATOM
      1 N           2.4617   -0.7390    0.4909 N.3     1  UNL1       -0.3279
      2 C           1.9665    0.4064   -0.2043 C.3     1  UNL1        0.0172
      3 C           0.4634    0.5843    0.0085 C.3     1  UNL1        0.0713
      4 O          -0.2208   -0.5375   -0.4591 O.3     1  UNL1       -0.2855
      5 P          -1.8663   -0.2982   -0.2035 P.3     1  UNL1        0.4724
      6 O          -2.6319   -1.6738    0.4429 O.3     1  UNL1       -0.3026
      7 O          -2.1553    0.9786    0.8955 O.3     1  UNL1       -0.3026
      8 O          -2.4789    0.0446   -1.5611 O.2     1  UNL1       -0.2275
      9 H           3.2876   -0.5568    1.0973 H       1  UNL1        0.1183
     10 H           2.5163   -1.6016   -0.0754 H       1  UNL1        0.1183
     11 H           2.1025    0.3577   -1.3021 H       1  UNL1        0.0444
     12 H           2.4778    1.3161    0.1606 H       1  UNL1        0.0444
     13 H           0.1604    1.4472   -0.6124 H       1  UNL1        0.0578
     14 H           0.2214    0.7829    1.0810 H       1  UNL1        0.0578
     15 H          -3.3685   -1.9959   -0.1584 H       1  UNL1        0.2220
     16 H          -2.9358    1.4852    0.5537 H       1  UNL1        0.2220
@<TRIPOS>BOND
     1     1     2    1
     2     2     3    1
     3     3     4    1
     4     4     5    1
     5     5     6    1
     6     5     7    1
     7     5     8    2
     8     1     9    1
     9     1    10    1
    10     2    11    1
    11     2    12    1
    12     3    13    1
    13     3    14    1
    14     6    15    1
    15     7    16    1
