
     RDKit          3D

 29 30  0  0  0  0  0  0  0  0999 V2000
    5.7440   -1.2933   -0.1090 N   0  0  0  0  0  0  0  0  0  0  0  0
    4.5576   -0.6404   -1.1694 S   0  0  0  0  0  0  0  0  0  0  0  0
    5.2358    0.3225   -2.0945 O   0  0  0  0  0  0  0  0  0  0  0  0
    3.9636   -1.7298   -2.0490 O   0  0  0  0  0  0  0  0  0  0  0  0
    3.2820    0.1099   -0.3049 C   0  0  0  0  0  0  0  0  0  0  0  0
    3.0999    0.2463    1.0420 C   0  0  0  0  0  0  0  0  0  0  0  0
    1.9808    0.8973    1.4998 C   0  0  0  0  0  0  0  0  0  0  0  0
    1.0830    1.3894    0.6128 C   0  0  0  0  0  0  0  0  0  0  0  0
    1.8012    0.9394   -1.0249 S   0  0  0  0  0  0  0  0  0  0  0  0
   -0.3943    2.2341    0.6128 S   0  0  0  0  0  0  0  0  0  0  0  0
   -0.2051    3.5280   -0.1452 O   0  0  0  0  0  0  0  0  0  0  0  0
   -0.8155    2.6088    1.9972 O   0  0  0  0  0  0  0  0  0  0  0  0
   -1.6845    1.3824   -0.1441 N   0  0  0  0  0  0  0  0  0  0  0  0
   -2.0105    0.1400    0.4860 C   0  0  0  0  0  0  0  0  0  0  0  0
   -3.1057   -0.5080   -0.2163 C   0  0  0  0  0  0  0  0  0  0  0  0
   -4.4724   -0.4039   -0.0186 C   0  0  0  0  0  0  0  0  0  0  0  0
   -5.3212   -1.1205   -0.8154 C   0  0  0  0  0  0  0  0  0  0  0  0
   -4.7137   -1.9328   -1.8049 C   0  0  0  0  0  0  0  0  0  0  0  0
   -2.8618   -1.6165   -1.5346 S   0  0  0  0  0  0  0  0  0  0  0  0
    5.2875   -1.8730    0.6085 H   0  0  0  0  0  0  0  0  0  0  0  0
    6.4483   -1.8603   -0.6203 H   0  0  0  0  0  0  0  0  0  0  0  0
    3.8359   -0.1582    1.7258 H   0  0  0  0  0  0  0  0  0  0  0  0
    1.7194    1.0716    2.5314 H   0  0  0  0  0  0  0  0  0  0  0  0
   -2.4896    1.9721   -0.3659 H   0  0  0  0  0  0  0  0  0  0  0  0
   -2.3080    0.2495    1.5481 H   0  0  0  0  0  0  0  0  0  0  0  0
   -1.1357   -0.5374    0.4923 H   0  0  0  0  0  0  0  0  0  0  0  0
   -4.8212    0.2488    0.7689 H   0  0  0  0  0  0  0  0  0  0  0  0
   -6.3948   -1.0970   -0.7287 H   0  0  0  0  0  0  0  0  0  0  0  0
   -5.3048   -2.5692   -2.5216 H   0  0  0  0  0  0  0  0  0  0  0  0
  1  2  1  0
  2  3  2  0
  2  4  2  0
  2  5  1  0
  5  6  2  0
  6  7  1  0
  7  8  2  0
  8  9  1  0
  8 10  1  0
 10 11  2  0
 10 12  2  0
 10 13  1  0
 13 14  1  0
 14 15  1  0
 15 16  2  0
 16 17  1  0
 17 18  2  0
 18 19  1  0
  9  5  1  0
 19 15  1  0
  1 20  1  0
  1 21  1  0
  6 22  1  0
  7 23  1  0
 13 24  1  0
 14 25  1  0
 14 26  1  0
 16 27  1  0
 17 28  1  0
 18 29  1  0
M  END
$$$$
