@<TRIPOS>MOLECULE
*****
 29 30 0 0 0
SMALL
GASTEIGER

@<TRIPOS>ATOM
      1 N           5.7440   -1.2933   -0.1090 N.3     1  UNL1       -0.2030
      2 S           4.5576   -0.6404   -1.1694 S.O2    1  UNL1        0.0623
      3 O           5.2358    0.3225   -2.0945 O.2     1  UNL1       -0.1527
      4 O           3.9636   -1.7298   -2.0490 O.2     1  UNL1       -0.1527
      5 C           3.2820    0.1099   -0.3049 C.ar    1  UNL1        0.1440
      6 C           3.0999    0.2463    1.0420 C.ar    1  UNL1       -0.0262
      7 C           1.9808    0.8973    1.4998 C.ar    1  UNL1       -0.0261
      8 C           1.0830    1.3894    0.6128 C.ar    1  UNL1        0.1442
      9 S           1.8012    0.9394   -1.0249 S.2     1  UNL1       -0.0487
     10 S          -0.3943    2.2341    0.6128 S.O2    1  UNL1        0.0650
     11 O          -0.2051    3.5280   -0.1452 O.2     1  UNL1       -0.1525
     12 O          -0.8155    2.6088    1.9972 O.2     1  UNL1       -0.1525
     13 N          -1.6845    1.3824   -0.1441 N.3     1  UNL1       -0.1846
     14 C          -2.0105    0.1400    0.4860 C.3     1  UNL1        0.0487
     15 C          -3.1057   -0.5080   -0.2163 C.ar    1  UNL1        0.0052
     16 C          -4.4724   -0.4039   -0.0186 C.ar    1  UNL1       -0.0503
     17 C          -5.3212   -1.1205   -0.8154 C.ar    1  UNL1       -0.0544
     18 C          -4.7137   -1.9328   -1.8049 C.ar    1  UNL1       -0.0240
     19 S          -2.8618   -1.6165   -1.5346 S.2     1  UNL1       -0.1003
     20 H           5.2875   -1.8730    0.6085 H       1  UNL1        0.1443
     21 H           6.4483   -1.8603   -0.6203 H       1  UNL1        0.1443
     22 H           3.8359   -0.1582    1.7258 H       1  UNL1        0.0643
     23 H           1.7194    1.0716    2.5314 H       1  UNL1        0.0643
     24 H          -2.4896    1.9721   -0.3659 H       1  UNL1        0.1484
     25 H          -2.3080    0.2495    1.5481 H       1  UNL1        0.0496
     26 H          -1.1357   -0.5374    0.4923 H       1  UNL1        0.0496
     27 H          -4.8212    0.2488    0.7689 H       1  UNL1        0.0626
     28 H          -6.3948   -1.0970   -0.7287 H       1  UNL1        0.0623
     29 H          -5.3048   -2.5692   -2.5216 H       1  UNL1        0.0693
@<TRIPOS>BOND
     1     1     2    1
     2     2     3    2
     3     2     4    2
     4     2     5    1
     5     5     6   ar
     6     6     7   ar
     7     7     8   ar
     8     8     9   ar
     9     8    10    1
    10    10    11    2
    11    10    12    2
    12    10    13    1
    13    13    14    1
    14    14    15    1
    15    15    16   ar
    16    16    17   ar
    17    17    18   ar
    18    18    19   ar
    19     9     5   ar
    20    19    15   ar
    21     1    20    1
    22     1    21    1
    23     6    22    1
    24     7    23    1
    25    13    24    1
    26    14    25    1
    27    14    26    1
    28    16    27    1
    29    17    28    1
    30    18    29    1
