@<TRIPOS>MOLECULE
*****
 39 42 0 0 0
SMALL
GASTEIGER

@<TRIPOS>ATOM
      1 C           3.8810   -1.2591    0.5189 C.3     1  UNL1       -0.0532
      2 C           3.3847    0.1546    0.3606 C.3     1  UNL1        0.0202
      3 C           4.0208    0.7610   -0.8759 C.3     1  UNL1       -0.0532
      4 C           3.7251    0.9382    1.5920 C.3     1  UNL1       -0.0532
      5 C           1.8917    0.1146    0.2125 C.ar    1  UNL1        0.1136
      6 N           1.0654    1.1828    0.0472 N.ar    1  UNL1       -0.2313
      7 C          -0.2014    0.7497   -0.0481 C.ar    1  UNL1        0.0974
      8 C          -1.4535    1.3487   -0.2207 C.ar    1  UNL1        0.0105
      9 C          -1.4031    2.7299   -0.3211 C.ar    1  UNL1       -0.0492
     10 C          -2.6213    3.3516   -0.4919 C.ar    1  UNL1       -0.0258
     11 C          -3.8480    2.6829   -0.5651 C.ar    1  UNL1        0.1240
     12 F          -4.9687    3.4450   -0.7368 F       1  UNL1       -0.2055
     13 C          -3.7991    1.3100   -0.4553 C.ar    1  UNL1       -0.0179
     14 C          -2.6178    0.6422   -0.2846 C.ar    1  UNL1       -0.0001
     15 C          -2.5746   -0.7006   -0.1777 C.ar    1  UNL1        0.0563
     16 C          -3.7280   -1.4349   -0.2384 C.ar    1  UNL1        0.2571
     17 O          -4.8988   -1.0402   -0.3872 O.2     1  UNL1       -0.2672
     18 N          -3.6980   -2.7745   -0.1331 N.ar    1  UNL1       -0.3286
     19 C          -2.4786   -3.3608    0.0352 C.ar    1  UNL1        0.0056
     20 C          -1.2754   -2.6910    0.1059 C.ar    1  UNL1       -0.0357
     21 C          -1.3614   -1.3123   -0.0081 C.ar    1  UNL1        0.0147
     22 C          -0.1725   -0.6190    0.0594 C.ar    1  UNL1        0.0749
     23 N           1.1043   -0.9912    0.2172 N.ar    1  UNL1       -0.3409
     24 H           3.8431   -1.8399   -0.4075 H       1  UNL1        0.0239
     25 H           3.2081   -1.7554    1.2749 H       1  UNL1        0.0239
     26 H           4.9204   -1.2139    0.9477 H       1  UNL1        0.0239
     27 H           3.8398    0.0520   -1.7172 H       1  UNL1        0.0239
     28 H           3.4881    1.6924   -1.1352 H       1  UNL1        0.0239
     29 H           5.0877    0.8764   -0.6799 H       1  UNL1        0.0239
     30 H           4.7199    0.6174    1.9648 H       1  UNL1        0.0239
     31 H           2.9639    0.7429    2.3749 H       1  UNL1        0.0239
     32 H           3.6938    2.0366    1.3825 H       1  UNL1        0.0239
     33 H          -0.4868    3.3000   -0.2718 H       1  UNL1        0.0625
     34 H          -2.6072    4.4387   -0.5735 H       1  UNL1        0.0646
     35 H          -4.7854    0.9126   -0.5248 H       1  UNL1        0.0652
     36 H          -4.5118   -3.4392   -0.1647 H       1  UNL1        0.1683
     37 H          -2.4132   -4.4451    0.1247 H       1  UNL1        0.0808
     38 H          -0.3505   -3.2228    0.2402 H       1  UNL1        0.0639
     39 H           1.4171   -1.9803    0.3244 H       1  UNL1        0.1671
@<TRIPOS>BOND
     1     1     2    1
     2     2     3    1
     3     2     4    1
     4     2     5    1
     5     5     6   ar
     6     6     7   ar
     7     7     8   ar
     8     8     9   ar
     9     9    10   ar
    10    10    11   ar
    11    11    12    1
    12    11    13   ar
    13    13    14   ar
    14    14    15   ar
    15    15    16   ar
    16    16    17    2
    17    16    18   ar
    18    18    19   ar
    19    19    20   ar
    20    20    21   ar
    21    21    22   ar
    22    22    23   ar
    23    23     5   ar
    24    22     7   ar
    25    14     8   ar
    26    21    15   ar
    27     1    24    1
    28     1    25    1
    29     1    26    1
    30     3    27    1
    31     3    28    1
    32     3    29    1
    33     4    30    1
    34     4    31    1
    35     4    32    1
    36     9    33    1
    37    10    34    1
    38    13    35    1
    39    18    36    1
    40    19    37    1
    41    20    38    1
    42    23    39    1
