@<TRIPOS>MOLECULE
*****
 48 52 0 0 0
SMALL
GASTEIGER

@<TRIPOS>ATOM
      1 C          -4.4620   -3.1562    2.0852 C.3     1  UNL1       -0.0223
      2 C          -3.8280   -2.5790    0.8574 C.ar    1  UNL1        0.0390
      3 C          -4.4159   -2.7341   -0.3879 C.ar    1  UNL1       -0.0406
      4 C          -3.7986   -2.1829   -1.4905 C.ar    1  UNL1       -0.0580
      5 C          -2.6038   -1.4849   -1.3370 C.ar    1  UNL1       -0.0342
      6 C          -2.0319   -1.3378   -0.1004 C.ar    1  UNL1        0.0895
      7 C          -0.7825   -0.5997    0.1180 C.ar    1  UNL1        0.0926
      8 N           0.4196   -1.1522    0.3811 N.ar    1  UNL1       -0.3389
      9 C           1.3512   -0.2030    0.5238 C.ar    1  UNL1        0.1254
     10 C           2.7983   -0.3521    0.8173 C.3     1  UNL1        0.0673
     11 N           3.5356   -0.4515   -0.4238 N.pl3   1  UNL1       -0.3345
     12 C           4.9669   -0.5776   -0.3565 C.ar    1  UNL1        0.0631
     13 C           5.6280   -0.6011    0.8463 C.ar    1  UNL1       -0.0380
     14 C           7.0059   -0.7201    0.8576 C.ar    1  UNL1       -0.0598
     15 C           7.6854   -0.8126   -0.3394 C.ar    1  UNL1       -0.0589
     16 C           7.0023   -0.7873   -1.5486 C.ar    1  UNL1       -0.0246
     17 C           5.6429   -0.6698   -1.5523 C.ar    1  UNL1        0.1441
     18 F           4.9398   -0.6414   -2.7282 F       1  UNL1       -0.2036
     19 N           0.7291    0.9718    0.3484 N.ar    1  UNL1       -0.2302
     20 C          -0.5923    0.7683    0.0955 C.ar    1  UNL1        0.0998
     21 C          -1.5907    1.7905   -0.1440 C.ar    1  UNL1        0.0208
     22 C          -2.1471    1.9069   -1.3894 C.ar    1  UNL1       -0.0475
     23 C          -3.1021    2.8922   -1.5736 C.ar    1  UNL1       -0.0167
     24 C          -3.4981    3.7369   -0.5668 C.ar    1  UNL1        0.1557
     25 N          -4.3846    4.7414   -0.5156 N.ar    1  UNL1       -0.2149
     26 C          -4.3981    5.2584    0.7300 C.ar    1  UNL1        0.1390
     27 N          -3.4977    4.5424    1.4323 N.ar    1  UNL1       -0.1535
     28 N          -2.9416    3.6086    0.6471 N.ar    1  UNL1       -0.2198
     29 C          -2.0131    2.6551    0.8381 C.ar    1  UNL1        0.0407
     30 N          -2.6855   -1.9029    0.9509 N.ar    1  UNL1       -0.2503
     31 H          -5.5111   -3.4494    1.9000 H       1  UNL1        0.0292
     32 H          -4.4512   -2.3646    2.8705 H       1  UNL1        0.0292
     33 H          -3.8127   -3.9756    2.4305 H       1  UNL1        0.0292
     34 H          -5.3429   -3.2878   -0.4232 H       1  UNL1        0.0635
     35 H          -4.2661   -2.3113   -2.4621 H       1  UNL1        0.0619
     36 H          -2.1439   -1.0698   -2.2115 H       1  UNL1        0.0639
     37 H           0.5527   -2.1864    0.4539 H       1  UNL1        0.1672
     38 H           3.0131   -1.2984    1.3876 H       1  UNL1        0.0541
     39 H           3.1765    0.4986    1.4252 H       1  UNL1        0.0541
     40 H           3.0304   -0.4304   -1.3320 H       1  UNL1        0.1466
     41 H           5.0626   -0.5274    1.7572 H       1  UNL1        0.0637
     42 H           7.5509   -0.7399    1.8044 H       1  UNL1        0.0618
     43 H           8.7585   -0.9047   -0.3175 H       1  UNL1        0.0618
     44 H           7.5087   -0.8572   -2.5000 H       1  UNL1        0.0647
     45 H          -1.8927    1.2893   -2.2369 H       1  UNL1        0.0626
     46 H          -3.5529    2.9993   -2.5583 H       1  UNL1        0.0655
     47 H          -5.0119    6.0818    1.0832 H       1  UNL1        0.1066
     48 H          -1.5995    2.6078    1.8542 H       1  UNL1        0.0837
@<TRIPOS>BOND
     1     1     2    1
     2     2     3   ar
     3     3     4   ar
     4     4     5   ar
     5     5     6   ar
     6     6     7    1
     7     7     8   ar
     8     8     9   ar
     9     9    10    1
    10    10    11    1
    11    11    12    1
    12    12    13   ar
    13    13    14   ar
    14    14    15   ar
    15    15    16   ar
    16    16    17   ar
    17    17    18    1
    18     9    19   ar
    19    19    20   ar
    20    20    21    1
    21    21    22   ar
    22    22    23   ar
    23    23    24   ar
    24    24    25   ar
    25    25    26   ar
    26    26    27   ar
    27    27    28   ar
    28    28    29   ar
    29     6    30   ar
    30    30     2   ar
    31    20     7   ar
    32    29    21   ar
    33    17    12   ar
    34    28    24   ar
    35     1    31    1
    36     1    32    1
    37     1    33    1
    38     3    34    1
    39     4    35    1
    40     5    36    1
    41     8    37    1
    42    10    38    1
    43    10    39    1
    44    11    40    1
    45    13    41    1
    46    14    42    1
    47    15    43    1
    48    16    44    1
    49    22    45    1
    50    23    46    1
    51    26    47    1
    52    29    48    1
