
     RDKit          3D

 48 52  0  0  0  0  0  0  0  0999 V2000
   -4.4620   -3.1562    2.0852 C   0  0  0  0  0  0  0  0  0  0  0  0
   -3.8280   -2.5790    0.8574 C   0  0  0  0  0  0  0  0  0  0  0  0
   -4.4159   -2.7341   -0.3879 C   0  0  0  0  0  0  0  0  0  0  0  0
   -3.7986   -2.1829   -1.4905 C   0  0  0  0  0  0  0  0  0  0  0  0
   -2.6038   -1.4849   -1.3370 C   0  0  0  0  0  0  0  0  0  0  0  0
   -2.0319   -1.3378   -0.1004 C   0  0  0  0  0  0  0  0  0  0  0  0
   -0.7825   -0.5997    0.1180 C   0  0  0  0  0  0  0  0  0  0  0  0
    0.4196   -1.1522    0.3811 N   0  0  0  0  0  0  0  0  0  0  0  0
    1.3512   -0.2030    0.5238 C   0  0  0  0  0  0  0  0  0  0  0  0
    2.7983   -0.3521    0.8173 C   0  0  0  0  0  0  0  0  0  0  0  0
    3.5356   -0.4515   -0.4238 N   0  0  0  0  0  0  0  0  0  0  0  0
    4.9669   -0.5776   -0.3565 C   0  0  0  0  0  0  0  0  0  0  0  0
    5.6280   -0.6011    0.8463 C   0  0  0  0  0  0  0  0  0  0  0  0
    7.0059   -0.7201    0.8576 C   0  0  0  0  0  0  0  0  0  0  0  0
    7.6854   -0.8126   -0.3394 C   0  0  0  0  0  0  0  0  0  0  0  0
    7.0023   -0.7873   -1.5486 C   0  0  0  0  0  0  0  0  0  0  0  0
    5.6429   -0.6698   -1.5523 C   0  0  0  0  0  0  0  0  0  0  0  0
    4.9398   -0.6414   -2.7282 F   0  0  0  0  0  0  0  0  0  0  0  0
    0.7291    0.9718    0.3484 N   0  0  0  0  0  0  0  0  0  0  0  0
   -0.5923    0.7683    0.0955 C   0  0  0  0  0  0  0  0  0  0  0  0
   -1.5907    1.7905   -0.1440 C   0  0  0  0  0  0  0  0  0  0  0  0
   -2.1471    1.9069   -1.3894 C   0  0  0  0  0  0  0  0  0  0  0  0
   -3.1021    2.8922   -1.5736 C   0  0  0  0  0  0  0  0  0  0  0  0
   -3.4981    3.7369   -0.5668 C   0  0  0  0  0  0  0  0  0  0  0  0
   -4.3846    4.7414   -0.5156 N   0  0  0  0  0  0  0  0  0  0  0  0
   -4.3981    5.2584    0.7300 C   0  0  0  0  0  0  0  0  0  0  0  0
   -3.4977    4.5424    1.4323 N   0  0  0  0  0  0  0  0  0  0  0  0
   -2.9416    3.6086    0.6471 N   0  0  0  0  0  0  0  0  0  0  0  0
   -2.0131    2.6551    0.8381 C   0  0  0  0  0  0  0  0  0  0  0  0
   -2.6855   -1.9029    0.9509 N   0  0  0  0  0  0  0  0  0  0  0  0
   -5.5111   -3.4494    1.9000 H   0  0  0  0  0  0  0  0  0  0  0  0
   -4.4512   -2.3646    2.8705 H   0  0  0  0  0  0  0  0  0  0  0  0
   -3.8127   -3.9756    2.4305 H   0  0  0  0  0  0  0  0  0  0  0  0
   -5.3429   -3.2878   -0.4232 H   0  0  0  0  0  0  0  0  0  0  0  0
   -4.2661   -2.3113   -2.4621 H   0  0  0  0  0  0  0  0  0  0  0  0
   -2.1439   -1.0698   -2.2115 H   0  0  0  0  0  0  0  0  0  0  0  0
    0.5527   -2.1864    0.4539 H   0  0  0  0  0  0  0  0  0  0  0  0
    3.0131   -1.2984    1.3876 H   0  0  0  0  0  0  0  0  0  0  0  0
    3.1765    0.4986    1.4252 H   0  0  0  0  0  0  0  0  0  0  0  0
    3.0304   -0.4304   -1.3320 H   0  0  0  0  0  0  0  0  0  0  0  0
    5.0626   -0.5274    1.7572 H   0  0  0  0  0  0  0  0  0  0  0  0
    7.5509   -0.7399    1.8044 H   0  0  0  0  0  0  0  0  0  0  0  0
    8.7585   -0.9047   -0.3175 H   0  0  0  0  0  0  0  0  0  0  0  0
    7.5087   -0.8572   -2.5000 H   0  0  0  0  0  0  0  0  0  0  0  0
   -1.8927    1.2893   -2.2369 H   0  0  0  0  0  0  0  0  0  0  0  0
   -3.5529    2.9993   -2.5583 H   0  0  0  0  0  0  0  0  0  0  0  0
   -5.0119    6.0818    1.0832 H   0  0  0  0  0  0  0  0  0  0  0  0
   -1.5995    2.6078    1.8542 H   0  0  0  0  0  0  0  0  0  0  0  0
  1  2  1  0
  2  3  2  0
  3  4  1  0
  4  5  2  0
  5  6  1  0
  6  7  1  0
  7  8  1  0
  8  9  1  0
  9 10  1  0
 10 11  1  0
 11 12  1  0
 12 13  2  0
 13 14  1  0
 14 15  2  0
 15 16  1  0
 16 17  2  0
 17 18  1  0
  9 19  2  0
 19 20  1  0
 20 21  1  0
 21 22  1  0
 22 23  2  0
 23 24  1  0
 24 25  2  0
 25 26  1  0
 26 27  2  0
 27 28  1  0
 28 29  1  0
  6 30  2  0
 30  2  1  0
 20  7  2  0
 29 21  2  0
 17 12  1  0
 28 24  1  0
  1 31  1  0
  1 32  1  0
  1 33  1  0
  3 34  1  0
  4 35  1  0
  5 36  1  0
  8 37  1  0
 10 38  1  0
 10 39  1  0
 11 40  1  0
 13 41  1  0
 14 42  1  0
 15 43  1  0
 16 44  1  0
 22 45  1  0
 23 46  1  0
 26 47  1  0
 29 48  1  0
M  END
$$$$
