@<TRIPOS>MOLECULE
*****
 52 55 0 0 0
SMALL
GASTEIGER

@<TRIPOS>ATOM
      1 N           1.5568    3.0471   -3.1244 N.am    1  UNL1       -0.3240
      2 C           1.5554    1.7458   -2.5693 C.2     1  UNL1        0.2635
      3 O           2.5172    0.9832   -2.8098 O.2     1  UNL1       -0.2686
      4 C           0.4413    1.2828   -1.7171 C.ar    1  UNL1        0.1685
      5 N          -0.6613    2.0668   -1.5923 N.ar    1  UNL1       -0.1409
      6 N          -1.7229    1.7181   -0.9032 N.ar    1  UNL1       -0.1336
      7 C          -1.8235    0.5322   -0.2439 C.ar    1  UNL1        0.1433
      8 N          -3.0026    0.2337    0.4937 N.pl3   1  UNL1       -0.3233
      9 C          -3.2853   -0.9703    1.1951 C.3     1  UNL1        0.0371
     10 C          -3.5067   -2.0934    0.2064 C.3     1  UNL1       -0.0331
     11 C          -4.4556   -1.5117   -0.8498 C.3     1  UNL1       -0.0513
     12 C          -5.8035   -1.2704   -0.2107 C.3     1  UNL1       -0.0515
     13 C          -5.7382   -0.4792    1.0538 C.3     1  UNL1       -0.0360
     14 C          -4.5994   -0.8537    1.9618 C.3     1  UNL1        0.0234
     15 N          -4.4113    0.1483    2.9718 N.3     1  UNL1       -0.3257
     16 C          -0.7280   -0.2807   -0.3483 C.ar    1  UNL1        0.0034
     17 C           0.4190    0.0731   -1.0799 C.ar    1  UNL1        0.0683
     18 N           1.5164   -0.8219   -1.1484 N.pl3   1  UNL1       -0.2975
     19 C           2.8052   -0.5946   -0.6164 C.ar    1  UNL1        0.1232
     20 C           3.8023   -1.5195   -0.8437 C.ar    1  UNL1       -0.0213
     21 C           5.0755   -1.3794   -0.3411 C.ar    1  UNL1       -0.0536
     22 C           5.3522   -0.2653    0.4187 C.ar    1  UNL1       -0.0259
     23 C           4.3704    0.6699    0.6572 C.ar    1  UNL1        0.0466
     24 N           3.1467    0.4671    0.1332 N.ar    1  UNL1       -0.2366
     25 C           4.9412    1.7768    1.5081 C.3     1  UNL1       -0.0098
     26 C           6.4257    1.6049    1.3242 C.3     1  UNL1       -0.0436
     27 C           6.6170    0.1393    1.0787 C.3     1  UNL1       -0.0256
     28 H           0.6622    3.5473   -3.2707 H       1  UNL1        0.1453
     29 H           2.4477    3.5076   -3.3872 H       1  UNL1        0.1453
     30 H          -3.7677    0.9826    0.5348 H       1  UNL1        0.1478
     31 H          -2.5117   -1.2360    1.9507 H       1  UNL1        0.0513
     32 H          -4.1377   -2.9011    0.6949 H       1  UNL1        0.0284
     33 H          -2.6194   -2.5146   -0.2422 H       1  UNL1        0.0284
     34 H          -4.0410   -0.6283   -1.3332 H       1  UNL1        0.0266
     35 H          -4.5898   -2.2991   -1.6183 H       1  UNL1        0.0266
     36 H          -6.3819   -0.6470   -0.9522 H       1  UNL1        0.0266
     37 H          -6.3338   -2.2186   -0.0451 H       1  UNL1        0.0266
     38 H          -6.6821   -0.6962    1.6271 H       1  UNL1        0.0281
     39 H          -5.7882    0.6317    0.8682 H       1  UNL1        0.0281
     40 H          -4.8554   -1.8005    2.4556 H       1  UNL1        0.0476
     41 H          -5.1596    0.0772    3.6717 H       1  UNL1        0.1185
     42 H          -4.4287    1.1182    2.5805 H       1  UNL1        0.1185
     43 H          -0.7340   -1.2223    0.1553 H       1  UNL1        0.0672
     44 H           1.3337   -1.7211   -1.6393 H       1  UNL1        0.1536
     45 H           3.5934   -2.3892   -1.4341 H       1  UNL1        0.0652
     46 H           5.8497   -2.1305   -0.5374 H       1  UNL1        0.0622
     47 H           4.6036    1.7263    2.5450 H       1  UNL1        0.0328
     48 H           4.6805    2.7659    1.0509 H       1  UNL1        0.0328
     49 H           6.7895    2.1817    0.4268 H       1  UNL1        0.0272
     50 H           6.9963    1.9351    2.2223 H       1  UNL1        0.0272
     51 H           7.5052   -0.0717    0.4209 H       1  UNL1        0.0314
     52 H           6.7655   -0.4466    2.0151 H       1  UNL1        0.0314
@<TRIPOS>BOND
     1     1     2   am
     2     2     3    2
     3     2     4    1
     4     4     5   ar
     5     5     6   ar
     6     6     7   ar
     7     7     8    1
     8     8     9    1
     9     9    10    1
    10    10    11    1
    11    11    12    1
    12    12    13    1
    13    13    14    1
    14    14    15    1
    15     7    16   ar
    16    16    17   ar
    17    17    18    1
    18    18    19    1
    19    19    20   ar
    20    20    21   ar
    21    21    22   ar
    22    22    23   ar
    23    23    24   ar
    24    23    25    1
    25    25    26    1
    26    26    27    1
    27    17     4   ar
    28    24    19   ar
    29    14     9    1
    30    27    22    1
    31     1    28    1
    32     1    29    1
    33     8    30    1
    34     9    31    1
    35    10    32    1
    36    10    33    1
    37    11    34    1
    38    11    35    1
    39    12    36    1
    40    12    37    1
    41    13    38    1
    42    13    39    1
    43    14    40    1
    44    15    41    1
    45    15    42    1
    46    16    43    1
    47    18    44    1
    48    20    45    1
    49    21    46    1
    50    25    47    1
    51    25    48    1
    52    26    49    1
    53    26    50    1
    54    27    51    1
    55    27    52    1
