
     RDKit          3D

 46 49  0  0  0  0  0  0  0  0999 V2000
    4.9632    0.1922    0.7663 C   0  0  0  0  0  0  0  0  0  0  0  0
    4.7887    0.7828   -0.5801 C   0  0  0  0  0  0  0  0  0  0  0  0
    5.9143    0.9196   -1.3738 C   0  0  0  0  0  0  0  0  0  0  0  0
    5.8412    1.4623   -2.6471 C   0  0  0  0  0  0  0  0  0  0  0  0
    6.9944    1.6136   -3.4873 C   0  0  0  0  0  0  0  0  0  0  0  0
    7.9303    1.7243   -4.1619 N   0  0  0  0  0  0  0  0  0  0  0  0
    4.5937    1.8626   -3.0930 C   0  0  0  0  0  0  0  0  0  0  0  0
    3.5262    1.7178   -2.3039 N   0  0  0  0  0  0  0  0  0  0  0  0
    3.5735    1.1953   -1.0685 C   0  0  0  0  0  0  0  0  0  0  0  0
    2.3750    1.0652   -0.2601 C   0  0  0  0  0  0  0  0  0  0  0  0
    2.4494    0.5728    0.8929 O   0  0  0  0  0  0  0  0  0  0  0  0
    1.0881    1.4913   -0.7522 N   0  0  0  0  0  0  0  0  0  0  0  0
   -0.0696    1.3618    0.0379 C   0  0  0  0  0  0  0  0  0  0  0  0
   -0.4407    2.3928    0.8745 C   0  0  0  0  0  0  0  0  0  0  0  0
   -1.5702    2.2384    1.6300 C   0  0  0  0  0  0  0  0  0  0  0  0
   -2.0801    3.5137    2.7028 Cl  0  0  0  0  0  0  0  0  0  0  0  0
   -2.3094    1.0805    1.5496 C   0  0  0  0  0  0  0  0  0  0  0  0
   -3.4158    0.9887    2.3215 F   0  0  0  0  0  0  0  0  0  0  0  0
   -1.9668    0.0353    0.7264 C   0  0  0  0  0  0  0  0  0  0  0  0
   -2.7911   -1.2276    0.6589 C   0  0  1  0  0  0  0  0  0  0  0  0
   -2.0756   -2.2234   -0.2639 C   0  0  0  0  0  0  0  0  0  0  0  0
   -2.7575   -3.4144   -0.3729 F   0  0  0  0  0  0  0  0  0  0  0  0
   -2.7984   -1.7950    1.9638 N   0  0  0  0  0  0  0  0  0  0  0  0
   -3.8180   -1.9486    2.7176 C   0  0  0  0  0  0  0  0  0  0  0  0
   -3.6117   -2.5401    3.9937 N   0  0  0  0  0  0  0  0  0  0  0  0
   -5.0512   -1.5428    2.2713 O   0  0  0  0  0  0  0  0  0  0  0  0
   -5.2790   -1.0357    0.9768 C   0  0  2  0  0  0  0  0  0  0  0  0
   -5.0947   -2.0462   -0.1107 C   0  0  0  0  0  0  0  0  0  0  0  0
   -4.1257   -0.9447    0.0833 C   0  0  2  0  0  0  0  0  0  0  0  0
   -0.8227    0.2006   -0.0339 C   0  0  0  0  0  0  0  0  0  0  0  0
    6.0219   -0.0914    0.9413 H   0  0  0  0  0  0  0  0  0  0  0  0
    4.3670   -0.7455    0.9085 H   0  0  0  0  0  0  0  0  0  0  0  0
    4.6519    0.8964    1.5730 H   0  0  0  0  0  0  0  0  0  0  0  0
    6.8827    0.6112   -1.0333 H   0  0  0  0  0  0  0  0  0  0  0  0
    4.5331    2.2854   -4.0834 H   0  0  0  0  0  0  0  0  0  0  0  0
    1.1044    1.8923   -1.7230 H   0  0  0  0  0  0  0  0  0  0  0  0
    0.1698    3.3109    0.9202 H   0  0  0  0  0  0  0  0  0  0  0  0
   -2.0191   -1.8141   -1.2981 H   0  0  0  0  0  0  0  0  0  0  0  0
   -1.0598   -2.4422    0.0660 H   0  0  0  0  0  0  0  0  0  0  0  0
   -3.3278   -3.5350    4.1165 H   0  0  0  0  0  0  0  0  0  0  0  0
   -3.7521   -1.9474    4.8394 H   0  0  0  0  0  0  0  0  0  0  0  0
   -6.0725   -0.2672    0.8789 H   0  0  0  0  0  0  0  0  0  0  0  0
   -5.8726   -1.9846   -0.9053 H   0  0  0  0  0  0  0  0  0  0  0  0
   -4.9025   -3.0935    0.1859 H   0  0  0  0  0  0  0  0  0  0  0  0
   -4.1530   -0.1538   -0.6977 H   0  0  0  0  0  0  0  0  0  0  0  0
   -0.5314   -0.6147   -0.6900 H   0  0  0  0  0  0  0  0  0  0  0  0
  1  2  1  0
  2  3  2  0
  3  4  1  0
  4  5  1  0
  5  6  3  0
  4  7  2  0
  7  8  1  0
  8  9  2  0
  9 10  1  0
 10 11  2  0
 10 12  1  0
 12 13  1  0
 13 14  2  0
 14 15  1  0
 15 16  1  0
 15 17  2  0
 17 18  1  0
 17 19  1  0
 19 20  1  0
 20 21  1  6
 21 22  1  0
 20 23  1  0
 23 24  2  0
 24 25  1  0
 24 26  1  0
 26 27  1  0
 27 28  1  0
 28 29  1  0
 19 30  2  0
  9  2  1  0
 30 13  1  0
 29 20  1  0
 29 27  1  0
  1 31  1  0
  1 32  1  0
  1 33  1  0
  3 34  1  0
  7 35  1  0
 12 36  1  0
 14 37  1  0
 21 38  1  0
 21 39  1  0
 25 40  1  0
 25 41  1  0
 27 42  1  1
 28 43  1  0
 28 44  1  0
 29 45  1  6
 30 46  1  0
M  END
$$$$
