@<TRIPOS>MOLECULE
*****
 46 49 0 0 0
SMALL
GASTEIGER

@<TRIPOS>ATOM
      1 C           4.9632    0.1922    0.7663 C.3     1  UNL1       -0.0375
      2 C           4.7887    0.7828   -0.5801 C.ar    1  UNL1       -0.0187
      3 C           5.9143    0.9196   -1.3738 C.ar    1  UNL1       -0.0378
      4 C           5.8412    1.4623   -2.6471 C.ar    1  UNL1        0.0701
      5 C           6.9944    1.6136   -3.4873 C.1     1  UNL1        0.1007
      6 N           7.9303    1.7243   -4.1619 N.1     1  UNL1       -0.1908
      7 C           4.5937    1.8626   -3.0930 C.ar    1  UNL1        0.0458
      8 N           3.5262    1.7178   -2.3039 N.ar    1  UNL1       -0.2488
      9 C           3.5735    1.1953   -1.0685 C.ar    1  UNL1        0.1286
     10 C           2.3750    1.0652   -0.2601 C.2     1  UNL1        0.2668
     11 O           2.4494    0.5728    0.8929 O.2     1  UNL1       -0.2682
     12 N           1.0881    1.4913   -0.7522 N.am    1  UNL1       -0.2802
     13 C          -0.0696    1.3618    0.0379 C.ar    1  UNL1        0.0356
     14 C          -0.4407    2.3928    0.8745 C.ar    1  UNL1       -0.0193
     15 C          -1.5702    2.2384    1.6300 C.ar    1  UNL1        0.0782
     16 CL         -2.0801    3.5137    2.7028 Cl      1  UNL1       -0.0805
     17 C          -2.3094    1.0805    1.5496 C.ar    1  UNL1        0.1473
     18 F          -3.4158    0.9887    2.3215 F       1  UNL1       -0.2036
     19 C          -1.9668    0.0353    0.7264 C.ar    1  UNL1        0.0213
     20 C          -2.7911   -1.2276    0.6589 C.3     1  UNL1        0.1285
     21 C          -2.0756   -2.2234   -0.2639 C.3     1  UNL1        0.1199
     22 F          -2.7575   -3.4144   -0.3729 F       1  UNL1       -0.2462
     23 N          -2.7984   -1.7950    1.9638 N.2     1  UNL1       -0.2225
     24 C          -3.8180   -1.9486    2.7176 C.2     1  UNL1        0.2763
     25 N          -3.6117   -2.5401    3.9937 N.pl3   1  UNL1       -0.3134
     26 O          -5.0512   -1.5428    2.2713 O.2     1  UNL1       -0.4622
     27 C          -5.2790   -1.0357    0.9768 C.3     1  UNL1        0.1090
     28 C          -5.0947   -2.0462   -0.1107 C.3     1  UNL1       -0.0065
     29 C          -4.1257   -0.9447    0.0833 C.3     1  UNL1        0.0315
     30 C          -0.8227    0.2006   -0.0339 C.ar    1  UNL1       -0.0321
     31 H           6.0219   -0.0914    0.9413 H       1  UNL1        0.0278
     32 H           4.3670   -0.7455    0.9085 H       1  UNL1        0.0278
     33 H           4.6519    0.8964    1.5730 H       1  UNL1        0.0278
     34 H           6.8827    0.6112   -1.0333 H       1  UNL1        0.0634
     35 H           4.5331    2.2854   -4.0834 H       1  UNL1        0.0843
     36 H           1.1044    1.8923   -1.7230 H       1  UNL1        0.1552
     37 H           0.1698    3.3109    0.9202 H       1  UNL1        0.0652
     38 H          -2.0191   -1.8141   -1.2981 H       1  UNL1        0.0643
     39 H          -1.0598   -2.4422    0.0660 H       1  UNL1        0.0643
     40 H          -3.3278   -3.5350    4.1165 H       1  UNL1        0.1466
     41 H          -3.7521   -1.9474    4.8394 H       1  UNL1        0.1466
     42 H          -6.0725   -0.2672    0.8789 H       1  UNL1        0.0737
     43 H          -5.8726   -1.9846   -0.9053 H       1  UNL1        0.0306
     44 H          -4.9025   -3.0935    0.1859 H       1  UNL1        0.0306
     45 H          -4.1530   -0.1538   -0.6977 H       1  UNL1        0.0365
     46 H          -0.5314   -0.6147   -0.6900 H       1  UNL1        0.0640
@<TRIPOS>BOND
     1     1     2    1
     2     2     3   ar
     3     3     4   ar
     4     4     5    1
     5     5     6    3
     6     4     7   ar
     7     7     8   ar
     8     8     9   ar
     9     9    10    1
    10    10    11    2
    11    10    12   am
    12    12    13    1
    13    13    14   ar
    14    14    15   ar
    15    15    16    1
    16    15    17   ar
    17    17    18    1
    18    17    19   ar
    19    19    20    1
    20    20    21    1
    21    21    22    1
    22    20    23    1
    23    23    24    2
    24    24    25    1
    25    24    26    1
    26    26    27    1
    27    27    28    1
    28    28    29    1
    29    19    30   ar
    30     9     2   ar
    31    30    13   ar
    32    29    20    1
    33    29    27    1
    34     1    31    1
    35     1    32    1
    36     1    33    1
    37     3    34    1
    38     7    35    1
    39    12    36    1
    40    14    37    1
    41    21    38    1
    42    21    39    1
    43    25    40    1
    44    25    41    1
    45    27    42    1
    46    28    43    1
    47    28    44    1
    48    29    45    1
    49    30    46    1
