
     RDKit          3D

 78 84  0  0  0  0  0  0  0  0999 V2000
   -5.3365    6.6949   -0.8336 C   0  0  0  0  0  0  0  0  0  0  0  0
   -4.4718    5.5944   -0.9847 O   0  0  0  0  0  0  0  0  0  0  0  0
   -3.8986    4.9415    0.0933 C   0  0  0  0  0  0  0  0  0  0  0  0
   -3.0520    3.8630   -0.0591 C   0  0  0  0  0  0  0  0  0  0  0  0
   -2.4842    3.2174    1.0236 C   0  0  0  0  0  0  0  0  0  0  0  0
   -1.6208    2.1164    0.7945 N   0  0  0  0  0  0  0  0  0  0  0  0
   -0.2107    2.2133    0.6325 C   0  0  0  0  0  0  0  0  0  0  0  0
    0.4662    3.2887    0.6546 O   0  0  0  0  0  0  0  0  0  0  0  0
    0.3617    0.9369    0.4395 N   0  0  0  0  0  0  0  0  0  0  0  0
    1.7089    0.5957    0.2460 C   0  0  0  0  0  0  0  0  0  0  0  0
    2.5213    0.3051    1.3177 C   0  0  0  0  0  0  0  0  0  0  0  0
    3.8555   -0.0417    1.1217 C   0  0  0  0  0  0  0  0  0  0  0  0
    4.3833   -0.0997   -0.1411 C   0  0  0  0  0  0  0  0  0  0  0  0
    5.7908   -0.4711   -0.3729 C   0  0  0  0  0  0  0  0  0  0  0  0
    6.7488   -0.1418    0.5602 C   0  0  0  0  0  0  0  0  0  0  0  0
    8.0794   -0.4724    0.3994 C   0  0  0  0  0  0  0  0  0  0  0  0
    8.5035   -1.1558   -0.7206 C   0  0  0  0  0  0  0  0  0  0  0  0
    9.9148   -1.5214   -0.9077 C   0  0  0  0  0  0  0  0  0  0  0  0
   10.9756   -1.2765   -0.0875 C   0  0  0  0  0  0  0  0  0  0  0  0
   12.0888   -1.8140   -0.6899 C   0  0  0  0  0  0  0  0  0  0  0  0
   13.2761   -1.7812   -0.2161 O   0  0  0  0  0  0  0  0  0  0  0  0
   11.7071   -2.3733   -1.8530 N   0  0  0  0  0  0  0  0  0  0  0  0
   10.4026   -2.1886   -1.9672 N   0  0  0  0  0  0  0  0  0  0  0  0
    7.5520   -1.4884   -1.6584 C   0  0  0  0  0  0  0  0  0  0  0  0
    6.2016   -1.1544   -1.4978 C   0  0  0  0  0  0  0  0  0  0  0  0
    3.5783    0.1900   -1.2262 C   0  0  0  0  0  0  0  0  0  0  0  0
    2.2377    0.5374   -1.0116 C   0  0  0  0  0  0  0  0  0  0  0  0
   -0.7245    0.0022    0.4807 C   0  0  0  0  0  0  0  0  0  0  0  0
   -0.5596   -1.2337    0.3580 O   0  0  0  0  0  0  0  0  0  0  0  0
   -2.0110    0.7182    0.6835 C   0  0  0  0  0  0  0  0  0  0  0  0
   -2.9183    0.4696   -0.4718 C   0  0  0  0  0  0  0  0  0  0  0  0
   -3.6431   -0.8793   -0.1999 C   0  0  0  0  0  0  0  0  0  0  0  0
   -4.5562   -0.7816    0.8393 N   0  0  0  0  0  0  0  0  0  0  0  0
   -5.8562   -1.2504    0.8307 C   0  0  0  0  0  0  0  0  0  0  0  0
   -6.0649   -2.6900    0.5262 C   0  0  0  0  0  0  0  0  0  0  0  0
   -6.0341   -3.5887    1.5493 N   0  0  0  0  0  0  0  0  0  0  0  0
   -6.1515   -4.9053    1.3746 C   0  0  0  0  0  0  0  0  0  0  0  0
   -6.3124   -5.4073    0.1141 C   0  0  0  0  0  0  0  0  0  0  0  0
   -6.3488   -4.5297   -0.9367 C   0  0  0  0  0  0  0  0  0  0  0  0
   -6.2262   -3.1450   -0.7515 C   0  0  0  0  0  0  0  0  0  0  0  0
   -6.3399   -2.2619   -1.9519 C   0  0  0  0  0  0  0  0  0  0  0  0
   -4.2096    0.2734    1.7380 C   0  0  0  0  0  0  0  0  0  0  0  0
   -2.6998    0.2659    1.9505 C   0  0  0  0  0  0  0  0  0  0  0  0
   -2.8047    3.7011    2.2354 N   0  0  0  0  0  0  0  0  0  0  0  0
   -3.6391    4.7642    2.3833 C   0  0  0  0  0  0  0  0  0  0  0  0
   -4.1898    5.3899    1.3263 N   0  0  0  0  0  0  0  0  0  0  0  0
   -5.0561    7.2156    0.0969 H   0  0  0  0  0  0  0  0  0  0  0  0
   -6.3581    6.2790   -0.7032 H   0  0  0  0  0  0  0  0  0  0  0  0
   -5.2472    7.3401   -1.7311 H   0  0  0  0  0  0  0  0  0  0  0  0
   -2.8220    3.5067   -1.0648 H   0  0  0  0  0  0  0  0  0  0  0  0
    2.0765    0.3595    2.3001 H   0  0  0  0  0  0  0  0  0  0  0  0
    4.4438   -0.2585    1.9853 H   0  0  0  0  0  0  0  0  0  0  0  0
    6.3963    0.4008    1.4421 H   0  0  0  0  0  0  0  0  0  0  0  0
    8.7762   -0.1887    1.1593 H   0  0  0  0  0  0  0  0  0  0  0  0
   10.9012   -0.7521    0.8538 H   0  0  0  0  0  0  0  0  0  0  0  0
   12.2980   -2.8592   -2.5414 H   0  0  0  0  0  0  0  0  0  0  0  0
    9.8088   -2.5205   -2.7845 H   0  0  0  0  0  0  0  0  0  0  0  0
    7.8521   -2.0226   -2.5447 H   0  0  0  0  0  0  0  0  0  0  0  0
    5.4654   -1.4228   -2.2440 H   0  0  0  0  0  0  0  0  0  0  0  0
    3.9113    0.1690   -2.2467 H   0  0  0  0  0  0  0  0  0  0  0  0
    1.5986    0.7661   -1.8506 H   0  0  0  0  0  0  0  0  0  0  0  0
   -3.7445    1.2029   -0.5196 H   0  0  0  0  0  0  0  0  0  0  0  0
   -2.4234    0.3965   -1.4386 H   0  0  0  0  0  0  0  0  0  0  0  0
   -2.8233   -1.6059    0.1517 H   0  0  0  0  0  0  0  0  0  0  0  0
   -3.9514   -1.3120   -1.1548 H   0  0  0  0  0  0  0  0  0  0  0  0
   -6.3727   -1.1013    1.8365 H   0  0  0  0  0  0  0  0  0  0  0  0
   -6.4919   -0.6370    0.1387 H   0  0  0  0  0  0  0  0  0  0  0  0
   -6.1234   -5.5979    2.2079 H   0  0  0  0  0  0  0  0  0  0  0  0
   -6.4137   -6.4647   -0.1087 H   0  0  0  0  0  0  0  0  0  0  0  0
   -6.4741   -4.8777   -1.9590 H   0  0  0  0  0  0  0  0  0  0  0  0
   -5.6164   -2.5306   -2.7472 H   0  0  0  0  0  0  0  0  0  0  0  0
   -6.2582   -1.1970   -1.7427 H   0  0  0  0  0  0  0  0  0  0  0  0
   -7.3582   -2.4066   -2.4173 H   0  0  0  0  0  0  0  0  0  0  0  0
   -4.6859    0.1609    2.7412 H   0  0  0  0  0  0  0  0  0  0  0  0
   -4.5570    1.2478    1.3490 H   0  0  0  0  0  0  0  0  0  0  0  0
   -2.4154    0.9082    2.8097 H   0  0  0  0  0  0  0  0  0  0  0  0
   -2.4371   -0.7672    2.2287 H   0  0  0  0  0  0  0  0  0  0  0  0
   -3.8878    5.1432    3.3643 H   0  0  0  0  0  0  0  0  0  0  0  0
  1  2  1  0
  2  3  1  0
  3  4  2  0
  4  5  1  0
  5  6  1  0
  6  7  1  0
  7  8  2  0
  7  9  1  0
  9 10  1  0
 10 11  2  0
 11 12  1  0
 12 13  2  0
 13 14  1  0
 14 15  2  0
 15 16  1  0
 16 17  2  0
 17 18  1  0
 18 19  2  0
 19 20  1  0
 20 21  2  0
 20 22  1  0
 22 23  1  0
 17 24  1  0
 24 25  2  0
 13 26  1  0
 26 27  2  0
  9 28  1  0
 28 29  2  0
 28 30  1  0
 30 31  1  0
 31 32  1  0
 32 33  1  0
 33 34  1  0
 34 35  1  0
 35 36  2  0
 36 37  1  0
 37 38  2  0
 38 39  1  0
 39 40  2  0
 40 41  1  0
 33 42  1  0
 42 43  1  0
  5 44  2  0
 44 45  1  0
 45 46  2  0
 46  3  1  0
 30  6  1  0
 40 35  1  0
 27 10  1  0
 43 30  1  0
 25 14  1  0
 23 18  1  0
  1 47  1  0
  1 48  1  0
  1 49  1  0
  4 50  1  0
 11 51  1  0
 12 52  1  0
 15 53  1  0
 16 54  1  0
 19 55  1  0
 22 56  1  0
 23 57  1  0
 24 58  1  0
 25 59  1  0
 26 60  1  0
 27 61  1  0
 31 62  1  0
 31 63  1  0
 32 64  1  0
 32 65  1  0
 34 66  1  0
 34 67  1  0
 37 68  1  0
 38 69  1  0
 39 70  1  0
 41 71  1  0
 41 72  1  0
 41 73  1  0
 42 74  1  0
 42 75  1  0
 43 76  1  0
 43 77  1  0
 45 78  1  0
M  END
$$$$
