@<TRIPOS>MOLECULE
*****
 78 84 0 0 0
SMALL
GASTEIGER

@<TRIPOS>ATOM
      1 C          -5.3365    6.6949   -0.8336 C.3     1  UNL1        0.0804
      2 O          -4.4718    5.5944   -0.9847 O.3     1  UNL1       -0.4795
      3 C          -3.8986    4.9415    0.0933 C.ar    1  UNL1        0.2191
      4 C          -3.0520    3.8630   -0.0591 C.ar    1  UNL1        0.0404
      5 C          -2.4842    3.2174    1.0236 C.ar    1  UNL1        0.1364
      6 N          -1.6208    2.1164    0.7945 N.am    1  UNL1       -0.2240
      7 C          -0.2107    2.2133    0.6325 C.2     1  UNL1        0.3219
      8 O           0.4662    3.2887    0.6546 O.2     1  UNL1       -0.2512
      9 N           0.3617    0.9369    0.4395 N.am    1  UNL1       -0.1920
     10 C           1.7089    0.5957    0.2460 C.ar    1  UNL1        0.0455
     11 C           2.5213    0.3051    1.3177 C.ar    1  UNL1       -0.0392
     12 C           3.8555   -0.0417    1.1217 C.ar    1  UNL1       -0.0523
     13 C           4.3833   -0.0997   -0.1411 C.ar    1  UNL1       -0.0178
     14 C           5.7908   -0.4711   -0.3729 C.ar    1  UNL1       -0.0178
     15 C           6.7488   -0.1418    0.5602 C.ar    1  UNL1       -0.0534
     16 C           8.0794   -0.4724    0.3994 C.ar    1  UNL1       -0.0520
     17 C           8.5035   -1.1558   -0.7206 C.ar    1  UNL1       -0.0001
     18 C           9.9148   -1.5214   -0.9077 C.ar    1  UNL1        0.0674
     19 C          10.9756   -1.2765   -0.0875 C.ar    1  UNL1        0.0293
     20 C          12.0888   -1.8140   -0.6899 C.ar    1  UNL1        0.2650
     21 O          13.2761   -1.7812   -0.2161 O.2     1  UNL1       -0.2664
     22 N          11.7071   -2.3733   -1.8530 N.ar    1  UNL1       -0.2656
     23 N          10.4026   -2.1886   -1.9672 N.ar    1  UNL1       -0.2966
     24 C           7.5520   -1.4884   -1.6584 C.ar    1  UNL1       -0.0520
     25 C           6.2016   -1.1544   -1.4978 C.ar    1  UNL1       -0.0534
     26 C           3.5783    0.1900   -1.2262 C.ar    1  UNL1       -0.0523
     27 C           2.2377    0.5374   -1.0116 C.ar    1  UNL1       -0.0392
     28 C          -0.7245    0.0022    0.4807 C.2     1  UNL1        0.2516
     29 O          -0.5596   -1.2337    0.3580 O.2     1  UNL1       -0.2724
     30 C          -2.0110    0.7182    0.6835 C.3     1  UNL1        0.1240
     31 C          -2.9183    0.4696   -0.4718 C.3     1  UNL1       -0.0095
     32 C          -3.6431   -0.8793   -0.1999 C.3     1  UNL1        0.0017
     33 N          -4.5562   -0.7816    0.8393 N.3     1  UNL1       -0.2965
     34 C          -5.8562   -1.2504    0.8307 C.3     1  UNL1        0.0415
     35 C          -6.0649   -2.6900    0.5262 C.ar    1  UNL1        0.0581
     36 N          -6.0341   -3.5887    1.5493 N.ar    1  UNL1       -0.2583
     37 C          -6.1515   -4.9053    1.3746 C.ar    1  UNL1        0.0279
     38 C          -6.3124   -5.4073    0.1141 C.ar    1  UNL1       -0.0433
     39 C          -6.3488   -4.5297   -0.9367 C.ar    1  UNL1       -0.0557
     40 C          -6.2262   -3.1450   -0.7515 C.ar    1  UNL1       -0.0279
     41 C          -6.3399   -2.2619   -1.9519 C.3     1  UNL1       -0.0380
     42 C          -4.2096    0.2734    1.7380 C.3     1  UNL1        0.0017
     43 C          -2.6998    0.2659    1.9505 C.3     1  UNL1       -0.0095
     44 N          -2.8047    3.7011    2.2354 N.ar    1  UNL1       -0.2200
     45 C          -3.6391    4.7642    2.3833 C.ar    1  UNL1        0.1219
     46 N          -4.1898    5.3899    1.3263 N.ar    1  UNL1       -0.2013
     47 H          -5.0561    7.2156    0.0969 H       1  UNL1        0.0660
     48 H          -6.3581    6.2790   -0.7032 H       1  UNL1        0.0660
     49 H          -5.2472    7.3401   -1.7311 H       1  UNL1        0.0660
     50 H          -2.8220    3.5067   -1.0648 H       1  UNL1        0.0705
     51 H           2.0765    0.3595    2.3001 H       1  UNL1        0.0636
     52 H           4.4438   -0.2585    1.9853 H       1  UNL1        0.0624
     53 H           6.3963    0.4008    1.4421 H       1  UNL1        0.0624
     54 H           8.7762   -0.1887    1.1593 H       1  UNL1        0.0624
     55 H          10.9012   -0.7521    0.8538 H       1  UNL1        0.0693
     56 H          12.2980   -2.8592   -2.5414 H       1  UNL1        0.1899
     57 H           9.8088   -2.5205   -2.7845 H       1  UNL1        0.1868
     58 H           7.8521   -2.0226   -2.5447 H       1  UNL1        0.0624
     59 H           5.4654   -1.4228   -2.2440 H       1  UNL1        0.0624
     60 H           3.9113    0.1690   -2.2467 H       1  UNL1        0.0624
     61 H           1.5986    0.7661   -1.8506 H       1  UNL1        0.0636
     62 H          -3.7445    1.2029   -0.5196 H       1  UNL1        0.0303
     63 H          -2.4234    0.3965   -1.4386 H       1  UNL1        0.0303
     64 H          -2.8233   -1.6059    0.1517 H       1  UNL1        0.0427
     65 H          -3.9514   -1.3120   -1.1548 H       1  UNL1        0.0427
     66 H          -6.3727   -1.1013    1.8365 H       1  UNL1        0.0491
     67 H          -6.4919   -0.6370    0.1387 H       1  UNL1        0.0491
     68 H          -6.1234   -5.5979    2.2079 H       1  UNL1        0.0829
     69 H          -6.4137   -6.4647   -0.1087 H       1  UNL1        0.0633
     70 H          -6.4741   -4.8777   -1.9590 H       1  UNL1        0.0621
     71 H          -5.6164   -2.5306   -2.7472 H       1  UNL1        0.0278
     72 H          -6.2582   -1.1970   -1.7427 H       1  UNL1        0.0278
     73 H          -7.3582   -2.4066   -2.4173 H       1  UNL1        0.0278
     74 H          -4.6859    0.1609    2.7412 H       1  UNL1        0.0427
     75 H          -4.5570    1.2478    1.3490 H       1  UNL1        0.0427
     76 H          -2.4154    0.9082    2.8097 H       1  UNL1        0.0303
     77 H          -2.4371   -0.7672    2.2287 H       1  UNL1        0.0303
     78 H          -3.8878    5.1432    3.3643 H       1  UNL1        0.1049
@<TRIPOS>BOND
     1     1     2    1
     2     2     3    1
     3     3     4   ar
     4     4     5   ar
     5     5     6    1
     6     6     7   am
     7     7     8    2
     8     7     9   am
     9     9    10    1
    10    10    11   ar
    11    11    12   ar
    12    12    13   ar
    13    13    14    1
    14    14    15   ar
    15    15    16   ar
    16    16    17   ar
    17    17    18    1
    18    18    19   ar
    19    19    20   ar
    20    20    21    2
    21    20    22   ar
    22    22    23   ar
    23    17    24   ar
    24    24    25   ar
    25    13    26   ar
    26    26    27   ar
    27     9    28   am
    28    28    29    2
    29    28    30    1
    30    30    31    1
    31    31    32    1
    32    32    33    1
    33    33    34    1
    34    34    35    1
    35    35    36   ar
    36    36    37   ar
    37    37    38   ar
    38    38    39   ar
    39    39    40   ar
    40    40    41    1
    41    33    42    1
    42    42    43    1
    43     5    44   ar
    44    44    45   ar
    45    45    46   ar
    46    46     3   ar
    47    30     6    1
    48    40    35   ar
    49    27    10   ar
    50    43    30    1
    51    25    14   ar
    52    23    18   ar
    53     1    47    1
    54     1    48    1
    55     1    49    1
    56     4    50    1
    57    11    51    1
    58    12    52    1
    59    15    53    1
    60    16    54    1
    61    19    55    1
    62    22    56    1
    63    23    57    1
    64    24    58    1
    65    25    59    1
    66    26    60    1
    67    27    61    1
    68    31    62    1
    69    31    63    1
    70    32    64    1
    71    32    65    1
    72    34    66    1
    73    34    67    1
    74    37    68    1
    75    38    69    1
    76    39    70    1
    77    41    71    1
    78    41    72    1
    79    41    73    1
    80    42    74    1
    81    42    75    1
    82    43    76    1
    83    43    77    1
    84    45    78    1
