@<TRIPOS>MOLECULE
*****
 40 42 0 0 0
SMALL
GASTEIGER

@<TRIPOS>ATOM
      1 C          -4.4375   -3.0084   -0.0317 C.3     1  UNL1       -0.0397
      2 C          -3.5385   -1.8143   -0.0049 C.ar    1  UNL1       -0.0504
      3 C          -2.4648   -1.7624    0.8680 C.ar    1  UNL1       -0.0582
      4 C          -1.6339   -0.6624    0.8949 C.ar    1  UNL1       -0.0523
      5 C          -1.8175    0.4161    0.0805 C.ar    1  UNL1        0.0005
      6 C          -0.9933    1.5931    0.0547 C.ar    1  UNL1        0.0752
      7 C          -1.5181    2.8916    0.0175 C.ar    1  UNL1       -0.0039
      8 C          -0.4787    3.7954    0.0002 C.ar    1  UNL1        0.1662
      9 C          -0.6072    5.2733   -0.0393 C.3     1  UNL1        0.4360
     10 F           0.6250    5.8042   -0.4207 F       1  UNL1       -0.1644
     11 F          -1.5763    5.5661   -0.9857 F       1  UNL1       -0.1644
     12 F          -0.9888    5.7931    1.1940 F       1  UNL1       -0.1644
     13 N           0.6434    3.0462    0.0267 N.ar    1  UNL1       -0.1618
     14 N           0.3298    1.7636    0.0584 N.ar    1  UNL1       -0.2316
     15 C           1.2658    0.7044    0.0918 C.ar    1  UNL1        0.0661
     16 C           1.5634    0.0480   -1.0715 C.ar    1  UNL1       -0.0344
     17 C           2.4750   -0.9823   -1.0341 C.ar    1  UNL1       -0.0334
     18 C           3.0948   -1.3718    0.1337 C.ar    1  UNL1        0.1051
     19 S           4.2570   -2.6817    0.1940 S.O2    1  UNL1        0.0559
     20 N           5.8666   -2.1215   -0.0667 N.3     1  UNL1       -0.2035
     21 O           3.9162   -3.6118   -0.9462 O.2     1  UNL1       -0.1533
     22 O           4.1396   -3.4172    1.4866 O.2     1  UNL1       -0.1533
     23 C           2.8038   -0.7211    1.3037 C.ar    1  UNL1       -0.0334
     24 C           1.8879    0.3096    1.2498 C.ar    1  UNL1       -0.0344
     25 C          -2.9136    0.3279   -0.7890 C.ar    1  UNL1       -0.0523
     26 C          -3.7421   -0.7447   -0.8308 C.ar    1  UNL1       -0.0582
     27 H          -5.4357   -2.7692    0.3776 H       1  UNL1        0.0278
     28 H          -4.5271   -3.4024   -1.0860 H       1  UNL1        0.0278
     29 H          -3.9611   -3.8059    0.5693 H       1  UNL1        0.0278
     30 H          -2.2930   -2.6007    1.5255 H       1  UNL1        0.0620
     31 H          -0.8240   -0.6640    1.5783 H       1  UNL1        0.0624
     32 H          -2.5573    3.1743    0.0037 H       1  UNL1        0.0660
     33 H           1.1134    0.3058   -2.0111 H       1  UNL1        0.0639
     34 H           2.7549   -1.5449   -1.9272 H       1  UNL1        0.0638
     35 H           5.9155   -1.3280   -0.7155 H       1  UNL1        0.1442
     36 H           6.3827   -1.9839    0.8307 H       1  UNL1        0.1442
     37 H           3.2733   -0.9974    2.2567 H       1  UNL1        0.0638
     38 H           1.6823    0.8064    2.2126 H       1  UNL1        0.0639
     39 H          -3.1066    1.1544   -1.4573 H       1  UNL1        0.0624
     40 H          -4.5753   -0.7778   -1.5125 H       1  UNL1        0.0620
@<TRIPOS>BOND
     1     1     2    1
     2     2     3   ar
     3     3     4   ar
     4     4     5   ar
     5     5     6    1
     6     6     7   ar
     7     7     8   ar
     8     8     9    1
     9     9    10    1
    10     9    11    1
    11     9    12    1
    12     8    13   ar
    13    13    14   ar
    14    14    15    1
    15    15    16   ar
    16    16    17   ar
    17    17    18   ar
    18    18    19    1
    19    19    20    1
    20    19    21    2
    21    19    22    2
    22    18    23   ar
    23    23    24   ar
    24     5    25   ar
    25    25    26   ar
    26    26     2   ar
    27    14     6   ar
    28    24    15   ar
    29     1    27    1
    30     1    28    1
    31     1    29    1
    32     3    30    1
    33     4    31    1
    34     7    32    1
    35    16    33    1
    36    17    34    1
    37    20    35    1
    38    20    36    1
    39    23    37    1
    40    24    38    1
    41    25    39    1
    42    26    40    1
