
     RDKit          3D

 40 42  0  0  0  0  0  0  0  0999 V2000
   -4.4375   -3.0084   -0.0317 C   0  0  0  0  0  0  0  0  0  0  0  0
   -3.5385   -1.8143   -0.0049 C   0  0  0  0  0  0  0  0  0  0  0  0
   -2.4648   -1.7624    0.8680 C   0  0  0  0  0  0  0  0  0  0  0  0
   -1.6339   -0.6624    0.8949 C   0  0  0  0  0  0  0  0  0  0  0  0
   -1.8175    0.4161    0.0805 C   0  0  0  0  0  0  0  0  0  0  0  0
   -0.9933    1.5931    0.0547 C   0  0  0  0  0  0  0  0  0  0  0  0
   -1.5181    2.8916    0.0175 C   0  0  0  0  0  0  0  0  0  0  0  0
   -0.4787    3.7954    0.0002 C   0  0  0  0  0  0  0  0  0  0  0  0
   -0.6072    5.2733   -0.0393 C   0  0  0  0  0  0  0  0  0  0  0  0
    0.6250    5.8042   -0.4207 F   0  0  0  0  0  0  0  0  0  0  0  0
   -1.5763    5.5661   -0.9857 F   0  0  0  0  0  0  0  0  0  0  0  0
   -0.9888    5.7931    1.1940 F   0  0  0  0  0  0  0  0  0  0  0  0
    0.6434    3.0462    0.0267 N   0  0  0  0  0  0  0  0  0  0  0  0
    0.3298    1.7636    0.0584 N   0  0  0  0  0  0  0  0  0  0  0  0
    1.2658    0.7044    0.0918 C   0  0  0  0  0  0  0  0  0  0  0  0
    1.5634    0.0480   -1.0715 C   0  0  0  0  0  0  0  0  0  0  0  0
    2.4750   -0.9823   -1.0341 C   0  0  0  0  0  0  0  0  0  0  0  0
    3.0948   -1.3718    0.1337 C   0  0  0  0  0  0  0  0  0  0  0  0
    4.2570   -2.6817    0.1940 S   0  0  0  0  0  6  0  0  0  0  0  0
    5.8666   -2.1215   -0.0667 N   0  0  0  0  0  0  0  0  0  0  0  0
    3.9162   -3.6118   -0.9462 O   0  0  0  0  0  0  0  0  0  0  0  0
    4.1396   -3.4172    1.4866 O   0  0  0  0  0  0  0  0  0  0  0  0
    2.8038   -0.7211    1.3037 C   0  0  0  0  0  0  0  0  0  0  0  0
    1.8879    0.3096    1.2498 C   0  0  0  0  0  0  0  0  0  0  0  0
   -2.9136    0.3279   -0.7890 C   0  0  0  0  0  0  0  0  0  0  0  0
   -3.7421   -0.7447   -0.8308 C   0  0  0  0  0  0  0  0  0  0  0  0
   -5.4357   -2.7692    0.3776 H   0  0  0  0  0  0  0  0  0  0  0  0
   -4.5271   -3.4024   -1.0860 H   0  0  0  0  0  0  0  0  0  0  0  0
   -3.9611   -3.8059    0.5693 H   0  0  0  0  0  0  0  0  0  0  0  0
   -2.2930   -2.6007    1.5255 H   0  0  0  0  0  0  0  0  0  0  0  0
   -0.8240   -0.6640    1.5783 H   0  0  0  0  0  0  0  0  0  0  0  0
   -2.5573    3.1743    0.0037 H   0  0  0  0  0  0  0  0  0  0  0  0
    1.1134    0.3058   -2.0111 H   0  0  0  0  0  0  0  0  0  0  0  0
    2.7549   -1.5449   -1.9272 H   0  0  0  0  0  0  0  0  0  0  0  0
    5.9155   -1.3280   -0.7155 H   0  0  0  0  0  0  0  0  0  0  0  0
    6.3827   -1.9839    0.8307 H   0  0  0  0  0  0  0  0  0  0  0  0
    3.2733   -0.9974    2.2567 H   0  0  0  0  0  0  0  0  0  0  0  0
    1.6823    0.8064    2.2126 H   0  0  0  0  0  0  0  0  0  0  0  0
   -3.1066    1.1544   -1.4573 H   0  0  0  0  0  0  0  0  0  0  0  0
   -4.5753   -0.7778   -1.5125 H   0  0  0  0  0  0  0  0  0  0  0  0
  1  2  1  0
  2  3  2  0
  3  4  1  0
  4  5  2  0
  5  6  1  0
  6  7  2  0
  7  8  1  0
  8  9  1  0
  9 10  1  0
  9 11  1  0
  9 12  1  0
  8 13  2  0
 13 14  1  0
 14 15  1  0
 15 16  2  0
 16 17  1  0
 17 18  2  0
 18 19  1  0
 19 20  1  0
 19 21  2  0
 19 22  2  0
 18 23  1  0
 23 24  2  0
  5 25  1  0
 25 26  2  0
 26  2  1  0
 14  6  1  0
 24 15  1  0
  1 27  1  0
  1 28  1  0
  1 29  1  0
  3 30  1  0
  4 31  1  0
  7 32  1  0
 16 33  1  0
 17 34  1  0
 20 35  1  0
 20 36  1  0
 23 37  1  0
 24 38  1  0
 25 39  1  0
 26 40  1  0
M  END
$$$$
