
     RDKit          3D

 37 39  0  0  0  0  0  0  0  0999 V2000
    6.0578   -0.0960    1.3640 O   0  0  0  0  0  0  0  0  0  0  0  0
    4.8565    0.2505    1.3412 C   0  0  0  0  0  0  0  0  0  0  0  0
    4.2805    0.8355    2.4502 O   0  0  0  0  0  0  0  0  0  0  0  0
    4.0911    0.0197    0.1188 C   0  0  0  0  0  0  0  0  0  0  0  0
    4.6542   -0.5641   -0.9953 C   0  0  0  0  0  0  0  0  0  0  0  0
    3.9458   -0.7887   -2.1566 C   0  0  0  0  0  0  0  0  0  0  0  0
    2.6146   -0.4146   -2.2114 C   0  0  0  0  0  0  0  0  0  0  0  0
    2.0134    0.1729   -1.1173 C   0  0  0  0  0  0  0  0  0  0  0  0
    0.3148    0.6404   -1.2173 S   0  0  0  0  0  6  0  0  0  0  0  0
   -0.0257    1.0469   -2.6232 O   0  0  0  0  0  0  0  0  0  0  0  0
    0.0869    1.8454   -0.3332 O   0  0  0  0  0  0  0  0  0  0  0  0
   -0.6472   -0.6470   -0.7272 N   0  0  0  0  0  0  0  0  0  0  0  0
   -0.4960   -1.1094    0.5889 C   0  0  0  0  0  0  0  0  0  0  0  0
   -1.6243   -0.8450    1.5219 C   0  0  0  0  0  0  0  0  0  0  0  0
   -2.7781   -0.1605    0.8987 C   0  0  0  0  0  0  0  0  0  0  0  0
   -3.7164    0.4362    1.6959 C   0  0  0  0  0  0  0  0  0  0  0  0
   -4.8078    1.0846    1.1286 C   0  0  0  0  0  0  0  0  0  0  0  0
   -4.9954    1.1572   -0.2389 C   0  0  0  0  0  0  0  0  0  0  0  0
   -6.4840    2.0411   -1.0315 Br  0  0  0  0  0  0  0  0  0  0  0  0
   -4.0352    0.5472   -1.0282 C   0  0  0  0  0  0  0  0  0  0  0  0
   -2.9587   -0.0924   -0.4719 C   0  0  0  0  0  0  0  0  0  0  0  0
   -1.9298   -0.7452   -1.3147 C   0  0  0  0  0  0  0  0  0  0  0  0
    2.7502    0.3828    0.0271 C   0  0  0  0  0  0  0  0  0  0  0  0
    4.8841    1.3349    3.1015 H   0  0  0  0  0  0  0  0  0  0  0  0
    5.7057   -0.8519   -0.9316 H   0  0  0  0  0  0  0  0  0  0  0  0
    4.4000   -1.2504   -3.0309 H   0  0  0  0  0  0  0  0  0  0  0  0
    1.9998   -0.5607   -3.0888 H   0  0  0  0  0  0  0  0  0  0  0  0
   -0.3023   -2.2219    0.5513 H   0  0  0  0  0  0  0  0  0  0  0  0
    0.4617   -0.6906    1.0078 H   0  0  0  0  0  0  0  0  0  0  0  0
   -1.9824   -1.7924    1.9875 H   0  0  0  0  0  0  0  0  0  0  0  0
   -1.2600   -0.2244    2.3855 H   0  0  0  0  0  0  0  0  0  0  0  0
   -3.6050    0.4016    2.7895 H   0  0  0  0  0  0  0  0  0  0  0  0
   -5.5511    1.5571    1.7505 H   0  0  0  0  0  0  0  0  0  0  0  0
   -4.1369    0.5759   -2.1154 H   0  0  0  0  0  0  0  0  0  0  0  0
   -2.1796   -1.8292   -1.4562 H   0  0  0  0  0  0  0  0  0  0  0  0
   -1.9019   -0.2885   -2.3233 H   0  0  0  0  0  0  0  0  0  0  0  0
    2.3008    0.8430    0.8992 H   0  0  0  0  0  0  0  0  0  0  0  0
  1  2  2  0
  2  3  1  0
  2  4  1  0
  4  5  2  0
  5  6  1  0
  6  7  2  0
  7  8  1  0
  8  9  1  0
  9 10  2  0
  9 11  2  0
  9 12  1  0
 12 13  1  0
 13 14  1  0
 14 15  1  0
 15 16  2  0
 16 17  1  0
 17 18  2  0
 18 19  1  0
 18 20  1  0
 20 21  2  0
 21 22  1  0
  8 23  2  0
 23  4  1  0
 22 12  1  0
 21 15  1  0
  3 24  1  0
  5 25  1  0
  6 26  1  0
  7 27  1  0
 13 28  1  0
 13 29  1  0
 14 30  1  0
 14 31  1  0
 16 32  1  0
 17 33  1  0
 20 34  1  0
 22 35  1  0
 22 36  1  0
 23 37  1  0
M  END
$$$$
