@<TRIPOS>MOLECULE
*****
 37 39 0 0 0
SMALL
GASTEIGER

@<TRIPOS>ATOM
      1 O           6.0578   -0.0960    1.3640 O.2     1  UNL1       -0.2451
      2 C           4.8565    0.2505    1.3412 C.2     1  UNL1        0.3369
      3 O           4.2805    0.8355    2.4502 O.3     1  UNL1       -0.4771
      4 C           4.0911    0.0197    0.1188 C.ar    1  UNL1        0.0607
      5 C           4.6542   -0.5641   -0.9953 C.ar    1  UNL1       -0.0477
      6 C           3.9458   -0.7887   -2.1566 C.ar    1  UNL1       -0.0591
      7 C           2.6146   -0.4146   -2.2114 C.ar    1  UNL1       -0.0353
      8 C           2.0134    0.1729   -1.1173 C.ar    1  UNL1        0.1063
      9 S           0.3148    0.6404   -1.2173 S.O2    1  UNL1        0.0612
     10 O          -0.0257    1.0469   -2.6232 O.2     1  UNL1       -0.1528
     11 O           0.0869    1.8454   -0.3332 O.2     1  UNL1       -0.1528
     12 N          -0.6472   -0.6470   -0.7272 N.3     1  UNL1       -0.1720
     13 C          -0.4960   -1.1094    0.5889 C.3     1  UNL1        0.0248
     14 C          -1.6243   -0.8450    1.5219 C.3     1  UNL1       -0.0129
     15 C          -2.7781   -0.1605    0.8987 C.ar    1  UNL1       -0.0416
     16 C          -3.7164    0.4362    1.6959 C.ar    1  UNL1       -0.0572
     17 C          -4.8078    1.0846    1.1286 C.ar    1  UNL1       -0.0475
     18 C          -4.9954    1.1572   -0.2389 C.ar    1  UNL1        0.0182
     19 BR         -6.4840    2.0411   -1.0315 Br      1  UNL1       -0.0503
     20 C          -4.0352    0.5472   -1.0282 C.ar    1  UNL1       -0.0430
     21 C          -2.9587   -0.0924   -0.4719 C.ar    1  UNL1       -0.0274
     22 C          -1.9298   -0.7452   -1.3147 C.3     1  UNL1        0.0458
     23 C           2.7502    0.3828    0.0271 C.ar    1  UNL1       -0.0214
     24 H           4.8841    1.3349    3.1015 H       1  UNL1        0.2954
     25 H           5.7057   -0.8519   -0.9316 H       1  UNL1        0.0626
     26 H           4.4000   -1.2504   -3.0309 H       1  UNL1        0.0618
     27 H           1.9998   -0.5607   -3.0888 H       1  UNL1        0.0637
     28 H          -0.3023   -2.2219    0.5513 H       1  UNL1        0.0447
     29 H           0.4617   -0.6906    1.0078 H       1  UNL1        0.0447
     30 H          -1.9824   -1.7924    1.9875 H       1  UNL1        0.0326
     31 H          -1.2600   -0.2244    2.3855 H       1  UNL1        0.0326
     32 H          -3.6050    0.4016    2.7895 H       1  UNL1        0.0621
     33 H          -5.5511    1.5571    1.7505 H       1  UNL1        0.0629
     34 H          -4.1369    0.5759   -2.1154 H       1  UNL1        0.0632
     35 H          -2.1796   -1.8292   -1.4562 H       1  UNL1        0.0493
     36 H          -1.9019   -0.2885   -2.3233 H       1  UNL1        0.0493
     37 H           2.3008    0.8430    0.8992 H       1  UNL1        0.0645
@<TRIPOS>BOND
     1     1     2    2
     2     2     3    1
     3     2     4    1
     4     4     5   ar
     5     5     6   ar
     6     6     7   ar
     7     7     8   ar
     8     8     9    1
     9     9    10    2
    10     9    11    2
    11     9    12    1
    12    12    13    1
    13    13    14    1
    14    14    15    1
    15    15    16   ar
    16    16    17   ar
    17    17    18   ar
    18    18    19    1
    19    18    20   ar
    20    20    21   ar
    21    21    22    1
    22     8    23   ar
    23    23     4   ar
    24    22    12    1
    25    21    15   ar
    26     3    24    1
    27     5    25    1
    28     6    26    1
    29     7    27    1
    30    13    28    1
    31    13    29    1
    32    14    30    1
    33    14    31    1
    34    16    32    1
    35    17    33    1
    36    20    34    1
    37    22    35    1
    38    22    36    1
    39    23    37    1
