@<TRIPOS>MOLECULE
*****
 70 72 0 0 0
SMALL
GASTEIGER

@<TRIPOS>ATOM
      1 C           3.6501   -0.6080   -2.8888 C.3     1  UNL1       -0.0615
      2 C           3.1492    0.0894   -1.6140 C.3     1  UNL1       -0.0323
      3 C           4.3779    0.3407   -0.7788 C.3     1  UNL1       -0.0615
      4 C           2.0943   -0.7330   -0.9831 C.3     1  UNL1        0.0229
      5 N           1.4866   -0.2948    0.1950 N.3     1  UNL1       -0.1738
      6 C           0.9418    1.0265    0.1934 C.3     1  UNL1        0.0483
      7 C          -0.5603    1.0536    0.3456 C.3     1  UNL1        0.0882
      8 O          -1.0433    2.3582    0.3592 O.3     1  UNL1       -0.3886
      9 C          -1.3090    0.2871   -0.6885 C.3     1  UNL1        0.0573
     10 C          -1.2319    0.8199   -2.0809 C.3     1  UNL1       -0.0066
     11 C          -1.7402    2.1850   -2.2702 C.ar    1  UNL1       -0.0455
     12 C          -3.0940    2.3968   -2.5577 C.ar    1  UNL1       -0.0585
     13 C          -3.6644    3.6311   -2.7589 C.ar    1  UNL1       -0.0615
     14 C          -2.8478    4.7380   -2.6719 C.ar    1  UNL1       -0.0617
     15 C          -1.5057    4.6144   -2.3929 C.ar    1  UNL1       -0.0615
     16 C          -0.9804    3.3525   -2.1988 C.ar    1  UNL1       -0.0585
     17 N          -2.7164    0.3137   -0.3071 N.am    1  UNL1       -0.2754
     18 C          -3.3671   -0.9187   -0.0864 C.2     1  UNL1        0.4009
     19 O          -2.7856   -2.0274   -0.2045 O.2     1  UNL1       -0.2265
     20 O          -4.6889   -1.1265    0.2799 O.3     1  UNL1       -0.4447
     21 C          -5.2477   -2.3971    0.4775 C.3     1  UNL1        0.1299
     22 C          -5.8310   -2.6041    1.8595 C.3     1  UNL1        0.0101
     23 C          -6.7764   -3.7538    1.5875 C.3     1  UNL1        0.0513
     24 O          -6.8527   -3.9240    0.2096 O.3     1  UNL1       -0.3760
     25 C          -6.4361   -2.7110   -0.3734 C.3     1  UNL1        0.0848
     26 S           1.9042   -0.9313    1.6723 S.O2    1  UNL1        0.0609
     27 O           1.4998   -2.4028    1.6786 O.2     1  UNL1       -0.1528
     28 O           0.9995   -0.3076    2.7312 O.2     1  UNL1       -0.1528
     29 C           3.5142   -0.7588    2.2295 C.ar    1  UNL1        0.1056
     30 C           3.8788    0.3832    2.9101 C.ar    1  UNL1       -0.0336
     31 C           5.1466    0.5704    3.3859 C.ar    1  UNL1       -0.0392
     32 C           6.1405   -0.3690    3.2162 C.ar    1  UNL1        0.0247
     33 N           7.4912   -0.3044    3.6559 N.pl3   1  UNL1       -0.3580
     34 C           5.8269   -1.5450    2.5340 C.ar    1  UNL1       -0.0392
     35 C           4.5394   -1.6990    2.0688 C.ar    1  UNL1       -0.0336
     36 H           4.6373   -0.1635   -3.1309 H       1  UNL1        0.0233
     37 H           3.8178   -1.6878   -2.6934 H       1  UNL1        0.0233
     38 H           2.9064   -0.4542   -3.7155 H       1  UNL1        0.0233
     39 H           2.7921    1.0799   -1.9810 H       1  UNL1        0.0308
     40 H           4.9223   -0.5800   -0.5412 H       1  UNL1        0.0233
     41 H           4.1803    1.0153    0.0763 H       1  UNL1        0.0233
     42 H           5.0919    0.9406   -1.4274 H       1  UNL1        0.0233
     43 H           1.3187   -0.9431   -1.7705 H       1  UNL1        0.0446
     44 H           2.5492   -1.7522   -0.7654 H       1  UNL1        0.0446
     45 H           1.3578    1.7137    0.9488 H       1  UNL1        0.0470
     46 H           1.1730    1.4763   -0.7923 H       1  UNL1        0.0470
     47 H          -0.8690    0.6291    1.3480 H       1  UNL1        0.0625
     48 H          -0.3593    2.9250    0.7670 H       1  UNL1        0.2099
     49 H          -0.9898   -0.7772   -0.7409 H       1  UNL1        0.0528
     50 H          -1.9017    0.1509   -2.6988 H       1  UNL1        0.0332
     51 H          -0.2236    0.6944   -2.5268 H       1  UNL1        0.0332
     52 H          -3.7579    1.5487   -2.6321 H       1  UNL1        0.0620
     53 H          -4.7178    3.7369   -2.9784 H       1  UNL1        0.0618
     54 H          -3.2078    5.7481   -2.8150 H       1  UNL1        0.0618
     55 H          -0.8669    5.4813   -2.3248 H       1  UNL1        0.0618
     56 H           0.0698    3.2433   -1.9816 H       1  UNL1        0.0620
     57 H          -3.2967    1.1657   -0.1800 H       1  UNL1        0.1524
     58 H          -4.5079   -3.2119    0.3080 H       1  UNL1        0.0758
     59 H          -6.4309   -1.7161    2.1028 H       1  UNL1        0.0324
     60 H          -5.0534   -2.8555    2.6067 H       1  UNL1        0.0324
     61 H          -6.3005   -4.6651    2.0173 H       1  UNL1        0.0561
     62 H          -7.7509   -3.6675    2.0759 H       1  UNL1        0.0561
     63 H          -7.2861   -2.0113   -0.2168 H       1  UNL1        0.0597
     64 H          -6.2284   -2.9184   -1.4274 H       1  UNL1        0.0597
     65 H           3.2310    1.2096    3.1277 H       1  UNL1        0.0638
     66 H           5.4855    1.4463    3.9256 H       1  UNL1        0.0636
     67 H           7.5150   -0.7174    4.6050 H       1  UNL1        0.1423
     68 H           8.0158    0.1493    2.8532 H       1  UNL1        0.1423
     69 H           6.4899   -2.3760    2.3184 H       1  UNL1        0.0636
     70 H           4.2326   -2.6012    1.5254 H       1  UNL1        0.0638
@<TRIPOS>BOND
     1     1     2    1
     2     2     3    1
     3     2     4    1
     4     4     5    1
     5     5     6    1
     6     6     7    1
     7     7     8    1
     8     7     9    1
     9     9    10    1
    10    10    11    1
    11    11    12   ar
    12    12    13   ar
    13    13    14   ar
    14    14    15   ar
    15    15    16   ar
    16     9    17    1
    17    17    18   am
    18    18    19    2
    19    18    20    1
    20    20    21    1
    21    21    22    1
    22    22    23    1
    23    23    24    1
    24    24    25    1
    25     5    26    1
    26    26    27    2
    27    26    28    2
    28    26    29    1
    29    29    30   ar
    30    30    31   ar
    31    31    32   ar
    32    32    33    1
    33    32    34   ar
    34    34    35   ar
    35    16    11   ar
    36    25    21    1
    37    35    29   ar
    38     1    36    1
    39     1    37    1
    40     1    38    1
    41     2    39    1
    42     3    40    1
    43     3    41    1
    44     3    42    1
    45     4    43    1
    46     4    44    1
    47     6    45    1
    48     6    46    1
    49     7    47    1
    50     8    48    1
    51     9    49    1
    52    10    50    1
    53    10    51    1
    54    12    52    1
    55    13    53    1
    56    14    54    1
    57    15    55    1
    58    16    56    1
    59    17    57    1
    60    21    58    1
    61    22    59    1
    62    22    60    1
    63    23    61    1
    64    23    62    1
    65    25    63    1
    66    25    64    1
    67    30    65    1
    68    31    66    1
    69    33    67    1
    70    33    68    1
    71    34    69    1
    72    35    70    1
