@<TRIPOS>MOLECULE
*****
 56 58 0 0 0
SMALL
GASTEIGER

@<TRIPOS>ATOM
      1 C           5.6841    2.7782   -1.3785 C.3     1  UNL1        0.0788
      2 O           4.5591    1.9281   -1.2710 O.3     1  UNL1       -0.4951
      3 C           3.6054    2.1520   -0.2789 C.ar    1  UNL1        0.1207
      4 C           3.7104    3.1869    0.6228 C.ar    1  UNL1       -0.0199
      5 C           2.7628    3.4017    1.6016 C.ar    1  UNL1       -0.0577
      6 C           1.6795    2.5751    1.6977 C.ar    1  UNL1       -0.0524
      7 C           1.5340    1.5188    0.8088 C.ar    1  UNL1        0.0035
      8 C           0.3562    0.6694    0.9475 C.ar    1  UNL1        0.0697
      9 C          -0.9282    1.2056    1.1085 C.ar    1  UNL1       -0.0108
     10 C          -1.8052    0.1784    1.2324 C.ar    1  UNL1        0.0892
     11 C          -3.2704    0.3654    1.4222 C.3     1  UNL1        0.0928
     12 O          -3.8748    0.4202    0.1898 O.3     1  UNL1       -0.3566
     13 C          -5.2289    0.5943    0.2730 C.3     1  UNL1        0.1602
     14 C          -5.8821   -0.4912    1.0916 C.3     1  UNL1       -0.0256
     15 C          -5.8701    0.4494   -1.1320 C.3     1  UNL1       -0.0256
     16 C          -5.5610    1.9548    0.6957 C.2     1  UNL1        0.3365
     17 O          -4.6603    2.7957    0.8774 O.2     1  UNL1       -0.2478
     18 O          -6.8761    2.3742    0.9135 O.3     1  UNL1       -0.4786
     19 N          -1.0909   -0.9490    1.1511 N.ar    1  UNL1       -0.1730
     20 N           0.2116   -0.6579    0.9793 N.ar    1  UNL1       -0.2589
     21 C           1.2472   -1.6596    0.8479 C.3     1  UNL1        0.0706
     22 C           1.4667   -2.1315   -0.5223 C.ar    1  UNL1        0.0155
     23 C           0.6942   -1.6755   -1.5972 C.ar    1  UNL1       -0.0533
     24 C           0.9047   -2.1276   -2.8831 C.ar    1  UNL1       -0.0612
     25 C           1.9124   -3.0532   -3.0739 C.ar    1  UNL1       -0.0583
     26 C           2.6971   -3.5297   -2.0464 C.ar    1  UNL1       -0.0196
     27 C           2.4614   -3.0569   -0.7683 C.ar    1  UNL1        0.1250
     28 O           3.2285   -3.5042    0.3248 O.3     1  UNL1       -0.4948
     29 C           4.2435   -4.4467    0.0814 C.3     1  UNL1        0.0788
     30 C           2.4911    1.3280   -0.1553 C.ar    1  UNL1       -0.0108
     31 H           6.2763    2.8199   -0.4423 H       1  UNL1        0.0660
     32 H           5.2727    3.8160   -1.5304 H       1  UNL1        0.0660
     33 H           6.3005    2.5331   -2.2486 H       1  UNL1        0.0660
     34 H           4.5726    3.8290    0.5314 H       1  UNL1        0.0654
     35 H           2.8745    4.2292    2.2996 H       1  UNL1        0.0619
     36 H           0.9246    2.7516    2.4825 H       1  UNL1        0.0624
     37 H          -1.1774    2.2734    1.1302 H       1  UNL1        0.0658
     38 H          -3.4329    1.2780    2.0139 H       1  UNL1        0.0626
     39 H          -3.6805   -0.4646    2.0597 H       1  UNL1        0.0626
     40 H          -5.7246   -0.3919    2.1665 H       1  UNL1        0.0263
     41 H          -5.4478   -1.4560    0.7503 H       1  UNL1        0.0263
     42 H          -6.9780   -0.5103    0.8907 H       1  UNL1        0.0263
     43 H          -5.7102    1.3740   -1.7134 H       1  UNL1        0.0263
     44 H          -5.4145   -0.4377   -1.5688 H       1  UNL1        0.0263
     45 H          -6.9584    0.3667   -0.9334 H       1  UNL1        0.0263
     46 H          -7.0050    3.0890    1.6445 H       1  UNL1        0.2951
     47 H           2.1651   -1.2319    1.3161 H       1  UNL1        0.0560
     48 H           0.9577   -2.5079    1.5228 H       1  UNL1        0.0560
     49 H          -0.0773   -0.9497   -1.3664 H       1  UNL1        0.0622
     50 H           0.2871   -1.7524   -3.6927 H       1  UNL1        0.0618
     51 H           2.0851   -3.4154   -4.0879 H       1  UNL1        0.0619
     52 H           3.4821   -4.2528   -2.2044 H       1  UNL1        0.0654
     53 H           4.8373   -4.5317    1.0329 H       1  UNL1        0.0660
     54 H           3.8328   -5.4423   -0.1775 H       1  UNL1        0.0660
     55 H           4.9141   -4.1321   -0.7596 H       1  UNL1        0.0660
     56 H           2.4224    0.5237   -0.8757 H       1  UNL1        0.0661
@<TRIPOS>BOND
     1     1     2    1
     2     2     3    1
     3     3     4   ar
     4     4     5   ar
     5     5     6   ar
     6     6     7   ar
     7     7     8    1
     8     8     9   ar
     9     9    10   ar
    10    10    11    1
    11    11    12    1
    12    12    13    1
    13    13    14    1
    14    13    15    1
    15    13    16    1
    16    16    17    2
    17    16    18    1
    18    10    19   ar
    19    19    20   ar
    20    20    21    1
    21    21    22    1
    22    22    23   ar
    23    23    24   ar
    24    24    25   ar
    25    25    26   ar
    26    26    27   ar
    27    27    28    1
    28    28    29    1
    29     7    30   ar
    30    30     3   ar
    31    20     8   ar
    32    27    22   ar
    33     1    31    1
    34     1    32    1
    35     1    33    1
    36     4    34    1
    37     5    35    1
    38     6    36    1
    39     9    37    1
    40    11    38    1
    41    11    39    1
    42    14    40    1
    43    14    41    1
    44    14    42    1
    45    15    43    1
    46    15    44    1
    47    15    45    1
    48    18    46    1
    49    21    47    1
    50    21    48    1
    51    23    49    1
    52    24    50    1
    53    25    51    1
    54    26    52    1
    55    29    53    1
    56    29    54    1
    57    29    55    1
    58    30    56    1
