@<TRIPOS>MOLECULE
*****
 45 48 0 0 0
SMALL
GASTEIGER

@<TRIPOS>ATOM
      1 C          -1.0124   -3.2432    0.1700 C.3     1  UNL1       -0.0491
      2 C          -0.2495   -1.9958   -0.1089 C.3     1  UNL1        0.0126
      3 C           0.7979   -1.8459    1.0082 C.3     1  UNL1       -0.0099
      4 C           1.6463   -0.7004    0.6435 C.ar    1  UNL1       -0.0158
      5 C           0.9528    0.4585    0.3507 C.ar    1  UNL1        0.0422
      6 N           1.8350    1.4053    0.0458 N.ar    1  UNL1       -0.3562
      7 C           3.0837    0.8847    0.1351 C.ar    1  UNL1        0.0470
      8 C           4.3478    1.3905   -0.0654 C.ar    1  UNL1       -0.0378
      9 C           5.4868    0.6225    0.0956 C.ar    1  UNL1       -0.0598
     10 C           5.3595   -0.7074    0.4724 C.ar    1  UNL1       -0.0611
     11 C           4.1244   -1.2349    0.6785 C.ar    1  UNL1       -0.0523
     12 C           2.9860   -0.4441    0.5113 C.ar    1  UNL1        0.0032
     13 C          -0.5219    0.3117    0.4552 C.3     1  UNL1        0.0767
     14 C          -1.2251    1.5451    0.0397 C.ar    1  UNL1       -0.0244
     15 C          -1.8974    2.3085    0.9618 C.ar    1  UNL1       -0.0553
     16 C          -2.5676    3.4758    0.5935 C.ar    1  UNL1       -0.0431
     17 C          -2.5509    3.8677   -0.7269 C.ar    1  UNL1        0.0410
     18 CL         -3.3944    5.3407   -1.2208 Cl      1  UNL1       -0.0835
     19 C          -1.8768    3.1072   -1.6723 C.ar    1  UNL1       -0.0431
     20 C          -1.2252    1.9587   -1.2719 C.ar    1  UNL1       -0.0553
     21 N          -0.9608   -0.8181   -0.4179 N.3     1  UNL1       -0.2852
     22 C          -2.3803   -0.8343   -0.3501 C.3     1  UNL1        0.0233
     23 C          -3.1164   -1.6750   -1.3453 C.3     1  UNL1        0.0570
     24 O          -4.5051   -1.5328   -1.0694 O.3     1  UNL1       -0.3937
     25 H          -1.0346   -3.9378   -0.7203 H       1  UNL1        0.0245
     26 H          -0.4055   -3.8720    0.9109 H       1  UNL1        0.0245
     27 H          -1.9773   -3.1441    0.6490 H       1  UNL1        0.0245
     28 H           0.3898   -2.2248   -1.0166 H       1  UNL1        0.0463
     29 H           1.3970   -2.7780    1.0125 H       1  UNL1        0.0329
     30 H           0.3021   -1.7217    1.9869 H       1  UNL1        0.0329
     31 H           1.5983    2.3736   -0.2131 H       1  UNL1        0.1657
     32 H           4.4341    2.4290   -0.3596 H       1  UNL1        0.0638
     33 H           6.4892    1.0026   -0.0613 H       1  UNL1        0.0618
     34 H           6.2199   -1.3500    0.6079 H       1  UNL1        0.0618
     35 H           3.9376   -2.2740    0.9788 H       1  UNL1        0.0624
     36 H          -0.7630    0.0046    1.4762 H       1  UNL1        0.0577
     37 H          -1.8965    1.9767    2.0016 H       1  UNL1        0.0621
     38 H          -3.0877    4.0497    1.3549 H       1  UNL1        0.0632
     39 H          -1.8684    3.4268   -2.7259 H       1  UNL1        0.0632
     40 H          -0.6910    1.3435   -1.9736 H       1  UNL1        0.0621
     41 H          -2.7601   -1.0039    0.6999 H       1  UNL1        0.0449
     42 H          -2.7327    0.2217   -0.5488 H       1  UNL1        0.0449
     43 H          -2.8291   -2.6984   -1.4734 H       1  UNL1        0.0570
     44 H          -3.0430   -1.2139   -2.3867 H       1  UNL1        0.0570
     45 H          -4.8156   -2.2545   -0.4863 H       1  UNL1        0.2095
@<TRIPOS>BOND
     1     1     2    1
     2     2     3    1
     3     3     4    1
     4     4     5   ar
     5     5     6   ar
     6     6     7   ar
     7     7     8   ar
     8     8     9   ar
     9     9    10   ar
    10    10    11   ar
    11    11    12   ar
    12     5    13    1
    13    13    14    1
    14    14    15   ar
    15    15    16   ar
    16    16    17   ar
    17    17    18    1
    18    17    19   ar
    19    19    20   ar
    20    13    21    1
    21    21    22    1
    22    22    23    1
    23    23    24    1
    24    21     2    1
    25    12     4   ar
    26    20    14   ar
    27    12     7   ar
    28     1    25    1
    29     1    26    1
    30     1    27    1
    31     2    28    1
    32     3    29    1
    33     3    30    1
    34     6    31    1
    35     8    32    1
    36     9    33    1
    37    10    34    1
    38    11    35    1
    39    13    36    1
    40    15    37    1
    41    16    38    1
    42    19    39    1
    43    20    40    1
    44    22    41    1
    45    22    42    1
    46    23    43    1
    47    23    44    1
    48    24    45    1
