@<TRIPOS>MOLECULE
*****
 57 61 0 0 0
SMALL
GASTEIGER

@<TRIPOS>ATOM
      1 C           4.3994    1.7270    0.8836 C.3     1  UNL1        0.0153
      2 N           3.2523    0.8688    0.6429 N.ar    1  UNL1       -0.3093
      3 C           2.0124    1.2715    0.9923 C.ar    1  UNL1        0.2773
      4 O           1.9013    2.3981    1.5244 O.2     1  UNL1       -0.2654
      5 C           0.8961    0.4782    0.7763 C.ar    1  UNL1        0.1363
      6 C           1.0342   -0.7551    0.1912 C.ar    1  UNL1        0.1053
      7 N          -0.1744   -1.3052    0.1028 N.ar    1  UNL1       -0.2134
      8 C          -1.1073   -0.4515    0.6228 C.ar    1  UNL1        0.1997
      9 N          -2.5016   -0.6760    0.7290 N.pl3   1  UNL1       -0.2995
     10 C          -3.5506    0.0494    0.0973 C.3     1  UNL1        0.0149
     11 C          -4.2145   -0.8801   -0.9011 C.3     1  UNL1       -0.0357
     12 C          -4.5234   -2.2245   -0.3483 C.3     1  UNL1       -0.0349
     13 C          -3.4656   -2.8179    0.5296 C.3     1  UNL1        0.0208
     14 N          -2.3194   -3.2893   -0.2251 N.3     1  UNL1       -0.3259
     15 C          -2.9801   -1.8031    1.5714 C.3     1  UNL1        0.0300
     16 N          -0.4325    0.6208    1.0223 N.ar    1  UNL1       -0.3030
     17 C          -0.9790    1.8085    1.6212 C.3     1  UNL1        0.0530
     18 C          -1.2622    2.7892    0.5600 C.ar    1  UNL1       -0.0067
     19 C          -0.9936    2.5918   -0.7665 C.ar    1  UNL1       -0.0202
     20 C          -1.2655    3.5295   -1.7270 C.ar    1  UNL1        0.1238
     21 F          -1.0085    3.3569   -3.0402 F       1  UNL1       -0.2055
     22 C          -1.8428    4.7396   -1.3305 C.ar    1  UNL1       -0.0251
     23 C          -2.1190    4.9557   -0.0031 C.ar    1  UNL1       -0.0404
     24 C          -1.8353    3.9966    0.9379 C.ar    1  UNL1        0.0460
     25 CL         -2.2027    4.3124    2.6194 Cl      1  UNL1       -0.0832
     26 C           2.2976   -1.1722   -0.1679 C.ar    1  UNL1        0.0263
     27 C           2.5170   -2.3952   -0.7551 C.ar    1  UNL1       -0.0497
     28 C           3.7736   -2.8261   -1.1153 C.ar    1  UNL1       -0.0470
     29 C           4.8759   -2.0120   -0.8869 C.ar    1  UNL1        0.0608
     30 C           6.2099   -2.4681   -1.2591 C.2     1  UNL1        0.3369
     31 O           7.1873   -1.7184   -1.0596 O.2     1  UNL1       -0.2451
     32 O           6.4142   -3.7136   -1.8287 O.3     1  UNL1       -0.4771
     33 C           4.6475   -0.7913   -0.2995 C.ar    1  UNL1       -0.0235
     34 C           3.3930   -0.3366    0.0706 C.ar    1  UNL1        0.0546
     35 H           4.9003    1.9385   -0.0864 H       1  UNL1        0.0457
     36 H           5.1079    1.2677    1.5910 H       1  UNL1        0.0457
     37 H           4.0370    2.7233    1.2579 H       1  UNL1        0.0457
     38 H          -3.3123    0.9869   -0.3786 H       1  UNL1        0.0464
     39 H          -4.3481    0.2324    0.8812 H       1  UNL1        0.0464
     40 H          -3.6500   -0.8777   -1.8559 H       1  UNL1        0.0281
     41 H          -5.1958   -0.3717   -1.1451 H       1  UNL1        0.0281
     42 H          -5.4957   -2.2096    0.1851 H       1  UNL1        0.0281
     43 H          -4.6269   -2.9255   -1.2265 H       1  UNL1        0.0281
     44 H          -3.8989   -3.6661    1.0896 H       1  UNL1        0.0474
     45 H          -2.2747   -2.7892   -1.1558 H       1  UNL1        0.1185
     46 H          -2.4325   -4.3099   -0.4254 H       1  UNL1        0.1185
     47 H          -3.8070   -1.4256    2.1623 H       1  UNL1        0.0480
     48 H          -2.1312   -2.2285    2.1322 H       1  UNL1        0.0480
     49 H          -0.2676    2.2195    2.3455 H       1  UNL1        0.0543
     50 H          -1.9295    1.5870    2.1617 H       1  UNL1        0.0543
     51 H          -0.5459    1.6570   -1.0817 H       1  UNL1        0.0650
     52 H          -2.0706    5.5008   -2.0621 H       1  UNL1        0.0647
     53 H          -2.5639    5.8901    0.2980 H       1  UNL1        0.0633
     54 H           1.6618   -3.0515   -0.9416 H       1  UNL1        0.0625
     55 H           3.9556   -3.8024   -1.5857 H       1  UNL1        0.0626
     56 H           7.3782   -4.0844   -1.8412 H       1  UNL1        0.2954
     57 H           5.4761   -0.1195   -0.0992 H       1  UNL1        0.0646
@<TRIPOS>BOND
     1     1     2    1
     2     2     3   ar
     3     3     4    2
     4     3     5   ar
     5     5     6   ar
     6     6     7   ar
     7     7     8   ar
     8     8     9    1
     9     9    10    1
    10    10    11    1
    11    11    12    1
    12    12    13    1
    13    13    14    1
    14    13    15    1
    15     8    16   ar
    16    16    17    1
    17    17    18    1
    18    18    19   ar
    19    19    20   ar
    20    20    21    1
    21    20    22   ar
    22    22    23   ar
    23    23    24   ar
    24    24    25    1
    25     6    26   ar
    26    26    27   ar
    27    27    28   ar
    28    28    29   ar
    29    29    30    1
    30    30    31    2
    31    30    32    1
    32    29    33   ar
    33    33    34   ar
    34    34     2   ar
    35    16     5   ar
    36    24    18   ar
    37    34    26   ar
    38    15     9    1
    39     1    35    1
    40     1    36    1
    41     1    37    1
    42    10    38    1
    43    10    39    1
    44    11    40    1
    45    11    41    1
    46    12    42    1
    47    12    43    1
    48    13    44    1
    49    14    45    1
    50    14    46    1
    51    15    47    1
    52    15    48    1
    53    17    49    1
    54    17    50    1
    55    19    51    1
    56    22    52    1
    57    23    53    1
    58    27    54    1
    59    28    55    1
    60    32    56    1
    61    33    57    1
