@<TRIPOS>MOLECULE
*****
 49 53 0 0 0
SMALL
GASTEIGER

@<TRIPOS>ATOM
      1 N          -4.1519    2.9518    3.0019 N.1     1  UNL1       -0.1892
      2 C          -3.6881    3.0522    1.9459 C.1     1  UNL1        0.1208
      3 C          -3.1225    3.1993    0.6286 C.ar    1  UNL1        0.1618
      4 C          -3.4187    4.2385   -0.2232 C.ar    1  UNL1        0.0659
      5 N          -2.7076    4.0265   -1.3309 N.ar    1  UNL1       -0.2333
      6 C          -1.9687    2.8907   -1.2181 C.ar    1  UNL1        0.1555
      7 C          -1.0870    2.2400   -2.0563 C.ar    1  UNL1       -0.0153
      8 C          -0.5073    1.0781   -1.5936 C.ar    1  UNL1       -0.0290
      9 C          -0.7957    0.5796   -0.3371 C.ar    1  UNL1        0.1103
     10 C          -0.1637   -0.6677    0.1413 C.ar    1  UNL1        0.0969
     11 C          -0.8293   -1.8109    0.4811 C.ar    1  UNL1        0.0982
     12 C          -2.2628   -2.0345    0.4440 C.ar    1  UNL1        0.0027
     13 C          -2.9069   -1.9663   -0.7704 C.ar    1  UNL1       -0.0498
     14 C          -4.2714   -2.1777   -0.8158 C.ar    1  UNL1       -0.0258
     15 C          -5.0016   -2.4521    0.3058 C.ar    1  UNL1        0.1234
     16 F          -6.3569   -2.6590    0.2377 F       1  UNL1       -0.2055
     17 C          -4.3636   -2.5224    1.5279 C.ar    1  UNL1       -0.0258
     18 C          -2.9897   -2.3106    1.5807 C.ar    1  UNL1       -0.0498
     19 N           0.1108   -2.7221    0.8689 N.ar    1  UNL1       -0.2351
     20 C           1.3161   -2.1326    0.7621 C.ar    1  UNL1        0.0974
     21 N           1.1558   -0.8687    0.3151 N.ar    1  UNL1       -0.3228
     22 C           2.2269    0.0768    0.0758 C.3     1  UNL1        0.0619
     23 C           3.1061    0.2602    1.2821 C.3     1  UNL1       -0.0296
     24 C           4.4374   -0.4491    1.1529 C.3     1  UNL1       -0.0510
     25 C           5.1937    0.2320    0.0347 C.3     1  UNL1       -0.0506
     26 C           4.3239    0.5222   -1.1534 C.3     1  UNL1       -0.0249
     27 C           3.0463   -0.2980   -1.1386 C.3     1  UNL1        0.0759
     28 O           3.3996   -1.6268   -1.1697 O.3     1  UNL1       -0.3897
     29 N          -1.6639    1.2635    0.4286 N.ar    1  UNL1       -0.1623
     30 N          -2.2372    2.3824    0.0126 N.ar    1  UNL1       -0.2023
     31 H          -4.0962    5.0872   -0.0606 H       1  UNL1        0.0859
     32 H          -0.8647    2.6344   -3.0385 H       1  UNL1        0.0655
     33 H           0.1980    0.5375   -2.2358 H       1  UNL1        0.0641
     34 H          -2.3461   -1.7490   -1.6786 H       1  UNL1        0.0625
     35 H          -4.7484   -2.1174   -1.7838 H       1  UNL1        0.0646
     36 H          -4.9727   -2.7413    2.3923 H       1  UNL1        0.0646
     37 H          -2.5105   -2.3703    2.5481 H       1  UNL1        0.0625
     38 H           2.2280   -2.6629    1.0167 H       1  UNL1        0.1029
     39 H           1.7683    1.0640   -0.1431 H       1  UNL1        0.0554
     40 H           2.5636   -0.0801    2.1843 H       1  UNL1        0.0286
     41 H           3.3370    1.3320    1.4425 H       1  UNL1        0.0286
     42 H           4.9741   -0.2887    2.1136 H       1  UNL1        0.0266
     43 H           4.3440   -1.5329    1.0202 H       1  UNL1        0.0266
     44 H           5.5646    1.2025    0.4240 H       1  UNL1        0.0266
     45 H           6.0938   -0.3505   -0.2462 H       1  UNL1        0.0266
     46 H           4.8904    0.2772   -2.0644 H       1  UNL1        0.0291
     47 H           4.0328    1.6051   -1.1803 H       1  UNL1        0.0291
     48 H           2.5160   -0.0672   -2.0857 H       1  UNL1        0.0614
     49 H           3.2057   -2.0752   -2.0453 H       1  UNL1        0.2099
@<TRIPOS>BOND
     1     1     2    3
     2     2     3    1
     3     3     4   ar
     4     4     5   ar
     5     5     6   ar
     6     6     7   ar
     7     7     8   ar
     8     8     9   ar
     9     9    10    1
    10    10    11   ar
    11    11    12    1
    12    12    13   ar
    13    13    14   ar
    14    14    15   ar
    15    15    16    1
    16    15    17   ar
    17    17    18   ar
    18    11    19   ar
    19    19    20   ar
    20    20    21   ar
    21    21    22    1
    22    22    23    1
    23    23    24    1
    24    24    25    1
    25    25    26    1
    26    26    27    1
    27    27    28    1
    28     9    29   ar
    29    29    30   ar
    30    30     3   ar
    31    30     6   ar
    32    21    10   ar
    33    27    22    1
    34    18    12   ar
    35     4    31    1
    36     7    32    1
    37     8    33    1
    38    13    34    1
    39    14    35    1
    40    17    36    1
    41    18    37    1
    42    20    38    1
    43    22    39    1
    44    23    40    1
    45    23    41    1
    46    24    42    1
    47    24    43    1
    48    25    44    1
    49    25    45    1
    50    26    46    1
    51    26    47    1
    52    27    48    1
    53    28    49    1
