
     RDKit          3D

 46 49  0  0  0  0  0  0  0  0999 V2000
    6.0364   -1.7872    1.0362 O   0  0  0  0  0  0  0  0  0  0  0  0
    6.0528   -0.5675    1.3667 C   0  0  0  0  0  0  0  0  0  0  0  0
    7.2985    0.0609    1.3326 O   0  0  0  0  0  0  0  0  0  0  0  0
    4.8231    0.1701    1.7713 C   0  0  0  0  0  0  0  0  0  0  0  0
    4.6495    1.3277    0.7875 C   0  0  0  0  0  0  0  0  0  0  0  0
    4.4909    0.7011   -0.5774 C   0  0  0  0  0  0  0  0  0  0  0  0
    3.1651    0.1375   -0.6497 N   0  0  0  0  0  0  0  0  0  0  0  0
    2.3053    1.0556   -1.3439 C   0  0  0  0  0  0  0  0  0  0  0  0
    0.9136    0.5681   -1.5195 C   0  0  0  0  0  0  0  0  0  0  0  0
    0.5768   -0.2064   -2.6259 C   0  0  0  0  0  0  0  0  0  0  0  0
   -0.6997   -0.6745   -2.8346 C   0  0  0  0  0  0  0  0  0  0  0  0
   -1.7089   -0.3843   -1.9334 C   0  0  0  0  0  0  0  0  0  0  0  0
   -2.9904   -0.8513   -2.1380 O   0  0  0  0  0  0  0  0  0  0  0  0
   -4.0452   -0.6149   -1.3043 C   0  0  0  0  0  0  0  0  0  0  0  0
   -4.4234   -0.0859   -0.2881 N   0  0  0  0  0  0  0  0  0  0  0  0
   -5.5854   -0.0519    0.2649 C   0  0  0  0  0  0  0  0  0  0  0  0
   -5.9745    0.5898    1.4676 C   0  0  0  0  0  0  0  0  0  0  0  0
   -7.2712    0.4957    1.8716 C   0  0  0  0  0  0  0  0  0  0  0  0
   -8.2603   -0.1785    1.2074 C   0  0  0  0  0  0  0  0  0  0  0  0
   -7.8909   -0.8124    0.0258 C   0  0  0  0  0  0  0  0  0  0  0  0
   -6.6200   -0.7442   -0.4091 C   0  0  0  0  0  0  0  0  0  0  0  0
   -5.6957   -1.3781   -1.8285 S   0  0  0  0  0  0  0  0  0  0  0  0
   -1.3784    0.3825   -0.8370 C   0  0  0  0  0  0  0  0  0  0  0  0
   -0.0939    0.8528   -0.6284 C   0  0  0  0  0  0  0  0  0  0  0  0
    2.6268   -0.1853    0.6214 C   0  0  0  0  0  0  0  0  0  0  0  0
    3.6443   -0.7641    1.5824 C   0  0  0  0  0  0  0  0  0  0  0  0
    8.1457   -0.4040    1.6327 H   0  0  0  0  0  0  0  0  0  0  0  0
    4.9371    0.5227    2.7978 H   0  0  0  0  0  0  0  0  0  0  0  0
    5.5258    2.0115    0.8285 H   0  0  0  0  0  0  0  0  0  0  0  0
    3.7396    1.8714    1.1105 H   0  0  0  0  0  0  0  0  0  0  0  0
    5.2803   -0.0823   -0.6956 H   0  0  0  0  0  0  0  0  0  0  0  0
    4.6250    1.4857   -1.3720 H   0  0  0  0  0  0  0  0  0  0  0  0
    2.2872    2.0687   -0.8441 H   0  0  0  0  0  0  0  0  0  0  0  0
    2.6838    1.2849   -2.3807 H   0  0  0  0  0  0  0  0  0  0  0  0
    1.3966   -0.4154   -3.3149 H   0  0  0  0  0  0  0  0  0  0  0  0
   -0.9177   -1.2829   -3.7237 H   0  0  0  0  0  0  0  0  0  0  0  0
   -5.2761    1.1478    2.0690 H   0  0  0  0  0  0  0  0  0  0  0  0
   -7.5311    1.0109    2.8147 H   0  0  0  0  0  0  0  0  0  0  0  0
   -9.2472   -0.2125    1.5757 H   0  0  0  0  0  0  0  0  0  0  0  0
   -8.6040   -1.3772   -0.5801 H   0  0  0  0  0  0  0  0  0  0  0  0
   -2.1790    0.6094   -0.1274 H   0  0  0  0  0  0  0  0  0  0  0  0
    0.1078    1.4618    0.2591 H   0  0  0  0  0  0  0  0  0  0  0  0
    1.8444   -0.9645    0.4953 H   0  0  0  0  0  0  0  0  0  0  0  0
    2.1377    0.6474    1.1614 H   0  0  0  0  0  0  0  0  0  0  0  0
    3.1362   -0.8326    2.5694 H   0  0  0  0  0  0  0  0  0  0  0  0
    3.9626   -1.7802    1.3070 H   0  0  0  0  0  0  0  0  0  0  0  0
  1  2  2  0
  2  3  1  0
  2  4  1  0
  4  5  1  0
  5  6  1  0
  6  7  1  0
  7  8  1  0
  8  9  1  0
  9 10  2  0
 10 11  1  0
 11 12  2  0
 12 13  1  0
 13 14  1  0
 14 15  2  0
 15 16  1  0
 16 17  2  0
 17 18  1  0
 18 19  2  0
 19 20  1  0
 20 21  2  0
 21 22  1  0
 12 23  1  0
 23 24  2  0
  7 25  1  0
 25 26  1  0
 26  4  1  0
 24  9  1  0
 22 14  1  0
 21 16  1  0
  3 27  1  0
  4 28  1  0
  5 29  1  0
  5 30  1  0
  6 31  1  0
  6 32  1  0
  8 33  1  0
  8 34  1  0
 10 35  1  0
 11 36  1  0
 17 37  1  0
 18 38  1  0
 19 39  1  0
 20 40  1  0
 23 41  1  0
 24 42  1  0
 25 43  1  0
 25 44  1  0
 26 45  1  0
 26 46  1  0
M  END
$$$$
