@<TRIPOS>MOLECULE
*****
 46 49 0 0 0
SMALL
GASTEIGER

@<TRIPOS>ATOM
      1 O           6.0364   -1.7872    1.0362 O.2     1  UNL1       -0.2507
      2 C           6.0528   -0.5675    1.3667 C.2     1  UNL1        0.3079
      3 O           7.2985    0.0609    1.3326 O.3     1  UNL1       -0.4804
      4 C           4.8231    0.1701    1.7713 C.3     1  UNL1        0.0586
      5 C           4.6495    1.3277    0.7875 C.3     1  UNL1       -0.0272
      6 C           4.4909    0.7011   -0.5774 C.3     1  UNL1       -0.0000
      7 N           3.1651    0.1375   -0.6497 N.3     1  UNL1       -0.2981
      8 C           2.3053    1.0556   -1.3439 C.3     1  UNL1        0.0240
      9 C           0.9136    0.5681   -1.5195 C.ar    1  UNL1       -0.0331
     10 C           0.5768   -0.2064   -2.6259 C.ar    1  UNL1       -0.0539
     11 C          -0.6997   -0.6745   -2.8346 C.ar    1  UNL1       -0.0190
     12 C          -1.7089   -0.3843   -1.9334 C.ar    1  UNL1        0.1309
     13 O          -2.9904   -0.8513   -2.1380 O.3     1  UNL1       -0.4326
     14 C          -4.0452   -0.6149   -1.3043 C.ar    1  UNL1        0.2627
     15 N          -4.4234   -0.0859   -0.2881 N.ar    1  UNL1       -0.2057
     16 C          -5.5854   -0.0519    0.2649 C.ar    1  UNL1        0.0820
     17 C          -5.9745    0.5898    1.4676 C.ar    1  UNL1       -0.0351
     18 C          -7.2712    0.4957    1.8716 C.ar    1  UNL1       -0.0597
     19 C          -8.2603   -0.1785    1.2074 C.ar    1  UNL1       -0.0606
     20 C          -7.8909   -0.8124    0.0258 C.ar    1  UNL1       -0.0458
     21 C          -6.6200   -0.7442   -0.4091 C.ar    1  UNL1        0.0425
     22 S          -5.6957   -1.3781   -1.8285 S.2     1  UNL1       -0.0290
     23 C          -1.3784    0.3825   -0.8370 C.ar    1  UNL1       -0.0190
     24 C          -0.0939    0.8528   -0.6284 C.ar    1  UNL1       -0.0539
     25 C           2.6268   -0.1853    0.6214 C.3     1  UNL1       -0.0000
     26 C           3.6443   -0.7641    1.5824 C.3     1  UNL1       -0.0272
     27 H           8.1457   -0.4040    1.6327 H       1  UNL1        0.2951
     28 H           4.9371    0.5227    2.7978 H       1  UNL1        0.0414
     29 H           5.5258    2.0115    0.8285 H       1  UNL1        0.0285
     30 H           3.7396    1.8714    1.1105 H       1  UNL1        0.0285
     31 H           5.2803   -0.0823   -0.6956 H       1  UNL1        0.0427
     32 H           4.6250    1.4857   -1.3720 H       1  UNL1        0.0427
     33 H           2.2872    2.0687   -0.8441 H       1  UNL1        0.0476
     34 H           2.6838    1.2849   -2.3807 H       1  UNL1        0.0476
     35 H           1.3966   -0.4154   -3.3149 H       1  UNL1        0.0622
     36 H          -0.9177   -1.2829   -3.7237 H       1  UNL1        0.0654
     37 H          -5.2761    1.1478    2.0690 H       1  UNL1        0.0639
     38 H          -7.5311    1.0109    2.8147 H       1  UNL1        0.0618
     39 H          -9.2472   -0.2125    1.5757 H       1  UNL1        0.0618
     40 H          -8.6040   -1.3772   -0.5801 H       1  UNL1        0.0629
     41 H          -2.1790    0.6094   -0.1274 H       1  UNL1        0.0654
     42 H           0.1078    1.4618    0.2591 H       1  UNL1        0.0622
     43 H           1.8444   -0.9645    0.4953 H       1  UNL1        0.0427
     44 H           2.1377    0.6474    1.1614 H       1  UNL1        0.0427
     45 H           3.1362   -0.8326    2.5694 H       1  UNL1        0.0285
     46 H           3.9626   -1.7802    1.3070 H       1  UNL1        0.0285
@<TRIPOS>BOND
     1     1     2    2
     2     2     3    1
     3     2     4    1
     4     4     5    1
     5     5     6    1
     6     6     7    1
     7     7     8    1
     8     8     9    1
     9     9    10   ar
    10    10    11   ar
    11    11    12   ar
    12    12    13    1
    13    13    14    1
    14    14    15   ar
    15    15    16   ar
    16    16    17   ar
    17    17    18   ar
    18    18    19   ar
    19    19    20   ar
    20    20    21   ar
    21    21    22   ar
    22    12    23   ar
    23    23    24   ar
    24     7    25    1
    25    25    26    1
    26    26     4    1
    27    24     9   ar
    28    22    14   ar
    29    21    16   ar
    30     3    27    1
    31     4    28    1
    32     5    29    1
    33     5    30    1
    34     6    31    1
    35     6    32    1
    36     8    33    1
    37     8    34    1
    38    10    35    1
    39    11    36    1
    40    17    37    1
    41    18    38    1
    42    19    39    1
    43    20    40    1
    44    23    41    1
    45    24    42    1
    46    25    43    1
    47    25    44    1
    48    26    45    1
    49    26    46    1
