@<TRIPOS>MOLECULE
*****
 48 51 0 0 0
SMALL
GASTEIGER

@<TRIPOS>ATOM
      1 C          -1.1439   -0.4469    1.5919 C.3     1  UNL1       -0.0352
      2 C          -1.7260    0.3159    0.4011 C.3     1  UNL1        0.0950
      3 C          -0.5892    0.8234   -0.4367 C.ar    1  UNL1        0.0168
      4 C           0.7397    0.5168   -0.1182 C.ar    1  UNL1       -0.0323
      5 C           1.8134    0.9483   -0.8418 C.ar    1  UNL1        0.0342
      6 N           3.1432    0.6358   -0.5154 N.am    1  UNL1       -0.2802
      7 C           3.6369   -0.1326    0.5475 C.2     1  UNL1        0.2666
      8 O           2.8319   -0.6415    1.3577 O.2     1  UNL1       -0.2682
      9 C           5.0645   -0.3688    0.7541 C.ar    1  UNL1        0.1258
     10 C           5.5254   -1.1228    1.7979 C.ar    1  UNL1       -0.0285
     11 C           6.8958   -1.3361    1.9762 C.ar    1  UNL1       -0.0228
     12 C           7.7556   -0.7705    1.0797 C.ar    1  UNL1        0.1414
     13 F           9.0916   -0.9516    1.2146 F       1  UNL1       -0.2039
     14 C           7.2801   -0.0123    0.0312 C.ar    1  UNL1        0.0636
     15 N           5.9339    0.1727   -0.1085 N.ar    1  UNL1       -0.2475
     16 C           1.5352    1.7433   -1.9639 C.ar    1  UNL1       -0.0377
     17 C           0.2594    2.0690   -2.3151 C.ar    1  UNL1       -0.0243
     18 C          -0.8069    1.6064   -1.5472 C.ar    1  UNL1        0.1290
     19 F          -2.0630    1.9493   -1.9250 F       1  UNL1       -0.2051
     20 C          -2.5706   -0.6530   -0.3525 C.3     1  UNL1        0.0166
     21 C          -4.0409   -0.4794   -0.2245 C.3     1  UNL1        0.1160
     22 C          -4.8179   -1.2359   -1.3036 C.3     1  UNL1       -0.0126
     23 C          -4.8456   -2.4093   -0.3222 C.3     1  UNL1       -0.0458
     24 C          -4.7483   -1.3571    0.7867 C.3     1  UNL1       -0.0126
     25 O          -4.4355    0.8698   -0.0882 O.2     1  UNL1       -0.4592
     26 C          -3.6713    1.6983    0.7062 C.2     1  UNL1        0.2765
     27 N          -4.3021    2.8624    1.2822 N.pl3   1  UNL1       -0.3133
     28 N          -2.4596    1.4405    0.9183 N.2     1  UNL1       -0.2257
     29 H          -0.6396   -1.3707    1.2878 H       1  UNL1        0.0256
     30 H          -2.0170   -0.7889    2.2252 H       1  UNL1        0.0256
     31 H          -0.5268    0.2324    2.2104 H       1  UNL1        0.0256
     32 H           0.8399   -0.0989    0.7608 H       1  UNL1        0.0640
     33 H           3.9204    1.0274   -1.1536 H       1  UNL1        0.1552
     34 H           4.8344   -1.5585    2.4913 H       1  UNL1        0.0641
     35 H           7.2419   -1.9386    2.8122 H       1  UNL1        0.0647
     36 H           7.9295    0.4528   -0.7005 H       1  UNL1        0.0859
     37 H           2.3716    2.0929   -2.5471 H       1  UNL1        0.0637
     38 H           0.0828    2.6751   -3.1740 H       1  UNL1        0.0647
     39 H          -2.2939   -0.5752   -1.4464 H       1  UNL1        0.0330
     40 H          -2.2925   -1.7171   -0.0992 H       1  UNL1        0.0330
     41 H          -4.2456   -1.4185   -2.2131 H       1  UNL1        0.0304
     42 H          -5.8202   -0.7707   -1.4397 H       1  UNL1        0.0304
     43 H          -5.7774   -2.9778   -0.3223 H       1  UNL1        0.0268
     44 H          -3.8986   -2.9624   -0.3663 H       1  UNL1        0.0268
     45 H          -4.1747   -1.6665    1.6565 H       1  UNL1        0.0304
     46 H          -5.7650   -0.9538    0.9701 H       1  UNL1        0.0304
     47 H          -5.1532    2.7781    1.8591 H       1  UNL1        0.1466
     48 H          -3.9018    3.8047    1.1201 H       1  UNL1        0.1466
@<TRIPOS>BOND
     1     2     1    1
     2     2     3    1
     3     3     4   ar
     4     4     5   ar
     5     5     6    1
     6     6     7   am
     7     7     8    2
     8     7     9    1
     9     9    10   ar
    10    10    11   ar
    11    11    12   ar
    12    12    13    1
    13    12    14   ar
    14    14    15   ar
    15     5    16   ar
    16    16    17   ar
    17    17    18   ar
    18    18    19    1
    19     2    20    1
    20    20    21    1
    21    21    22    1
    22    22    23    1
    23    23    24    1
    24    21    25    1
    25    25    26    1
    26    26    27    1
    27    26    28    2
    28    28     2    1
    29    18     3   ar
    30    24    21    1
    31    15     9   ar
    32     1    29    1
    33     1    30    1
    34     1    31    1
    35     4    32    1
    36     6    33    1
    37    10    34    1
    38    11    35    1
    39    14    36    1
    40    16    37    1
    41    17    38    1
    42    20    39    1
    43    20    40    1
    44    22    41    1
    45    22    42    1
    46    23    43    1
    47    23    44    1
    48    24    45    1
    49    24    46    1
    50    27    47    1
    51    27    48    1
