
     RDKit          3D

 48 51  0  0  0  0  0  0  0  0999 V2000
   -1.1439   -0.4469    1.5919 C   0  0  0  0  0  0  0  0  0  0  0  0
   -1.7260    0.3159    0.4011 C   0  0  1  0  0  0  0  0  0  0  0  0
   -0.5892    0.8234   -0.4367 C   0  0  0  0  0  0  0  0  0  0  0  0
    0.7397    0.5168   -0.1182 C   0  0  0  0  0  0  0  0  0  0  0  0
    1.8134    0.9483   -0.8418 C   0  0  0  0  0  0  0  0  0  0  0  0
    3.1432    0.6358   -0.5154 N   0  0  0  0  0  0  0  0  0  0  0  0
    3.6369   -0.1326    0.5475 C   0  0  0  0  0  0  0  0  0  0  0  0
    2.8319   -0.6415    1.3577 O   0  0  0  0  0  0  0  0  0  0  0  0
    5.0645   -0.3688    0.7541 C   0  0  0  0  0  0  0  0  0  0  0  0
    5.5254   -1.1228    1.7979 C   0  0  0  0  0  0  0  0  0  0  0  0
    6.8958   -1.3361    1.9762 C   0  0  0  0  0  0  0  0  0  0  0  0
    7.7556   -0.7705    1.0797 C   0  0  0  0  0  0  0  0  0  0  0  0
    9.0916   -0.9516    1.2146 F   0  0  0  0  0  0  0  0  0  0  0  0
    7.2801   -0.0123    0.0312 C   0  0  0  0  0  0  0  0  0  0  0  0
    5.9339    0.1727   -0.1085 N   0  0  0  0  0  0  0  0  0  0  0  0
    1.5352    1.7433   -1.9639 C   0  0  0  0  0  0  0  0  0  0  0  0
    0.2594    2.0690   -2.3151 C   0  0  0  0  0  0  0  0  0  0  0  0
   -0.8069    1.6064   -1.5472 C   0  0  0  0  0  0  0  0  0  0  0  0
   -2.0630    1.9493   -1.9250 F   0  0  0  0  0  0  0  0  0  0  0  0
   -2.5706   -0.6530   -0.3525 C   0  0  0  0  0  0  0  0  0  0  0  0
   -4.0409   -0.4794   -0.2245 C   0  0  0  0  0  0  0  0  0  0  0  0
   -4.8179   -1.2359   -1.3036 C   0  0  0  0  0  0  0  0  0  0  0  0
   -4.8456   -2.4093   -0.3222 C   0  0  0  0  0  0  0  0  0  0  0  0
   -4.7483   -1.3571    0.7867 C   0  0  0  0  0  0  0  0  0  0  0  0
   -4.4355    0.8698   -0.0882 O   0  0  0  0  0  0  0  0  0  0  0  0
   -3.6713    1.6983    0.7062 C   0  0  0  0  0  0  0  0  0  0  0  0
   -4.3021    2.8624    1.2822 N   0  0  0  0  0  0  0  0  0  0  0  0
   -2.4596    1.4405    0.9183 N   0  0  0  0  0  0  0  0  0  0  0  0
   -0.6396   -1.3707    1.2878 H   0  0  0  0  0  0  0  0  0  0  0  0
   -2.0170   -0.7889    2.2252 H   0  0  0  0  0  0  0  0  0  0  0  0
   -0.5268    0.2324    2.2104 H   0  0  0  0  0  0  0  0  0  0  0  0
    0.8399   -0.0989    0.7608 H   0  0  0  0  0  0  0  0  0  0  0  0
    3.9204    1.0274   -1.1536 H   0  0  0  0  0  0  0  0  0  0  0  0
    4.8344   -1.5585    2.4913 H   0  0  0  0  0  0  0  0  0  0  0  0
    7.2419   -1.9386    2.8122 H   0  0  0  0  0  0  0  0  0  0  0  0
    7.9295    0.4528   -0.7005 H   0  0  0  0  0  0  0  0  0  0  0  0
    2.3716    2.0929   -2.5471 H   0  0  0  0  0  0  0  0  0  0  0  0
    0.0828    2.6751   -3.1740 H   0  0  0  0  0  0  0  0  0  0  0  0
   -2.2939   -0.5752   -1.4464 H   0  0  0  0  0  0  0  0  0  0  0  0
   -2.2925   -1.7171   -0.0992 H   0  0  0  0  0  0  0  0  0  0  0  0
   -4.2456   -1.4185   -2.2131 H   0  0  0  0  0  0  0  0  0  0  0  0
   -5.8202   -0.7707   -1.4397 H   0  0  0  0  0  0  0  0  0  0  0  0
   -5.7774   -2.9778   -0.3223 H   0  0  0  0  0  0  0  0  0  0  0  0
   -3.8986   -2.9624   -0.3663 H   0  0  0  0  0  0  0  0  0  0  0  0
   -4.1747   -1.6665    1.6565 H   0  0  0  0  0  0  0  0  0  0  0  0
   -5.7650   -0.9538    0.9701 H   0  0  0  0  0  0  0  0  0  0  0  0
   -5.1532    2.7781    1.8591 H   0  0  0  0  0  0  0  0  0  0  0  0
   -3.9018    3.8047    1.1201 H   0  0  0  0  0  0  0  0  0  0  0  0
  2  1  1  1
  2  3  1  0
  3  4  2  0
  4  5  1  0
  5  6  1  0
  6  7  1  0
  7  8  2  0
  7  9  1  0
  9 10  2  0
 10 11  1  0
 11 12  2  0
 12 13  1  0
 12 14  1  0
 14 15  2  0
  5 16  2  0
 16 17  1  0
 17 18  2  0
 18 19  1  0
  2 20  1  0
 20 21  1  0
 21 22  1  0
 22 23  1  0
 23 24  1  0
 21 25  1  0
 25 26  1  0
 26 27  1  0
 26 28  2  0
 28  2  1  0
 18  3  1  0
 24 21  1  0
 15  9  1  0
  1 29  1  0
  1 30  1  0
  1 31  1  0
  4 32  1  0
  6 33  1  0
 10 34  1  0
 11 35  1  0
 14 36  1  0
 16 37  1  0
 17 38  1  0
 20 39  1  0
 20 40  1  0
 22 41  1  0
 22 42  1  0
 23 43  1  0
 23 44  1  0
 24 45  1  0
 24 46  1  0
 27 47  1  0
 27 48  1  0
M  END
$$$$
