
     RDKit          3D

 63 65  0  0  0  0  0  0  0  0999 V2000
  -10.7141   -0.6820    0.5578 C   0  0  0  0  0  0  0  0  0  0  0  0
   -9.8977    0.1387   -0.4282 C   0  0  0  0  0  0  0  0  0  0  0  0
   -8.5204   -0.1475   -0.2120 O   0  0  0  0  0  0  0  0  0  0  0  0
   -7.5560    0.4667   -0.9762 C   0  0  0  0  0  0  0  0  0  0  0  0
   -7.8853    1.2791   -1.8640 O   0  0  0  0  0  0  0  0  0  0  0  0
   -6.1311    0.1903   -0.7748 C   0  0  0  0  0  0  0  0  0  0  0  0
   -5.7845   -0.7063    0.2042 C   0  0  0  0  0  0  0  0  0  0  0  0
   -4.4508   -1.0103    0.4423 C   0  0  0  0  0  0  0  0  0  0  0  0
   -4.1094   -1.9616    1.4793 C   0  0  0  0  0  0  0  0  0  0  0  0
   -3.8166   -2.7191    2.3186 N   0  0  0  0  0  0  0  0  0  0  0  0
   -3.4638   -0.4165   -0.2998 C   0  0  0  0  0  0  0  0  0  0  0  0
   -2.1006   -0.7137   -0.0689 N   0  0  0  0  0  0  0  0  0  0  0  0
   -1.4476   -0.4626    1.1775 C   0  0  0  0  0  0  0  0  0  0  0  0
   -0.0744    0.1180    1.0376 C   0  0  0  0  0  0  0  0  0  0  0  0
    0.3118    0.5279   -0.3411 C   0  0  0  0  0  0  0  0  0  0  0  0
    1.7872    0.6038   -0.4426 C   0  0  0  0  0  0  0  0  0  0  0  0
    2.3055    1.7017   -0.7482 O   0  0  0  0  0  0  0  0  0  0  0  0
    2.6457   -0.4961   -0.2135 N   0  0  0  0  0  0  0  0  0  0  0  0
    4.3537   -0.4454   -0.3219 S   0  0  0  0  0  6  0  0  0  0  0  0
    4.8226    0.5132   -1.3850 O   0  0  0  0  0  0  0  0  0  0  0  0
    4.8379   -1.8068   -0.7325 O   0  0  0  0  0  0  0  0  0  0  0  0
    5.1207   -0.0320    1.2261 C   0  0  0  0  0  0  0  0  0  0  0  0
    6.5860   -0.0235    0.9926 C   0  0  0  0  0  0  0  0  0  0  0  0
    7.3158   -1.1523    1.1618 C   0  0  0  0  0  0  0  0  0  0  0  0
    8.6830   -1.1086    0.9340 C   0  0  0  0  0  0  0  0  0  0  0  0
    9.3209    0.0350    0.5444 C   0  0  0  0  0  0  0  0  0  0  0  0
   10.6963    0.0611    0.3197 O   0  0  0  0  0  0  0  0  0  0  0  0
   11.3029    1.2686   -0.0809 C   0  0  0  0  0  0  0  0  0  0  0  0
    8.5490    1.1714    0.3800 C   0  0  0  0  0  0  0  0  0  0  0  0
    7.1916    1.1459    0.6016 C   0  0  0  0  0  0  0  0  0  0  0  0
   -0.2259   -0.3055   -1.4503 C   0  0  0  0  0  0  0  0  0  0  0  0
   -1.2734   -1.2977   -1.1054 C   0  0  0  0  0  0  0  0  0  0  0  0
   -3.8628    0.4581   -1.2500 N   0  0  0  0  0  0  0  0  0  0  0  0
   -5.1294    0.7705   -1.5028 C   0  0  0  0  0  0  0  0  0  0  0  0
   -5.4972    1.7556   -2.5794 C   0  0  0  0  0  0  0  0  0  0  0  0
  -10.7535   -1.7358    0.2486 H   0  0  0  0  0  0  0  0  0  0  0  0
  -11.7433   -0.2500    0.5316 H   0  0  0  0  0  0  0  0  0  0  0  0
  -10.2396   -0.6147    1.5465 H   0  0  0  0  0  0  0  0  0  0  0  0
  -10.1289   -0.0999   -1.4748 H   0  0  0  0  0  0  0  0  0  0  0  0
  -10.0291    1.2192   -0.2001 H   0  0  0  0  0  0  0  0  0  0  0  0
   -6.5265   -1.1997    0.8149 H   0  0  0  0  0  0  0  0  0  0  0  0
   -1.4255   -1.4129    1.7509 H   0  0  0  0  0  0  0  0  0  0  0  0
   -2.1289    0.2179    1.7686 H   0  0  0  0  0  0  0  0  0  0  0  0
    0.6474   -0.6346    1.4189 H   0  0  0  0  0  0  0  0  0  0  0  0
   -0.0068    0.9766    1.7396 H   0  0  0  0  0  0  0  0  0  0  0  0
   -0.0701    1.5590   -0.4883 H   0  0  0  0  0  0  0  0  0  0  0  0
    2.2004   -1.4034    0.0410 H   0  0  0  0  0  0  0  0  0  0  0  0
    4.8687   -0.8701    1.9312 H   0  0  0  0  0  0  0  0  0  0  0  0
    4.8354    0.9494    1.6030 H   0  0  0  0  0  0  0  0  0  0  0  0
    6.8472   -2.0870    1.4719 H   0  0  0  0  0  0  0  0  0  0  0  0
    9.2756   -2.0031    1.0657 H   0  0  0  0  0  0  0  0  0  0  0  0
   11.0277    2.0577    0.6471 H   0  0  0  0  0  0  0  0  0  0  0  0
   12.3957    1.0956   -0.1339 H   0  0  0  0  0  0  0  0  0  0  0  0
   10.8615    1.5541   -1.0567 H   0  0  0  0  0  0  0  0  0  0  0  0
    9.0199    2.0979    0.0716 H   0  0  0  0  0  0  0  0  0  0  0  0
    6.6446    2.0765    0.4536 H   0  0  0  0  0  0  0  0  0  0  0  0
   -0.6311    0.3341   -2.2897 H   0  0  0  0  0  0  0  0  0  0  0  0
    0.6206   -0.8682   -1.9439 H   0  0  0  0  0  0  0  0  0  0  0  0
   -0.8716   -2.2449   -0.6832 H   0  0  0  0  0  0  0  0  0  0  0  0
   -1.9126   -1.4945   -1.9871 H   0  0  0  0  0  0  0  0  0  0  0  0
   -6.0059    2.6247   -2.1295 H   0  0  0  0  0  0  0  0  0  0  0  0
   -6.1143    1.2912   -3.3736 H   0  0  0  0  0  0  0  0  0  0  0  0
   -4.5466    2.1469   -3.0004 H   0  0  0  0  0  0  0  0  0  0  0  0
  1  2  1  0
  2  3  1  0
  3  4  1  0
  4  5  2  0
  4  6  1  0
  6  7  2  0
  7  8  1  0
  8  9  1  0
  9 10  3  0
  8 11  2  0
 11 12  1  0
 12 13  1  0
 13 14  1  0
 14 15  1  0
 15 16  1  0
 16 17  2  0
 16 18  1  0
 18 19  1  0
 19 20  2  0
 19 21  2  0
 19 22  1  0
 22 23  1  0
 23 24  2  0
 24 25  1  0
 25 26  2  0
 26 27  1  0
 27 28  1  0
 26 29  1  0
 29 30  2  0
 15 31  1  0
 31 32  1  0
 11 33  1  0
 33 34  2  0
 34 35  1  0
 34  6  1  0
 32 12  1  0
 30 23  1  0
  1 36  1  0
  1 37  1  0
  1 38  1  0
  2 39  1  0
  2 40  1  0
  7 41  1  0
 13 42  1  0
 13 43  1  0
 14 44  1  0
 14 45  1  0
 15 46  1  0
 18 47  1  0
 22 48  1  0
 22 49  1  0
 24 50  1  0
 25 51  1  0
 28 52  1  0
 28 53  1  0
 28 54  1  0
 29 55  1  0
 30 56  1  0
 31 57  1  0
 31 58  1  0
 32 59  1  0
 32 60  1  0
 35 61  1  0
 35 62  1  0
 35 63  1  0
M  END
$$$$
