@<TRIPOS>MOLECULE
*****
 63 65 0 0 0
SMALL
GASTEIGER

@<TRIPOS>ATOM
      1 C         -10.7141   -0.6820    0.5578 C.3     1  UNL1       -0.0306
      2 C          -9.8977    0.1387   -0.4282 C.3     1  UNL1        0.0900
      3 O          -8.5204   -0.1475   -0.2120 O.3     1  UNL1       -0.4614
      4 C          -7.5560    0.4667   -0.9762 C.2     1  UNL1        0.3410
      5 O          -7.8853    1.2791   -1.8640 O.2     1  UNL1       -0.2449
      6 C          -6.1311    0.1903   -0.7748 C.ar    1  UNL1        0.0813
      7 C          -5.7845   -0.7063    0.2042 C.ar    1  UNL1       -0.0253
      8 C          -4.4508   -1.0103    0.4423 C.ar    1  UNL1        0.0924
      9 C          -4.1094   -1.9616    1.4793 C.1     1  UNL1        0.1026
     10 N          -3.8166   -2.7191    2.3186 N.1     1  UNL1       -0.1908
     11 C          -3.4638   -0.4165   -0.2998 C.ar    1  UNL1        0.1391
     12 N          -2.1006   -0.7137   -0.0689 N.pl3   1  UNL1       -0.3141
     13 C          -1.4476   -0.4626    1.1775 C.3     1  UNL1        0.0142
     14 C          -0.0744    0.1180    1.0376 C.3     1  UNL1       -0.0260
     15 C           0.3118    0.5279   -0.3411 C.3     1  UNL1        0.0399
     16 C           1.7872    0.6038   -0.4426 C.2     1  UNL1        0.2349
     17 O           2.3055    1.7017   -0.7482 O.2     1  UNL1       -0.2739
     18 N           2.6457   -0.4961   -0.2135 N.am    1  UNL1       -0.1894
     19 S           4.3537   -0.4454   -0.3219 S.O2    1  UNL1        0.0493
     20 O           4.8226    0.5132   -1.3850 O.2     1  UNL1       -0.1548
     21 O           4.8379   -1.8068   -0.7325 O.2     1  UNL1       -0.1548
     22 C           5.1207   -0.0320    1.2261 C.3     1  UNL1        0.1098
     23 C           6.5860   -0.0235    0.9926 C.ar    1  UNL1       -0.0245
     24 C           7.3158   -1.1523    1.1618 C.ar    1  UNL1       -0.0535
     25 C           8.6830   -1.1086    0.9340 C.ar    1  UNL1       -0.0196
     26 C           9.3209    0.0350    0.5444 C.ar    1  UNL1        0.1201
     27 O          10.6963    0.0611    0.3197 O.3     1  UNL1       -0.4951
     28 C          11.3029    1.2686   -0.0809 C.3     1  UNL1        0.0788
     29 C           8.5490    1.1714    0.3800 C.ar    1  UNL1       -0.0196
     30 C           7.1916    1.1459    0.6016 C.ar    1  UNL1       -0.0535
     31 C          -0.2259   -0.3055   -1.4503 C.3     1  UNL1       -0.0260
     32 C          -1.2734   -1.2977   -1.1054 C.3     1  UNL1        0.0142
     33 N          -3.8628    0.4581   -1.2500 N.ar    1  UNL1       -0.2351
     34 C          -5.1294    0.7705   -1.5028 C.ar    1  UNL1        0.0544
     35 C          -5.4972    1.7556   -2.5794 C.3     1  UNL1       -0.0215
     36 H         -10.7535   -1.7358    0.2486 H       1  UNL1        0.0262
     37 H         -11.7433   -0.2500    0.5316 H       1  UNL1        0.0262
     38 H         -10.2396   -0.6147    1.5465 H       1  UNL1        0.0262
     39 H         -10.1289   -0.0999   -1.4748 H       1  UNL1        0.0695
     40 H         -10.0291    1.2192   -0.2001 H       1  UNL1        0.0695
     41 H          -6.5265   -1.1997    0.8149 H       1  UNL1        0.0640
     42 H          -1.4255   -1.4129    1.7509 H       1  UNL1        0.0464
     43 H          -2.1289    0.2179    1.7686 H       1  UNL1        0.0464
     44 H           0.6474   -0.6346    1.4189 H       1  UNL1        0.0288
     45 H          -0.0068    0.9766    1.7396 H       1  UNL1        0.0288
     46 H          -0.0701    1.5590   -0.4883 H       1  UNL1        0.0396
     47 H           2.2004   -1.4034    0.0410 H       1  UNL1        0.1761
     48 H           4.8687   -0.8701    1.9312 H       1  UNL1        0.0568
     49 H           4.8354    0.9494    1.6030 H       1  UNL1        0.0568
     50 H           6.8472   -2.0870    1.4719 H       1  UNL1        0.0622
     51 H           9.2756   -2.0031    1.0657 H       1  UNL1        0.0654
     52 H          11.0277    2.0577    0.6471 H       1  UNL1        0.0660
     53 H          12.3957    1.0956   -0.1339 H       1  UNL1        0.0660
     54 H          10.8615    1.5541   -1.0567 H       1  UNL1        0.0660
     55 H           9.0199    2.0979    0.0716 H       1  UNL1        0.0654
     56 H           6.6446    2.0765    0.4536 H       1  UNL1        0.0622
     57 H          -0.6311    0.3341   -2.2897 H       1  UNL1        0.0288
     58 H           0.6206   -0.8682   -1.9439 H       1  UNL1        0.0288
     59 H          -0.8716   -2.2449   -0.6832 H       1  UNL1        0.0464
     60 H          -1.9126   -1.4945   -1.9871 H       1  UNL1        0.0464
     61 H          -6.0059    2.6247   -2.1295 H       1  UNL1        0.0293
     62 H          -6.1143    1.2912   -3.3736 H       1  UNL1        0.0293
     63 H          -4.5466    2.1469   -3.0004 H       1  UNL1        0.0293
@<TRIPOS>BOND
     1     1     2    1
     2     2     3    1
     3     3     4    1
     4     4     5    2
     5     4     6    1
     6     6     7   ar
     7     7     8   ar
     8     8     9    1
     9     9    10    3
    10     8    11   ar
    11    11    12    1
    12    12    13    1
    13    13    14    1
    14    14    15    1
    15    15    16    1
    16    16    17    2
    17    16    18   am
    18    18    19    1
    19    19    20    2
    20    19    21    2
    21    19    22    1
    22    22    23    1
    23    23    24   ar
    24    24    25   ar
    25    25    26   ar
    26    26    27    1
    27    27    28    1
    28    26    29   ar
    29    29    30   ar
    30    15    31    1
    31    31    32    1
    32    11    33   ar
    33    33    34   ar
    34    34    35    1
    35    34     6   ar
    36    32    12    1
    37    30    23   ar
    38     1    36    1
    39     1    37    1
    40     1    38    1
    41     2    39    1
    42     2    40    1
    43     7    41    1
    44    13    42    1
    45    13    43    1
    46    14    44    1
    47    14    45    1
    48    15    46    1
    49    18    47    1
    50    22    48    1
    51    22    49    1
    52    24    50    1
    53    25    51    1
    54    28    52    1
    55    28    53    1
    56    28    54    1
    57    29    55    1
    58    30    56    1
    59    31    57    1
    60    31    58    1
    61    32    59    1
    62    32    60    1
    63    35    61    1
    64    35    62    1
    65    35    63    1
