@<TRIPOS>MOLECULE
*****
 47 49 0 0 0
SMALL
GASTEIGER

@<TRIPOS>ATOM
      1 C          -4.8058    1.9938    1.3826 C.3     1  UNL1        0.0365
      2 O          -4.1767    2.2411    0.2189 O.3     1  UNL1       -0.3814
      3 C          -4.3765    1.3887   -0.7949 C.3     1  UNL1        0.0645
      4 C          -3.9980   -0.0373   -0.6605 C.3     1  UNL1        0.0552
      5 C          -4.7366   -0.8996    0.2673 C.3     1  UNL1       -0.0323
      6 C          -3.7602   -1.5626    1.1767 C.3     1  UNL1       -0.0370
      7 C          -2.4250   -1.1436    0.6641 C.3     1  UNL1        0.0209
      8 N          -2.6120   -0.1512   -0.3380 N.3     1  UNL1       -0.1713
      9 S          -1.7153   -0.4261   -1.7641 S.O2    1  UNL1        0.0612
     10 O          -2.1085   -1.7170   -2.4249 O.2     1  UNL1       -0.1528
     11 O          -1.9924    0.6918   -2.7265 O.2     1  UNL1       -0.1528
     12 C          -0.0154   -0.4104   -1.3646 C.ar    1  UNL1        0.1077
     13 C           0.6681    0.7707   -1.4008 C.ar    1  UNL1       -0.0151
     14 C           2.0281    0.7827   -1.0823 C.ar    1  UNL1        0.0649
     15 CL          2.7988    2.3576   -1.1579 Cl      1  UNL1       -0.0815
     16 C           2.7049   -0.3648   -0.7312 C.ar    1  UNL1        0.0661
     17 C           2.0121   -1.5676   -0.6934 C.ar    1  UNL1        0.0516
     18 C           0.6748   -1.5497   -1.0115 C.ar    1  UNL1       -0.0225
     19 C           2.9456   -2.6106   -0.2973 C.2     1  UNL1        0.2496
     20 O           2.6772   -3.8224   -0.1574 O.2     1  UNL1       -0.2817
     21 C           4.2389   -1.9995   -0.0938 C.2     1  UNL1        0.2913
     22 O           5.2951   -2.5790    0.2535 O.2     1  UNL1       -0.2661
     23 N           4.0503   -0.5934   -0.3746 N.am    1  UNL1       -0.2627
     24 C           5.1283    0.3764   -0.2805 C.3     1  UNL1        0.0226
     25 C           5.1367    0.9263    1.1418 C.3     1  UNL1       -0.0084
     26 C           6.2288    1.9364    1.3085 C.3     1  UNL1        0.0916
     27 F           7.4603    1.3936    1.0631 F       1  UNL1       -0.2490
     28 H          -4.5465    2.8463    2.0846 H       1  UNL1        0.0523
     29 H          -4.3345    1.1101    1.8874 H       1  UNL1        0.0523
     30 H          -5.8855    1.8197    1.3662 H       1  UNL1        0.0523
     31 H          -3.7555    1.7810   -1.6732 H       1  UNL1        0.0576
     32 H          -5.4280    1.4927   -1.2265 H       1  UNL1        0.0576
     33 H          -4.1512   -0.4646   -1.7243 H       1  UNL1        0.0502
     34 H          -5.2027   -1.7547   -0.3397 H       1  UNL1        0.0282
     35 H          -5.6265   -0.4626    0.7692 H       1  UNL1        0.0282
     36 H          -3.9147   -1.2971    2.2494 H       1  UNL1        0.0279
     37 H          -3.8615   -2.6717    1.1475 H       1  UNL1        0.0279
     38 H          -1.8818   -0.6500    1.5218 H       1  UNL1        0.0444
     39 H          -1.7914   -1.9960    0.3745 H       1  UNL1        0.0444
     40 H           0.1394    1.6712   -1.6759 H       1  UNL1        0.0652
     41 H           0.1173   -2.4864   -0.9872 H       1  UNL1        0.0645
     42 H           6.1033   -0.1472   -0.4536 H       1  UNL1        0.0469
     43 H           5.0181    1.2360   -0.9632 H       1  UNL1        0.0469
     44 H           4.1516    1.3761    1.3318 H       1  UNL1        0.0305
     45 H           5.3155    0.0706    1.8472 H       1  UNL1        0.0305
     46 H           6.0086    2.8324    0.6920 H       1  UNL1        0.0615
     47 H           6.2003    2.2702    2.3819 H       1  UNL1        0.0615
@<TRIPOS>BOND
     1     1     2    1
     2     2     3    1
     3     3     4    1
     4     4     5    1
     5     5     6    1
     6     6     7    1
     7     7     8    1
     8     8     9    1
     9     9    10    2
    10     9    11    2
    11     9    12    1
    12    12    13   ar
    13    13    14   ar
    14    14    15    1
    15    14    16   ar
    16    16    17   ar
    17    17    18   ar
    18    17    19    1
    19    19    20    2
    20    19    21    1
    21    21    22    2
    22    21    23   am
    23    23    24    1
    24    24    25    1
    25    25    26    1
    26    26    27    1
    27     8     4    1
    28    18    12   ar
    29    23    16    1
    30     1    28    1
    31     1    29    1
    32     1    30    1
    33     3    31    1
    34     3    32    1
    35     4    33    1
    36     5    34    1
    37     5    35    1
    38     6    36    1
    39     6    37    1
    40     7    38    1
    41     7    39    1
    42    13    40    1
    43    18    41    1
    44    24    42    1
    45    24    43    1
    46    25    44    1
    47    25    45    1
    48    26    46    1
    49    26    47    1
