@<TRIPOS>MOLECULE
*****
 58 62 0 0 0
SMALL
GASTEIGER

@<TRIPOS>ATOM
      1 C           9.1907    0.6441   -0.3809 C.3     1  UNL1       -0.0348
      2 C           7.9746    0.8592    0.4494 C.3     1  UNL1        0.0771
      3 O           8.1706    1.6373    1.5618 O.3     1  UNL1       -0.3875
      4 C           6.8835    1.5385   -0.3922 C.3     1  UNL1       -0.0102
      5 C           5.7778    0.4992   -0.4900 C.3     1  UNL1        0.0020
      6 N           5.9578   -0.3159    0.7313 N.3     1  UNL1       -0.2954
      7 C           5.2599   -1.5638    0.4895 C.3     1  UNL1        0.0241
      8 C           3.8300   -1.2534    0.1313 C.ar    1  UNL1       -0.0331
      9 C           2.8903   -1.0273    1.0992 C.ar    1  UNL1       -0.0539
     10 C           1.5736   -0.7034    0.7481 C.ar    1  UNL1       -0.0196
     11 C           1.1697   -0.5992   -0.5578 C.ar    1  UNL1        0.1211
     12 O          -0.1088   -0.2784   -0.9556 O.3     1  UNL1       -0.4857
     13 C          -1.1291   -0.0677   -0.0427 C.3     1  UNL1        0.1314
     14 C          -1.5390    1.4321    0.0505 C.3     1  UNL1        0.0538
     15 N          -2.8935    0.9663    0.1891 N.am    1  UNL1       -0.2865
     16 C          -4.0798    1.3966    0.8210 C.2     1  UNL1        0.3035
     17 O          -4.2199    2.4369    1.5005 O.2     1  UNL1       -0.2647
     18 C          -5.2630    0.5196    0.6549 C.ar    1  UNL1        0.3042
     19 N          -5.2931   -0.8074    0.8139 N.ar    1  UNL1       -0.1021
     20 N          -6.5229   -1.2154    0.5803 N.ar    1  UNL1       -0.1068
     21 C          -7.2941   -0.1590    0.2696 C.ar    1  UNL1        0.2489
     22 C          -8.7128   -0.1795   -0.0520 C.ar    1  UNL1        0.0385
     23 C          -9.4188   -1.3803   -0.0992 C.ar    1  UNL1       -0.0494
     24 C         -10.7753   -1.3973   -0.3710 C.ar    1  UNL1       -0.0610
     25 C         -11.4824   -0.2372   -0.6053 C.ar    1  UNL1       -0.0617
     26 C         -10.7782    0.9494   -0.5573 C.ar    1  UNL1       -0.0610
     27 C          -9.4306    0.9688   -0.2873 C.ar    1  UNL1       -0.0494
     28 O          -6.4826    0.8864    0.3266 O.2     1  UNL1       -0.4123
     29 C          -2.5251   -0.1684   -0.6225 C.3     1  UNL1        0.0538
     30 C           2.1393   -0.8350   -1.5404 C.ar    1  UNL1       -0.0196
     31 C           3.4172   -1.1498   -1.1753 C.ar    1  UNL1       -0.0539
     32 C           7.3714   -0.5143    0.7858 C.3     1  UNL1        0.0279
     33 H           8.8435    0.5833   -1.4514 H       1  UNL1        0.0258
     34 H           9.7262   -0.2660   -0.1129 H       1  UNL1        0.0258
     35 H           9.9107    1.4992   -0.2831 H       1  UNL1        0.0258
     36 H           8.5901    1.0899    2.2658 H       1  UNL1        0.2102
     37 H           7.2694    1.7715   -1.4046 H       1  UNL1        0.0306
     38 H           6.4455    2.4007    0.1329 H       1  UNL1        0.0306
     39 H           6.0230   -0.1012   -1.3892 H       1  UNL1        0.0428
     40 H           4.7776    0.9131   -0.5657 H       1  UNL1        0.0428
     41 H           5.3380   -2.2977    1.2892 H       1  UNL1        0.0476
     42 H           5.7306   -2.0021   -0.4295 H       1  UNL1        0.0476
     43 H           3.1905   -1.1012    2.1320 H       1  UNL1        0.0622
     44 H           0.8794   -0.5378    1.5573 H       1  UNL1        0.0654
     45 H          -1.0165   -0.4169    0.9901 H       1  UNL1        0.0765
     46 H          -1.2753    1.9155   -0.9154 H       1  UNL1        0.0502
     47 H          -1.0898    1.9526    0.9135 H       1  UNL1        0.0502
     48 H          -8.8529   -2.2812    0.0861 H       1  UNL1        0.0625
     49 H         -11.3295   -2.3435   -0.4054 H       1  UNL1        0.0618
     50 H         -12.5458   -0.2844   -0.8136 H       1  UNL1        0.0618
     51 H         -11.3294    1.8562   -0.7429 H       1  UNL1        0.0618
     52 H          -8.8777    1.9233   -0.2524 H       1  UNL1        0.0625
     53 H          -3.0531   -1.1112   -0.4371 H       1  UNL1        0.0502
     54 H          -2.4804    0.1072   -1.7206 H       1  UNL1        0.0502
     55 H           1.8414   -0.7595   -2.5709 H       1  UNL1        0.0654
     56 H           4.1583   -1.3412   -1.9708 H       1  UNL1        0.0622
     57 H           7.7095   -1.2549    0.0429 H       1  UNL1        0.0455
     58 H           7.7593   -0.7954    1.7715 H       1  UNL1        0.0455
@<TRIPOS>BOND
     1     1     2    1
     2     2     3    1
     3     2     4    1
     4     4     5    1
     5     5     6    1
     6     6     7    1
     7     7     8    1
     8     8     9   ar
     9     9    10   ar
    10    10    11   ar
    11    11    12    1
    12    12    13    1
    13    13    14    1
    14    14    15    1
    15    15    16   am
    16    16    17    2
    17    16    18    1
    18    18    19   ar
    19    19    20   ar
    20    20    21   ar
    21    21    22    1
    22    22    23   ar
    23    23    24   ar
    24    24    25   ar
    25    25    26   ar
    26    26    27   ar
    27    21    28   ar
    28    15    29    1
    29    11    30   ar
    30    30    31   ar
    31     6    32    1
    32    32     2    1
    33    31     8   ar
    34    29    13    1
    35    28    18   ar
    36    27    22   ar
    37     1    33    1
    38     1    34    1
    39     1    35    1
    40     3    36    1
    41     4    37    1
    42     4    38    1
    43     5    39    1
    44     5    40    1
    45     7    41    1
    46     7    42    1
    47     9    43    1
    48    10    44    1
    49    13    45    1
    50    14    46    1
    51    14    47    1
    52    23    48    1
    53    24    49    1
    54    25    50    1
    55    26    51    1
    56    27    52    1
    57    29    53    1
    58    29    54    1
    59    30    55    1
    60    31    56    1
    61    32    57    1
    62    32    58    1
