@<TRIPOS>MOLECULE
*****
 74 76 0 0 0
SMALL
GASTEIGER

@<TRIPOS>ATOM
      1 C          -3.5482   -1.0920   -1.5579 C.3     1  UNL1       -0.0621
      2 C          -2.8599   -0.1715   -0.6317 C.3     1  UNL1       -0.0405
      3 C          -3.6792    1.0448   -0.3617 C.3     1  UNL1       -0.0501
      4 C          -4.9889    0.9494    0.2978 C.3     1  UNL1       -0.0502
      5 C          -6.0625    0.1709   -0.3493 C.3     1  UNL1       -0.0245
      6 C          -7.3631    0.2784    0.4740 C.3     1  UNL1        0.0605
      7 C          -7.7665    1.7157    0.5595 C.3     1  UNL1       -0.0363
      8 C          -7.2335   -0.3871    1.7986 C.3     1  UNL1       -0.0363
      9 O          -8.3091   -0.4452   -0.2693 O.3     1  UNL1       -0.3891
     10 C          -1.4680    0.2544   -0.9858 C.3     1  UNL1       -0.0325
     11 C          -1.0061    1.2160    0.0980 C.3     1  UNL1       -0.0489
     12 C           0.4956    1.0146    0.2643 C.3     1  UNL1       -0.0457
     13 C           0.8062    0.1518   -0.9307 C.3     1  UNL1       -0.0139
     14 C           2.1258   -0.5001   -0.8150 C.2     1  UNL1       -0.0659
     15 C           2.2060   -1.8405   -1.4175 C.3     1  UNL1       -0.0312
     16 C           1.1244   -2.1142   -2.4067 C.3     1  UNL1       -0.0488
     17 C          -0.2399   -1.6602   -2.1063 C.3     1  UNL1       -0.0465
     18 C          -0.3815   -0.7806   -0.9048 C.3     1  UNL1       -0.0225
     19 C          -0.4315   -1.5921    0.3680 C.3     1  UNL1       -0.0588
     20 C           3.1917    0.0723   -0.2213 C.2     1  UNL1       -0.0620
     21 C           4.4263   -0.6943   -0.1822 C.2     1  UNL1       -0.0582
     22 C           5.5808   -0.3349    0.3159 C.2     1  UNL1       -0.0399
     23 C           6.8434   -1.1374    0.3525 C.3     1  UNL1       -0.0011
     24 C           7.8556   -0.5046    1.2798 C.3     1  UNL1        0.0619
     25 O           8.6203    0.4700    0.6020 O.3     1  UNL1       -0.3914
     26 C           7.2379    0.2060    2.4593 C.3     1  UNL1        0.0037
     27 C           6.5953    1.4862    1.9303 C.3     1  UNL1        0.0822
     28 O           5.9793    2.2374    2.8952 O.3     1  UNL1       -0.3871
     29 C           5.6763    1.0056    0.8544 C.2     1  UNL1       -0.0229
     30 C           4.9066    1.9547    0.3885 C.2     1  UNL1       -0.0928
     31 H          -3.9336   -1.9700   -1.0314 H       1  UNL1        0.0233
     32 H          -4.4148   -0.6146   -2.0937 H       1  UNL1        0.0233
     33 H          -2.8631   -1.5306   -2.3436 H       1  UNL1        0.0233
     34 H          -2.8370   -0.7126    0.3789 H       1  UNL1        0.0301
     35 H          -3.0294    1.7621    0.2445 H       1  UNL1        0.0268
     36 H          -3.7519    1.6369   -1.3492 H       1  UNL1        0.0268
     37 H          -4.8103    0.6219    1.3662 H       1  UNL1        0.0266
     38 H          -5.3680    2.0174    0.4664 H       1  UNL1        0.0266
     39 H          -6.3232    0.5492   -1.3444 H       1  UNL1        0.0293
     40 H          -5.8783   -0.9299   -0.4358 H       1  UNL1        0.0293
     41 H          -7.2742    2.3657   -0.2054 H       1  UNL1        0.0257
     42 H          -7.4494    2.1632    1.5427 H       1  UNL1        0.0257
     43 H          -8.8711    1.8426    0.5204 H       1  UNL1        0.0257
     44 H          -6.3690   -0.1260    2.4000 H       1  UNL1        0.0257
     45 H          -8.1285   -0.1343    2.4375 H       1  UNL1        0.0257
     46 H          -7.2538   -1.5031    1.7062 H       1  UNL1        0.0257
     47 H          -8.5858    0.0327   -1.0888 H       1  UNL1        0.2101
     48 H          -1.4291    0.7570   -1.9466 H       1  UNL1        0.0309
     49 H          -1.2158    2.2733   -0.1891 H       1  UNL1        0.0268
     50 H          -1.4504    0.9065    1.0588 H       1  UNL1        0.0268
     51 H           0.7763    0.5992    1.2293 H       1  UNL1        0.0271
     52 H           1.0348    1.9945    0.1517 H       1  UNL1        0.0271
     53 H           0.7628    0.7728   -1.8310 H       1  UNL1        0.0351
     54 H           2.2589   -2.6316   -0.6441 H       1  UNL1        0.0310
     55 H           3.1694   -1.9818   -2.0104 H       1  UNL1        0.0310
     56 H           1.1435   -3.2398   -2.5662 H       1  UNL1        0.0268
     57 H           1.4170   -1.7387   -3.4371 H       1  UNL1        0.0268
     58 H          -0.6472   -1.0692   -2.9751 H       1  UNL1        0.0271
     59 H          -0.8788   -2.5741   -2.0462 H       1  UNL1        0.0271
     60 H          -0.8904   -2.5976    0.2180 H       1  UNL1        0.0235
     61 H           0.5756   -1.7394    0.8128 H       1  UNL1        0.0235
     62 H          -1.0209   -1.0770    1.1385 H       1  UNL1        0.0235
     63 H           2.8184    1.0242    0.1065 H       1  UNL1        0.0617
     64 H           4.4893   -1.6916   -0.5818 H       1  UNL1        0.0620
     65 H           6.6535   -2.1602    0.7555 H       1  UNL1        0.0338
     66 H           7.3115   -1.2573   -0.6396 H       1  UNL1        0.0338
     67 H           8.5996   -1.2256    1.6800 H       1  UNL1        0.0597
     68 H           9.2788    0.8096    1.2838 H       1  UNL1        0.2098
     69 H           6.4461   -0.4428    2.8769 H       1  UNL1        0.0318
     70 H           8.0461    0.4243    3.1819 H       1  UNL1        0.0318
     71 H           7.4538    2.0451    1.4588 H       1  UNL1        0.0644
     72 H           5.4314    1.6720    3.4812 H       1  UNL1        0.2102
     73 H           4.3706    2.8908    0.1549 H       1  UNL1        0.0538
     74 H           4.3032    2.8133    0.0239 H       1  UNL1        0.0538
@<TRIPOS>BOND
     1     1     2    1
     2     2     3    1
     3     3     4    1
     4     4     5    1
     5     5     6    1
     6     6     7    1
     7     6     8    1
     8     6     9    1
     9     2    10    1
    10    10    11    1
    11    11    12    1
    12    12    13    1
    13    13    14    1
    14    14    15    1
    15    15    16    1
    16    16    17    1
    17    17    18    1
    18    18    19    1
    19    14    20    2
    20    20    21    1
    21    21    22    2
    22    22    23    1
    23    23    24    1
    24    24    25    1
    25    24    26    1
    26    26    27    1
    27    27    28    1
    28    27    29    1
    29    29    30    2
    30    18    10    1
    31    29    22    1
    32    18    13    1
    33     1    31    1
    34     1    32    1
    35     1    33    1
    36     2    34    1
    37     3    35    1
    38     3    36    1
    39     4    37    1
    40     4    38    1
    41     5    39    1
    42     5    40    1
    43     7    41    1
    44     7    42    1
    45     7    43    1
    46     8    44    1
    47     8    45    1
    48     8    46    1
    49     9    47    1
    50    10    48    1
    51    11    49    1
    52    11    50    1
    53    12    51    1
    54    12    52    1
    55    13    53    1
    56    15    54    1
    57    15    55    1
    58    16    56    1
    59    16    57    1
    60    17    58    1
    61    17    59    1
    62    19    60    1
    63    19    61    1
    64    19    62    1
    65    20    63    1
    66    21    64    1
    67    23    65    1
    68    23    66    1
    69    24    67    1
    70    25    68    1
    71    26    69    1
    72    26    70    1
    73    27    71    1
    74    28    72    1
    75    30    73    1
    76    30    74    1
