
     RDKit          3D

 45 46  0  0  0  0  0  0  0  0999 V2000
    3.5108    2.5386   -1.3445 C   0  0  0  0  0  0  0  0  0  0  0  0
    3.4074    1.0858   -0.9430 C   0  0  2  0  0  0  0  0  0  0  0  0
    2.0055    0.6804   -0.7810 N   0  0  0  0  0  0  0  0  0  0  0  0
    1.4297   -0.3024   -1.6325 C   0  0  0  0  0  0  0  0  0  0  0  0
    2.1571   -0.8283   -2.5445 O   0  0  0  0  0  0  0  0  0  0  0  0
    0.0510   -0.7506   -1.5289 C   0  0  0  0  0  0  0  0  0  0  0  0
   -0.4299   -1.7100   -2.3964 C   0  0  0  0  0  0  0  0  0  0  0  0
   -1.7089   -2.1769   -2.3579 C   0  0  0  0  0  0  0  0  0  0  0  0
   -2.6357   -1.6939   -1.4056 C   0  0  0  0  0  0  0  0  0  0  0  0
   -3.8733   -2.2177   -1.4480 O   0  0  0  0  0  0  0  0  0  0  0  0
   -4.9844   -1.9718   -0.6930 C   0  0  0  0  0  0  0  0  0  0  0  0
   -5.4470   -0.5827   -0.7958 C   0  0  0  0  0  0  0  0  0  0  0  0
   -5.7713   -0.1725   -2.0852 F   0  0  0  0  0  0  0  0  0  0  0  0
   -5.5814    0.2881    0.1839 C   0  0  0  0  0  0  0  0  0  0  0  0
   -5.2824   -0.0036    1.5834 C   0  0  0  0  0  0  0  0  0  0  0  0
   -4.2513    0.8778    2.1597 N   0  0  0  0  0  0  0  0  0  0  0  0
   -2.1527   -0.7437   -0.5490 C   0  0  0  0  0  0  0  0  0  0  0  0
   -0.8555   -0.2831   -0.6028 C   0  0  0  0  0  0  0  0  0  0  0  0
    4.1991    0.7659    0.2566 C   0  0  0  0  0  0  0  0  0  0  0  0
    5.4585    0.1721    0.1197 C   0  0  0  0  0  0  0  0  0  0  0  0
    6.2213   -0.1388    1.2136 C   0  0  0  0  0  0  0  0  0  0  0  0
    5.7755    0.1221    2.4841 C   0  0  0  0  0  0  0  0  0  0  0  0
    4.5383    0.7067    2.6513 C   0  0  0  0  0  0  0  0  0  0  0  0
    3.7869    1.0115    1.5377 C   0  0  0  0  0  0  0  0  0  0  0  0
    3.4494    3.2286   -0.4965 H   0  0  0  0  0  0  0  0  0  0  0  0
    4.4701    2.6651   -1.8716 H   0  0  0  0  0  0  0  0  0  0  0  0
    2.6416    2.7548   -2.0024 H   0  0  0  0  0  0  0  0  0  0  0  0
    3.8071    0.4918   -1.7874 H   0  0  0  0  0  0  0  0  0  0  0  0
    1.4035    1.1020   -0.0414 H   0  0  0  0  0  0  0  0  0  0  0  0
    0.2466   -2.1185   -3.1544 H   0  0  0  0  0  0  0  0  0  0  0  0
   -2.0457   -2.9291   -3.0558 H   0  0  0  0  0  0  0  0  0  0  0  0
   -4.7392   -2.2630    0.3654 H   0  0  0  0  0  0  0  0  0  0  0  0
   -5.8156   -2.6849   -0.9777 H   0  0  0  0  0  0  0  0  0  0  0  0
   -5.9456    1.2896   -0.1117 H   0  0  0  0  0  0  0  0  0  0  0  0
   -5.1121   -1.0401    1.8489 H   0  0  0  0  0  0  0  0  0  0  0  0
   -6.2110    0.2922    2.1753 H   0  0  0  0  0  0  0  0  0  0  0  0
   -4.4256    1.8510    1.8074 H   0  0  0  0  0  0  0  0  0  0  0  0
   -4.3129    0.9123    3.1813 H   0  0  0  0  0  0  0  0  0  0  0  0
   -2.8136   -0.3504    0.1945 H   0  0  0  0  0  0  0  0  0  0  0  0
   -0.5032    0.4751    0.0950 H   0  0  0  0  0  0  0  0  0  0  0  0
    5.8274   -0.0411   -0.8672 H   0  0  0  0  0  0  0  0  0  0  0  0
    7.1933   -0.5969    1.1130 H   0  0  0  0  0  0  0  0  0  0  0  0
    6.3625   -0.1162    3.3505 H   0  0  0  0  0  0  0  0  0  0  0  0
    4.1379    0.9347    3.6381 H   0  0  0  0  0  0  0  0  0  0  0  0
    2.8179    1.4698    1.6778 H   0  0  0  0  0  0  0  0  0  0  0  0
  1  2  1  0
  2  3  1  0
  3  4  1  0
  4  5  2  0
  4  6  1  0
  6  7  2  0
  7  8  1  0
  8  9  2  0
  9 10  1  0
 10 11  1  0
 11 12  1  0
 12 13  1  0
 12 14  2  0
 14 15  1  0
 15 16  1  0
  9 17  1  0
 17 18  2  0
  2 19  1  0
 19 20  2  0
 20 21  1  0
 21 22  2  0
 22 23  1  0
 23 24  2  0
 18  6  1  0
 24 19  1  0
  1 25  1  0
  1 26  1  0
  1 27  1  0
  2 28  1  6
  3 29  1  0
  7 30  1  0
  8 31  1  0
 11 32  1  0
 11 33  1  0
 14 34  1  0
 15 35  1  0
 15 36  1  0
 16 37  1  0
 16 38  1  0
 17 39  1  0
 18 40  1  0
 20 41  1  0
 21 42  1  0
 22 43  1  0
 23 44  1  0
 24 45  1  0
M  END
$$$$
