@<TRIPOS>MOLECULE
*****
 45 46 0 0 0
SMALL
GASTEIGER

@<TRIPOS>ATOM
      1 C           3.5108    2.5386   -1.3445 C.3     1  UNL1       -0.0424
      2 C           3.4074    1.0858   -0.9430 C.3     1  UNL1        0.0458
      3 N           2.0055    0.6804   -0.7810 N.am    1  UNL1       -0.3048
      4 C           1.4297   -0.3024   -1.6325 C.2     1  UNL1        0.2445
      5 O           2.1571   -0.8283   -2.5445 O.2     1  UNL1       -0.2702
      6 C           0.0510   -0.7506   -1.5289 C.ar    1  UNL1        0.0369
      7 C          -0.4299   -1.7100   -2.3964 C.ar    1  UNL1       -0.0462
      8 C          -1.7089   -2.1769   -2.3579 C.ar    1  UNL1       -0.0192
      9 C          -2.6357   -1.6939   -1.4056 C.ar    1  UNL1        0.1211
     10 O          -3.8733   -2.2177   -1.4480 O.3     1  UNL1       -0.4851
     11 C          -4.9844   -1.9718   -0.6930 C.3     1  UNL1        0.1403
     12 C          -5.4470   -0.5827   -0.7958 C.2     1  UNL1        0.1351
     13 F          -5.7713   -0.1725   -2.0852 F       1  UNL1       -0.2069
     14 C          -5.5814    0.2881    0.1839 C.2     1  UNL1       -0.0360
     15 C          -5.2824   -0.0036    1.5834 C.3     1  UNL1        0.0143
     16 N          -4.2513    0.8778    2.1597 N.3     1  UNL1       -0.3265
     17 C          -2.1527   -0.7437   -0.5490 C.ar    1  UNL1       -0.0192
     18 C          -0.8555   -0.2831   -0.6028 C.ar    1  UNL1       -0.0462
     19 C           4.1991    0.7659    0.2566 C.ar    1  UNL1       -0.0275
     20 C           5.4585    0.1721    0.1197 C.ar    1  UNL1       -0.0568
     21 C           6.2213   -0.1388    1.2136 C.ar    1  UNL1       -0.0614
     22 C           5.7755    0.1221    2.4841 C.ar    1  UNL1       -0.0617
     23 C           4.5383    0.7067    2.6513 C.ar    1  UNL1       -0.0614
     24 C           3.7869    1.0115    1.5377 C.ar    1  UNL1       -0.0568
     25 H           3.4494    3.2286   -0.4965 H       1  UNL1        0.0251
     26 H           4.4701    2.6651   -1.8716 H       1  UNL1        0.0251
     27 H           2.6416    2.7548   -2.0024 H       1  UNL1        0.0251
     28 H           3.8071    0.4918   -1.7874 H       1  UNL1        0.0545
     29 H           1.4035    1.1020   -0.0414 H       1  UNL1        0.1496
     30 H           0.2466   -2.1185   -3.1544 H       1  UNL1        0.0626
     31 H          -2.0457   -2.9291   -3.0558 H       1  UNL1        0.0654
     32 H          -4.7392   -2.2630    0.3654 H       1  UNL1        0.0771
     33 H          -5.8156   -2.6849   -0.9777 H       1  UNL1        0.0771
     34 H          -5.9456    1.2896   -0.1117 H       1  UNL1        0.0611
     35 H          -5.1121   -1.0401    1.8489 H       1  UNL1        0.0466
     36 H          -6.2110    0.2922    2.1753 H       1  UNL1        0.0466
     37 H          -4.4256    1.8510    1.8074 H       1  UNL1        0.1185
     38 H          -4.3129    0.9123    3.1813 H       1  UNL1        0.1185
     39 H          -2.8136   -0.3504    0.1945 H       1  UNL1        0.0654
     40 H          -0.5032    0.4751    0.0950 H       1  UNL1        0.0626
     41 H           5.8274   -0.0411   -0.8672 H       1  UNL1        0.0621
     42 H           7.1933   -0.5969    1.1130 H       1  UNL1        0.0618
     43 H           6.3625   -0.1162    3.3505 H       1  UNL1        0.0618
     44 H           4.1379    0.9347    3.6381 H       1  UNL1        0.0618
     45 H           2.8179    1.4698    1.6778 H       1  UNL1        0.0621
@<TRIPOS>BOND
     1     1     2    1
     2     2     3    1
     3     3     4   am
     4     4     5    2
     5     4     6    1
     6     6     7   ar
     7     7     8   ar
     8     8     9   ar
     9     9    10    1
    10    10    11    1
    11    11    12    1
    12    12    13    1
    13    12    14    2
    14    14    15    1
    15    15    16    1
    16     9    17   ar
    17    17    18   ar
    18     2    19    1
    19    19    20   ar
    20    20    21   ar
    21    21    22   ar
    22    22    23   ar
    23    23    24   ar
    24    18     6   ar
    25    24    19   ar
    26     1    25    1
    27     1    26    1
    28     1    27    1
    29     2    28    1
    30     3    29    1
    31     7    30    1
    32     8    31    1
    33    11    32    1
    34    11    33    1
    35    14    34    1
    36    15    35    1
    37    15    36    1
    38    16    37    1
    39    16    38    1
    40    17    39    1
    41    18    40    1
    42    20    41    1
    43    21    42    1
    44    22    43    1
    45    23    44    1
    46    24    45    1
