@<TRIPOS>MOLECULE
*****
 70 74 0 0 0
SMALL
GASTEIGER

@<TRIPOS>ATOM
      1 C          -3.2438   -1.8119    1.9245 C.3     1  UNL1        0.0365
      2 O          -4.1194   -2.4776    1.1389 O.3     1  UNL1       -0.3809
      3 C          -4.1802   -2.2259   -0.1868 C.3     1  UNL1        0.0714
      4 C          -4.5422   -0.8690   -0.6585 C.3     1  UNL1        0.1112
      5 C          -3.3999    0.0721   -0.4615 C.2     1  UNL1        0.2367
      6 O          -3.6166    1.1531    0.1347 O.2     1  UNL1       -0.2737
      7 N          -2.0976   -0.1962   -0.9142 N.am    1  UNL1       -0.2824
      8 C          -0.9487    0.6015   -0.7851 C.ar    1  UNL1        0.0576
      9 C          -0.9558    1.7844   -0.1208 C.ar    1  UNL1       -0.0384
     10 C           0.2502    2.5057   -0.0629 C.ar    1  UNL1       -0.0593
     11 C           1.4095    2.0534   -0.6487 C.ar    1  UNL1       -0.0518
     12 C           1.4124    0.8547   -1.3208 C.ar    1  UNL1        0.0107
     13 C           2.4069    0.1671   -1.9956 C.ar    1  UNL1        0.0284
     14 C           3.8039    0.5638   -2.1710 C.ar    1  UNL1        0.1132
     15 N           4.6037    0.8520   -1.1291 N.ar    1  UNL1       -0.2113
     16 C           5.8921    1.2241   -1.2613 C.ar    1  UNL1        0.2202
     17 N           6.7107    1.5147   -0.1252 N.pl3   1  UNL1       -0.2809
     18 C           7.4705    0.4566    0.4356 C.ar    1  UNL1        0.0744
     19 C           7.5133   -0.8544   -0.0130 C.ar    1  UNL1        0.0467
     20 N           8.3449   -1.5410    0.7772 N.ar    1  UNL1       -0.2724
     21 C           8.6700   -2.9348    0.6555 C.3     1  UNL1        0.0303
     22 N           8.8132   -0.7227    1.6841 N.ar    1  UNL1       -0.1748
     23 C           8.3131    0.5138    1.5248 C.ar    1  UNL1        0.0811
     24 C           8.6189    1.6938    2.3691 C.3     1  UNL1       -0.0188
     25 N           6.3811    1.3043   -2.5158 N.ar    1  UNL1       -0.2198
     26 C           5.6595    1.0361   -3.6144 C.ar    1  UNL1        0.0685
     27 C           4.3512    0.6594   -3.4550 C.ar    1  UNL1        0.1674
     28 F           3.5774    0.3783   -4.5138 F       1  UNL1       -0.2016
     29 C           1.7982   -0.9830   -2.4674 C.ar    1  UNL1        0.0121
     30 N           0.5186   -0.9778   -2.0945 N.ar    1  UNL1       -0.3586
     31 C           0.2338    0.1468   -1.3789 C.ar    1  UNL1        0.0686
     32 N          -5.7850   -0.3822   -0.2503 N.3     1  UNL1       -0.2873
     33 C          -6.2686    0.8515   -0.7024 C.3     1  UNL1        0.0125
     34 C          -7.1306    1.5868    0.3061 C.3     1  UNL1        0.0114
     35 N          -8.0296    0.7187    0.9933 N.3     1  UNL1       -0.3029
     36 C          -8.0005    0.7991    2.4193 C.3     1  UNL1       -0.0127
     37 C          -8.1050   -0.6240    0.4874 C.3     1  UNL1        0.0114
     38 C          -6.7357   -1.2625    0.3390 C.3     1  UNL1        0.0125
     39 H          -3.3584   -0.7282    1.9819 H       1  UNL1        0.0523
     40 H          -2.1701   -2.0899    1.7465 H       1  UNL1        0.0523
     41 H          -3.4185   -2.1781    2.9847 H       1  UNL1        0.0523
     42 H          -3.1599   -2.4848   -0.6082 H       1  UNL1        0.0580
     43 H          -4.8400   -2.9681   -0.7366 H       1  UNL1        0.0580
     44 H          -4.5966   -0.9607   -1.7992 H       1  UNL1        0.0582
     45 H          -2.0090   -1.1401   -1.4298 H       1  UNL1        0.1549
     46 H          -1.7914    2.2408    0.3761 H       1  UNL1        0.0637
     47 H           0.2819    3.4524    0.4578 H       1  UNL1        0.0618
     48 H           2.3430    2.5966   -0.6123 H       1  UNL1        0.0624
     49 H           6.7506    2.4728    0.2804 H       1  UNL1        0.1551
     50 H           6.9573   -1.2303   -0.8622 H       1  UNL1        0.0845
     51 H           9.6042   -3.1457    1.1865 H       1  UNL1        0.0473
     52 H           8.8751   -3.1685   -0.4244 H       1  UNL1        0.0473
     53 H           7.8090   -3.5393    1.0203 H       1  UNL1        0.0473
     54 H           9.6921    1.6665    2.6656 H       1  UNL1        0.0294
     55 H           7.9712    1.6116    3.2728 H       1  UNL1        0.0294
     56 H           8.4573    2.6397    1.8468 H       1  UNL1        0.0294
     57 H           6.1362    1.1269   -4.5980 H       1  UNL1        0.0861
     58 H           2.3509   -1.7182   -3.0427 H       1  UNL1        0.0814
     59 H          -0.2006   -1.7176   -2.3028 H       1  UNL1        0.1654
     60 H          -5.4879    1.4722   -1.1564 H       1  UNL1        0.0439
     61 H          -6.9821    0.6328   -1.5599 H       1  UNL1        0.0439
     62 H          -6.4479    2.0523    1.0458 H       1  UNL1        0.0439
     63 H          -7.6911    2.4231   -0.1782 H       1  UNL1        0.0439
     64 H          -8.6942    1.6401    2.7044 H       1  UNL1        0.0391
     65 H          -7.0088    1.1040    2.7764 H       1  UNL1        0.0391
     66 H          -8.3233   -0.1430    2.8864 H       1  UNL1        0.0391
     67 H          -8.6504   -0.5842   -0.4791 H       1  UNL1        0.0439
     68 H          -8.7514   -1.2003    1.1788 H       1  UNL1        0.0439
     69 H          -6.8641   -2.1353   -0.3346 H       1  UNL1        0.0439
     70 H          -6.3771   -1.6281    1.2973 H       1  UNL1        0.0439
@<TRIPOS>BOND
     1     1     2    1
     2     2     3    1
     3     3     4    1
     4     4     5    1
     5     5     6    2
     6     5     7   am
     7     7     8    1
     8     8     9   ar
     9     9    10   ar
    10    10    11   ar
    11    11    12   ar
    12    12    13   ar
    13    13    14    1
    14    14    15   ar
    15    15    16   ar
    16    16    17    1
    17    17    18    1
    18    18    19   ar
    19    19    20   ar
    20    20    21    1
    21    20    22   ar
    22    22    23   ar
    23    23    24    1
    24    16    25   ar
    25    25    26   ar
    26    26    27   ar
    27    27    28    1
    28    13    29   ar
    29    29    30   ar
    30    30    31   ar
    31     4    32    1
    32    32    33    1
    33    33    34    1
    34    34    35    1
    35    35    36    1
    36    35    37    1
    37    37    38    1
    38    31     8   ar
    39    38    32    1
    40    31    12   ar
    41    27    14   ar
    42    23    18   ar
    43     1    39    1
    44     1    40    1
    45     1    41    1
    46     3    42    1
    47     3    43    1
    48     4    44    1
    49     7    45    1
    50     9    46    1
    51    10    47    1
    52    11    48    1
    53    17    49    1
    54    19    50    1
    55    21    51    1
    56    21    52    1
    57    21    53    1
    58    24    54    1
    59    24    55    1
    60    24    56    1
    61    26    57    1
    62    29    58    1
    63    30    59    1
    64    33    60    1
    65    33    61    1
    66    34    62    1
    67    34    63    1
    68    36    64    1
    69    36    65    1
    70    36    66    1
    71    37    67    1
    72    37    68    1
    73    38    69    1
    74    38    70    1
