
     RDKit          3D

 70 74  0  0  0  0  0  0  0  0999 V2000
   -3.2438   -1.8119    1.9245 C   0  0  0  0  0  0  0  0  0  0  0  0
   -4.1194   -2.4776    1.1389 O   0  0  0  0  0  0  0  0  0  0  0  0
   -4.1802   -2.2259   -0.1868 C   0  0  0  0  0  0  0  0  0  0  0  0
   -4.5422   -0.8690   -0.6585 C   0  0  2  0  0  0  0  0  0  0  0  0
   -3.3999    0.0721   -0.4615 C   0  0  0  0  0  0  0  0  0  0  0  0
   -3.6166    1.1531    0.1347 O   0  0  0  0  0  0  0  0  0  0  0  0
   -2.0976   -0.1962   -0.9142 N   0  0  0  0  0  0  0  0  0  0  0  0
   -0.9487    0.6015   -0.7851 C   0  0  0  0  0  0  0  0  0  0  0  0
   -0.9558    1.7844   -0.1208 C   0  0  0  0  0  0  0  0  0  0  0  0
    0.2502    2.5057   -0.0629 C   0  0  0  0  0  0  0  0  0  0  0  0
    1.4095    2.0534   -0.6487 C   0  0  0  0  0  0  0  0  0  0  0  0
    1.4124    0.8547   -1.3208 C   0  0  0  0  0  0  0  0  0  0  0  0
    2.4069    0.1671   -1.9956 C   0  0  0  0  0  0  0  0  0  0  0  0
    3.8039    0.5638   -2.1710 C   0  0  0  0  0  0  0  0  0  0  0  0
    4.6037    0.8520   -1.1291 N   0  0  0  0  0  0  0  0  0  0  0  0
    5.8921    1.2241   -1.2613 C   0  0  0  0  0  0  0  0  0  0  0  0
    6.7107    1.5147   -0.1252 N   0  0  0  0  0  0  0  0  0  0  0  0
    7.4705    0.4566    0.4356 C   0  0  0  0  0  0  0  0  0  0  0  0
    7.5133   -0.8544   -0.0130 C   0  0  0  0  0  0  0  0  0  0  0  0
    8.3449   -1.5410    0.7772 N   0  0  0  0  0  0  0  0  0  0  0  0
    8.6700   -2.9348    0.6555 C   0  0  0  0  0  0  0  0  0  0  0  0
    8.8132   -0.7227    1.6841 N   0  0  0  0  0  0  0  0  0  0  0  0
    8.3131    0.5138    1.5248 C   0  0  0  0  0  0  0  0  0  0  0  0
    8.6189    1.6938    2.3691 C   0  0  0  0  0  0  0  0  0  0  0  0
    6.3811    1.3043   -2.5158 N   0  0  0  0  0  0  0  0  0  0  0  0
    5.6595    1.0361   -3.6144 C   0  0  0  0  0  0  0  0  0  0  0  0
    4.3512    0.6594   -3.4550 C   0  0  0  0  0  0  0  0  0  0  0  0
    3.5774    0.3783   -4.5138 F   0  0  0  0  0  0  0  0  0  0  0  0
    1.7982   -0.9830   -2.4674 C   0  0  0  0  0  0  0  0  0  0  0  0
    0.5186   -0.9778   -2.0945 N   0  0  0  0  0  0  0  0  0  0  0  0
    0.2338    0.1468   -1.3789 C   0  0  0  0  0  0  0  0  0  0  0  0
   -5.7850   -0.3822   -0.2503 N   0  0  0  0  0  0  0  0  0  0  0  0
   -6.2686    0.8515   -0.7024 C   0  0  0  0  0  0  0  0  0  0  0  0
   -7.1306    1.5868    0.3061 C   0  0  0  0  0  0  0  0  0  0  0  0
   -8.0296    0.7187    0.9933 N   0  0  0  0  0  0  0  0  0  0  0  0
   -8.0005    0.7991    2.4193 C   0  0  0  0  0  0  0  0  0  0  0  0
   -8.1050   -0.6240    0.4874 C   0  0  0  0  0  0  0  0  0  0  0  0
   -6.7357   -1.2625    0.3390 C   0  0  0  0  0  0  0  0  0  0  0  0
   -3.3584   -0.7282    1.9819 H   0  0  0  0  0  0  0  0  0  0  0  0
   -2.1701   -2.0899    1.7465 H   0  0  0  0  0  0  0  0  0  0  0  0
   -3.4185   -2.1781    2.9847 H   0  0  0  0  0  0  0  0  0  0  0  0
   -3.1599   -2.4848   -0.6082 H   0  0  0  0  0  0  0  0  0  0  0  0
   -4.8400   -2.9681   -0.7366 H   0  0  0  0  0  0  0  0  0  0  0  0
   -4.5966   -0.9607   -1.7992 H   0  0  0  0  0  0  0  0  0  0  0  0
   -2.0090   -1.1401   -1.4298 H   0  0  0  0  0  0  0  0  0  0  0  0
   -1.7914    2.2408    0.3761 H   0  0  0  0  0  0  0  0  0  0  0  0
    0.2819    3.4524    0.4578 H   0  0  0  0  0  0  0  0  0  0  0  0
    2.3430    2.5966   -0.6123 H   0  0  0  0  0  0  0  0  0  0  0  0
    6.7506    2.4728    0.2804 H   0  0  0  0  0  0  0  0  0  0  0  0
    6.9573   -1.2303   -0.8622 H   0  0  0  0  0  0  0  0  0  0  0  0
    9.6042   -3.1457    1.1865 H   0  0  0  0  0  0  0  0  0  0  0  0
    8.8751   -3.1685   -0.4244 H   0  0  0  0  0  0  0  0  0  0  0  0
    7.8090   -3.5393    1.0203 H   0  0  0  0  0  0  0  0  0  0  0  0
    9.6921    1.6665    2.6656 H   0  0  0  0  0  0  0  0  0  0  0  0
    7.9712    1.6116    3.2728 H   0  0  0  0  0  0  0  0  0  0  0  0
    8.4573    2.6397    1.8468 H   0  0  0  0  0  0  0  0  0  0  0  0
    6.1362    1.1269   -4.5980 H   0  0  0  0  0  0  0  0  0  0  0  0
    2.3509   -1.7182   -3.0427 H   0  0  0  0  0  0  0  0  0  0  0  0
   -0.2006   -1.7176   -2.3028 H   0  0  0  0  0  0  0  0  0  0  0  0
   -5.4879    1.4722   -1.1564 H   0  0  0  0  0  0  0  0  0  0  0  0
   -6.9821    0.6328   -1.5599 H   0  0  0  0  0  0  0  0  0  0  0  0
   -6.4479    2.0523    1.0458 H   0  0  0  0  0  0  0  0  0  0  0  0
   -7.6911    2.4231   -0.1782 H   0  0  0  0  0  0  0  0  0  0  0  0
   -8.6942    1.6401    2.7044 H   0  0  0  0  0  0  0  0  0  0  0  0
   -7.0088    1.1040    2.7764 H   0  0  0  0  0  0  0  0  0  0  0  0
   -8.3233   -0.1430    2.8864 H   0  0  0  0  0  0  0  0  0  0  0  0
   -8.6504   -0.5842   -0.4791 H   0  0  0  0  0  0  0  0  0  0  0  0
   -8.7514   -1.2003    1.1788 H   0  0  0  0  0  0  0  0  0  0  0  0
   -6.8641   -2.1353   -0.3346 H   0  0  0  0  0  0  0  0  0  0  0  0
   -6.3771   -1.6281    1.2973 H   0  0  0  0  0  0  0  0  0  0  0  0
  1  2  1  0
  2  3  1  0
  3  4  1  0
  4  5  1  0
  5  6  2  0
  5  7  1  0
  7  8  1  0
  8  9  2  0
  9 10  1  0
 10 11  2  0
 11 12  1  0
 12 13  1  0
 13 14  1  0
 14 15  2  0
 15 16  1  0
 16 17  1  0
 17 18  1  0
 18 19  2  0
 19 20  1  0
 20 21  1  0
 20 22  1  0
 22 23  2  0
 23 24  1  0
 16 25  2  0
 25 26  1  0
 26 27  2  0
 27 28  1  0
 13 29  2  0
 29 30  1  0
 30 31  1  0
  4 32  1  0
 32 33  1  0
 33 34  1  0
 34 35  1  0
 35 36  1  0
 35 37  1  0
 37 38  1  0
 31  8  1  0
 38 32  1  0
 31 12  2  0
 27 14  1  0
 23 18  1  0
  1 39  1  0
  1 40  1  0
  1 41  1  0
  3 42  1  0
  3 43  1  0
  4 44  1  6
  7 45  1  0
  9 46  1  0
 10 47  1  0
 11 48  1  0
 17 49  1  0
 19 50  1  0
 21 51  1  0
 21 52  1  0
 21 53  1  0
 24 54  1  0
 24 55  1  0
 24 56  1  0
 26 57  1  0
 29 58  1  0
 30 59  1  0
 33 60  1  0
 33 61  1  0
 34 62  1  0
 34 63  1  0
 36 64  1  0
 36 65  1  0
 36 66  1  0
 37 67  1  0
 37 68  1  0
 38 69  1  0
 38 70  1  0
M  END
$$$$
