
     RDKit          3D

 46 47  0  0  0  0  0  0  0  0999 V2000
   -7.3031   -0.0812   -0.2775 C   0  0  0  0  0  0  0  0  0  0  0  0
   -6.1907   -1.0350   -0.6919 C   0  0  0  0  0  0  0  0  0  0  0  0
   -4.8749   -0.2467   -0.6188 C   0  0  0  0  0  0  0  0  0  0  0  0
   -4.6857    0.2270    0.7868 C   0  0  0  0  0  0  0  0  0  0  0  0
   -3.4296    1.0124    0.9589 C   0  0  0  0  0  0  0  0  0  0  0  0
   -2.2339    0.1632    0.6001 C   0  0  0  0  0  0  0  0  0  0  0  0
   -0.9998    1.0283    0.8053 C   0  0  0  0  0  0  0  0  0  0  0  0
    0.2557    0.2172    0.4551 C   0  0  0  0  0  0  0  0  0  0  0  0
    1.4151    1.1565    0.6898 C   0  0  0  0  0  0  0  0  0  0  0  0
    2.7260    0.5712    0.4123 C   0  0  0  0  0  0  0  0  0  0  0  0
    3.0893   -0.6498   -0.0127 N   0  0  0  0  0  4  0  0  0  0  0  0
    2.0306   -1.4922   -0.2198 O   0  0  0  0  0  1  0  0  0  0  0  0
    4.3792   -0.9752   -0.2039 C   0  0  0  0  0  0  0  0  0  0  0  0
    4.6582   -2.2533   -0.6422 C   0  0  0  0  0  0  0  0  0  0  0  0
    5.9917   -2.6098   -0.8465 C   0  0  0  0  0  0  0  0  0  0  0  0
    7.0314   -1.7392   -0.6284 C   0  0  0  0  0  0  0  0  0  0  0  0
    6.7349   -0.4635   -0.1898 C   0  0  0  0  0  0  0  0  0  0  0  0
    5.4189   -0.0992    0.0160 C   0  0  0  0  0  0  0  0  0  0  0  0
    5.0822    1.1797    0.4583 C   0  0  0  0  0  0  0  0  0  0  0  0
    6.1374    2.0361    0.6708 O   0  0  0  0  0  0  0  0  0  0  0  0
    3.7376    1.4893    0.6479 C   0  0  0  0  0  0  0  0  0  0  0  0
   -7.0107    0.9253   -0.6598 H   0  0  0  0  0  0  0  0  0  0  0  0
   -8.2338   -0.4322   -0.7798 H   0  0  0  0  0  0  0  0  0  0  0  0
   -7.3778   -0.0677    0.8206 H   0  0  0  0  0  0  0  0  0  0  0  0
   -6.1274   -1.9068   -0.0373 H   0  0  0  0  0  0  0  0  0  0  0  0
   -6.4068   -1.3491   -1.7339 H   0  0  0  0  0  0  0  0  0  0  0  0
   -4.9015    0.6055   -1.3223 H   0  0  0  0  0  0  0  0  0  0  0  0
   -4.0939   -0.9791   -0.9357 H   0  0  0  0  0  0  0  0  0  0  0  0
   -4.6069   -0.6603    1.4754 H   0  0  0  0  0  0  0  0  0  0  0  0
   -5.5581    0.8154    1.1056 H   0  0  0  0  0  0  0  0  0  0  0  0
   -3.3938    1.8940    0.2628 H   0  0  0  0  0  0  0  0  0  0  0  0
   -3.3029    1.3538    1.9953 H   0  0  0  0  0  0  0  0  0  0  0  0
   -2.3078   -0.1703   -0.4409 H   0  0  0  0  0  0  0  0  0  0  0  0
   -2.2052   -0.7168    1.2594 H   0  0  0  0  0  0  0  0  0  0  0  0
   -0.9118    1.3762    1.8407 H   0  0  0  0  0  0  0  0  0  0  0  0
   -1.0566    1.9074    0.1327 H   0  0  0  0  0  0  0  0  0  0  0  0
    0.3641   -0.6309    1.1578 H   0  0  0  0  0  0  0  0  0  0  0  0
    0.1903   -0.1284   -0.6074 H   0  0  0  0  0  0  0  0  0  0  0  0
    1.2252    2.0378    0.0406 H   0  0  0  0  0  0  0  0  0  0  0  0
    1.3852    1.4228    1.7697 H   0  0  0  0  0  0  0  0  0  0  0  0
    3.8752   -2.9761   -0.8286 H   0  0  0  0  0  0  0  0  0  0  0  0
    6.2912   -3.5964   -1.1904 H   0  0  0  0  0  0  0  0  0  0  0  0
    8.0741   -1.9846   -0.7771 H   0  0  0  0  0  0  0  0  0  0  0  0
    7.5320    0.2702   -0.0007 H   0  0  0  0  0  0  0  0  0  0  0  0
    5.9488    3.0385    0.7144 H   0  0  0  0  0  0  0  0  0  0  0  0
    3.6383    2.5157    0.9918 H   0  0  0  0  0  0  0  0  0  0  0  0
  1  2  1  0
  2  3  1  0
  3  4  1  0
  4  5  1  0
  5  6  1  0
  6  7  1  0
  7  8  1  0
  8  9  1  0
  9 10  1  0
 10 11  2  0
 11 12  1  0
 11 13  1  0
 13 14  2  0
 14 15  1  0
 15 16  2  0
 16 17  1  0
 17 18  2  0
 18 19  1  0
 19 20  1  0
 19 21  2  0
 21 10  1  0
 18 13  1  0
  1 22  1  0
  1 23  1  0
  1 24  1  0
  2 25  1  0
  2 26  1  0
  3 27  1  0
  3 28  1  0
  4 29  1  0
  4 30  1  0
  5 31  1  0
  5 32  1  0
  6 33  1  0
  6 34  1  0
  7 35  1  0
  7 36  1  0
  8 37  1  0
  8 38  1  0
  9 39  1  0
  9 40  1  0
 14 41  1  0
 15 42  1  0
 16 43  1  0
 17 44  1  0
 20 45  1  0
 21 46  1  0
M  CHG  2  11   1  12  -1
M  END
$$$$
