@<TRIPOS>MOLECULE
*****
 46 49 0 0 0
SMALL
GASTEIGER

@<TRIPOS>ATOM
      1 C           6.6151   -2.5381   -0.1197 C.3     1  UNL1        0.0788
      2 O           5.8103   -1.9286    0.8485 O.3     1  UNL1       -0.4951
      3 C           4.5000   -1.5889    0.5683 C.ar    1  UNL1        0.1202
      4 C           3.8713   -1.8092   -0.6417 C.ar    1  UNL1       -0.0179
      5 C           2.5422   -1.4378   -0.8573 C.ar    1  UNL1       -0.0327
      6 C           1.7916   -0.8335    0.1243 C.ar    1  UNL1        0.0679
      7 N           0.4470   -0.4757   -0.1386 N.2     1  UNL1       -0.2125
      8 C          -0.0228    0.6986   -0.2230 C.ar    1  UNL1        0.2333
      9 O           0.7948    1.7056   -0.0543 O.2     1  UNL1       -0.4365
     10 C           0.2786    2.9187   -0.1483 C.ar    1  UNL1        0.1410
     11 C           1.1127    4.0029    0.0247 C.ar    1  UNL1        0.0228
     12 C           0.6019    5.2797   -0.0671 C.ar    1  UNL1        0.1204
     13 O           1.4752    6.3359    0.1150 O.3     1  UNL1       -0.5066
     14 C          -0.7384    5.5044   -0.3317 C.ar    1  UNL1       -0.0194
     15 C          -1.5842    4.4291   -0.5070 C.ar    1  UNL1       -0.0476
     16 C          -1.0447    3.1636   -0.4090 C.ar    1  UNL1        0.0185
     17 C          -1.9084    2.0933   -0.5874 C.ar    1  UNL1       -0.0338
     18 C          -1.3629    0.8398   -0.4877 C.ar    1  UNL1        0.0995
     19 C          -2.1833   -0.3617   -0.6588 C.2     1  UNL1        0.2545
     20 O          -2.2205   -0.9549   -1.7590 O.2     1  UNL1       -0.2696
     21 N          -2.9430   -0.8646    0.4250 N.am    1  UNL1       -0.2662
     22 C          -3.7593   -2.0271    0.3232 C.ar    1  UNL1        0.1251
     23 C          -5.0913   -1.9987   -0.0305 C.ar    1  UNL1       -0.0215
     24 C          -5.8717   -3.1325   -0.1295 C.ar    1  UNL1       -0.0571
     25 C          -5.2707   -4.3551    0.1443 C.ar    1  UNL1       -0.0435
     26 C          -3.9347   -4.3683    0.4977 C.ar    1  UNL1        0.0297
     27 N          -3.2045   -3.2423    0.5837 N.ar    1  UNL1       -0.2401
     28 C           2.4244   -0.6173    1.3282 C.ar    1  UNL1       -0.0327
     29 C           3.7258   -0.9727    1.5638 C.ar    1  UNL1       -0.0179
     30 H           6.4928   -3.6497   -0.1849 H       1  UNL1        0.0660
     31 H           6.3874   -2.1235   -1.1065 H       1  UNL1        0.0660
     32 H           7.6842   -2.2842    0.1732 H       1  UNL1        0.0660
     33 H           4.4275   -2.2831   -1.4290 H       1  UNL1        0.0655
     34 H           2.0912   -1.6354   -1.8379 H       1  UNL1        0.0640
     35 H           2.1615    3.8318    0.2311 H       1  UNL1        0.0691
     36 H           1.2057    7.3075    0.0253 H       1  UNL1        0.2921
     37 H          -1.0698    6.5159   -0.3876 H       1  UNL1        0.0654
     38 H          -2.6347    4.6138   -0.7134 H       1  UNL1        0.0626
     39 H          -2.9498    2.1958   -0.7944 H       1  UNL1        0.0634
     40 H          -2.8717   -0.3172    1.3315 H       1  UNL1        0.1566
     41 H          -5.5283   -1.0243   -0.2365 H       1  UNL1        0.0652
     42 H          -6.9152   -3.0823   -0.4084 H       1  UNL1        0.0619
     43 H          -5.8555   -5.2630    0.0771 H       1  UNL1        0.0633
     44 H          -3.4985   -5.3347    0.7023 H       1  UNL1        0.0830
     45 H           1.8185   -0.1372    2.1031 H       1  UNL1        0.0640
     46 H           4.2041   -0.7947    2.5141 H       1  UNL1        0.0655
@<TRIPOS>BOND
     1     1     2    1
     2     2     3    1
     3     3     4   ar
     4     4     5   ar
     5     5     6   ar
     6     6     7    1
     7     7     8    2
     8     8     9   ar
     9     9    10   ar
    10    10    11   ar
    11    11    12   ar
    12    12    13    1
    13    12    14   ar
    14    14    15   ar
    15    15    16   ar
    16    16    17   ar
    17    17    18   ar
    18    18    19    1
    19    19    20    2
    20    19    21   am
    21    21    22    1
    22    22    23   ar
    23    23    24   ar
    24    24    25   ar
    25    25    26   ar
    26    26    27   ar
    27     6    28   ar
    28    28    29   ar
    29    29     3   ar
    30    18     8   ar
    31    27    22   ar
    32    16    10   ar
    33     1    30    1
    34     1    31    1
    35     1    32    1
    36     4    33    1
    37     5    34    1
    38    11    35    1
    39    13    36    1
    40    14    37    1
    41    15    38    1
    42    17    39    1
    43    21    40    1
    44    23    41    1
    45    24    42    1
    46    25    43    1
    47    26    44    1
    48    28    45    1
    49    29    46    1
