
     RDKit          3D

 46 49  0  0  0  0  0  0  0  0999 V2000
    6.6151   -2.5381   -0.1197 C   0  0  0  0  0  0  0  0  0  0  0  0
    5.8103   -1.9286    0.8485 O   0  0  0  0  0  0  0  0  0  0  0  0
    4.5000   -1.5889    0.5683 C   0  0  0  0  0  0  0  0  0  0  0  0
    3.8713   -1.8092   -0.6417 C   0  0  0  0  0  0  0  0  0  0  0  0
    2.5422   -1.4378   -0.8573 C   0  0  0  0  0  0  0  0  0  0  0  0
    1.7916   -0.8335    0.1243 C   0  0  0  0  0  0  0  0  0  0  0  0
    0.4470   -0.4757   -0.1386 N   0  0  0  0  0  0  0  0  0  0  0  0
   -0.0228    0.6986   -0.2230 C   0  0  0  0  0  0  0  0  0  0  0  0
    0.7948    1.7056   -0.0543 O   0  0  0  0  0  0  0  0  0  0  0  0
    0.2786    2.9187   -0.1483 C   0  0  0  0  0  0  0  0  0  0  0  0
    1.1127    4.0029    0.0247 C   0  0  0  0  0  0  0  0  0  0  0  0
    0.6019    5.2797   -0.0671 C   0  0  0  0  0  0  0  0  0  0  0  0
    1.4752    6.3359    0.1150 O   0  0  0  0  0  0  0  0  0  0  0  0
   -0.7384    5.5044   -0.3317 C   0  0  0  0  0  0  0  0  0  0  0  0
   -1.5842    4.4291   -0.5070 C   0  0  0  0  0  0  0  0  0  0  0  0
   -1.0447    3.1636   -0.4090 C   0  0  0  0  0  0  0  0  0  0  0  0
   -1.9084    2.0933   -0.5874 C   0  0  0  0  0  0  0  0  0  0  0  0
   -1.3629    0.8398   -0.4877 C   0  0  0  0  0  0  0  0  0  0  0  0
   -2.1833   -0.3617   -0.6588 C   0  0  0  0  0  0  0  0  0  0  0  0
   -2.2205   -0.9549   -1.7590 O   0  0  0  0  0  0  0  0  0  0  0  0
   -2.9430   -0.8646    0.4250 N   0  0  0  0  0  0  0  0  0  0  0  0
   -3.7593   -2.0271    0.3232 C   0  0  0  0  0  0  0  0  0  0  0  0
   -5.0913   -1.9987   -0.0305 C   0  0  0  0  0  0  0  0  0  0  0  0
   -5.8717   -3.1325   -0.1295 C   0  0  0  0  0  0  0  0  0  0  0  0
   -5.2707   -4.3551    0.1443 C   0  0  0  0  0  0  0  0  0  0  0  0
   -3.9347   -4.3683    0.4977 C   0  0  0  0  0  0  0  0  0  0  0  0
   -3.2045   -3.2423    0.5837 N   0  0  0  0  0  0  0  0  0  0  0  0
    2.4244   -0.6173    1.3282 C   0  0  0  0  0  0  0  0  0  0  0  0
    3.7258   -0.9727    1.5638 C   0  0  0  0  0  0  0  0  0  0  0  0
    6.4928   -3.6497   -0.1849 H   0  0  0  0  0  0  0  0  0  0  0  0
    6.3874   -2.1235   -1.1065 H   0  0  0  0  0  0  0  0  0  0  0  0
    7.6842   -2.2842    0.1732 H   0  0  0  0  0  0  0  0  0  0  0  0
    4.4275   -2.2831   -1.4290 H   0  0  0  0  0  0  0  0  0  0  0  0
    2.0912   -1.6354   -1.8379 H   0  0  0  0  0  0  0  0  0  0  0  0
    2.1615    3.8318    0.2311 H   0  0  0  0  0  0  0  0  0  0  0  0
    1.2057    7.3075    0.0253 H   0  0  0  0  0  0  0  0  0  0  0  0
   -1.0698    6.5159   -0.3876 H   0  0  0  0  0  0  0  0  0  0  0  0
   -2.6347    4.6138   -0.7134 H   0  0  0  0  0  0  0  0  0  0  0  0
   -2.9498    2.1958   -0.7944 H   0  0  0  0  0  0  0  0  0  0  0  0
   -2.8717   -0.3172    1.3315 H   0  0  0  0  0  0  0  0  0  0  0  0
   -5.5283   -1.0243   -0.2365 H   0  0  0  0  0  0  0  0  0  0  0  0
   -6.9152   -3.0823   -0.4084 H   0  0  0  0  0  0  0  0  0  0  0  0
   -5.8555   -5.2630    0.0771 H   0  0  0  0  0  0  0  0  0  0  0  0
   -3.4985   -5.3347    0.7023 H   0  0  0  0  0  0  0  0  0  0  0  0
    1.8185   -0.1372    2.1031 H   0  0  0  0  0  0  0  0  0  0  0  0
    4.2041   -0.7947    2.5141 H   0  0  0  0  0  0  0  0  0  0  0  0
  1  2  1  0
  2  3  1  0
  3  4  2  0
  4  5  1  0
  5  6  2  0
  6  7  1  0
  7  8  2  0
  8  9  1  0
  9 10  1  0
 10 11  2  0
 11 12  1  0
 12 13  1  0
 12 14  2  0
 14 15  1  0
 15 16  2  0
 16 17  1  0
 17 18  2  0
 18 19  1  0
 19 20  2  0
 19 21  1  0
 21 22  1  0
 22 23  2  0
 23 24  1  0
 24 25  2  0
 25 26  1  0
 26 27  2  0
  6 28  1  0
 28 29  2  0
 29  3  1  0
 18  8  1  0
 27 22  1  0
 16 10  1  0
  1 30  1  0
  1 31  1  0
  1 32  1  0
  4 33  1  0
  5 34  1  0
 11 35  1  0
 13 36  1  0
 14 37  1  0
 15 38  1  0
 17 39  1  0
 21 40  1  0
 23 41  1  0
 24 42  1  0
 25 43  1  0
 26 44  1  0
 28 45  1  0
 29 46  1  0
M  END
$$$$
