
     RDKit          3D

 45 46  0  0  0  0  0  0  0  0999 V2000
   -2.5508    2.4658    2.5551 C   0  0  0  0  0  0  0  0  0  0  0  0
   -3.3002    1.8833    1.4859 O   0  0  0  0  0  0  0  0  0  0  0  0
   -2.8857    0.6748    0.9497 C   0  0  0  0  0  0  0  0  0  0  0  0
   -1.7557    0.0390    1.4463 C   0  0  0  0  0  0  0  0  0  0  0  0
   -1.3438   -1.1565    0.9174 C   0  0  0  0  0  0  0  0  0  0  0  0
   -0.1495   -1.8504    1.4263 C   0  0  0  0  0  0  0  0  0  0  0  0
   -0.1653   -1.8414    2.8230 O   0  0  0  0  0  0  0  0  0  0  0  0
    1.0223   -1.1399    0.9044 C   0  0  0  0  0  0  0  0  0  0  0  0
    1.9998   -0.5657    0.4855 C   0  0  0  0  0  0  0  0  0  0  0  0
    3.1658    0.1212    0.0066 C   0  0  0  0  0  0  0  0  0  0  0  0
    4.2814   -0.5337   -0.4698 C   0  0  0  0  0  0  0  0  0  0  0  0
    4.2435   -2.0203   -0.4746 C   0  0  0  0  0  0  0  0  0  0  0  0
    5.3591    0.1281   -0.9121 N   0  0  0  0  0  0  0  0  0  0  0  0
    5.4112    1.4853   -0.9151 C   0  0  0  0  0  0  0  0  0  0  0  0
    6.5639    2.1688   -1.3885 N   0  0  0  0  0  0  0  0  0  0  0  0
    4.3319    2.1416   -0.4538 N   0  0  0  0  0  0  0  0  0  0  0  0
    3.2368    1.5114   -0.0038 C   0  0  0  0  0  0  0  0  0  0  0  0
    2.0945    2.1908    0.4842 N   0  0  0  0  0  0  0  0  0  0  0  0
   -2.0681   -1.7118   -0.1103 C   0  0  0  0  0  0  0  0  0  0  0  0
   -3.2002   -1.0970   -0.6243 C   0  0  0  0  0  0  0  0  0  0  0  0
   -3.9390   -1.6306   -1.6485 O   0  0  0  0  0  0  0  0  0  0  0  0
   -3.6395   -2.8505   -2.2914 C   0  0  0  0  0  0  0  0  0  0  0  0
   -3.5972    0.1026   -0.0796 C   0  0  0  0  0  0  0  0  0  0  0  0
   -4.7408    0.7724   -0.5630 O   0  0  0  0  0  0  0  0  0  0  0  0
   -4.5172    1.6885   -1.6206 C   0  0  0  0  0  0  0  0  0  0  0  0
   -2.6294    1.8600    3.4849 H   0  0  0  0  0  0  0  0  0  0  0  0
   -2.9523    3.4715    2.7952 H   0  0  0  0  0  0  0  0  0  0  0  0
   -1.4640    2.5494    2.2684 H   0  0  0  0  0  0  0  0  0  0  0  0
   -1.2310    0.5230    2.2512 H   0  0  0  0  0  0  0  0  0  0  0  0
   -0.1547   -2.9156    1.1189 H   0  0  0  0  0  0  0  0  0  0  0  0
    0.3894   -2.5864    3.1861 H   0  0  0  0  0  0  0  0  0  0  0  0
    3.2202   -2.3828   -0.5770 H   0  0  0  0  0  0  0  0  0  0  0  0
    4.6663   -2.3873    0.4777 H   0  0  0  0  0  0  0  0  0  0  0  0
    4.8423   -2.3541   -1.3528 H   0  0  0  0  0  0  0  0  0  0  0  0
    7.2225    2.6024   -0.7284 H   0  0  0  0  0  0  0  0  0  0  0  0
    6.7318    2.2248   -2.4016 H   0  0  0  0  0  0  0  0  0  0  0  0
    1.8466    2.1414    1.4931 H   0  0  0  0  0  0  0  0  0  0  0  0
    1.4725    2.7528   -0.1318 H   0  0  0  0  0  0  0  0  0  0  0  0
   -1.7876   -2.6558   -0.5662 H   0  0  0  0  0  0  0  0  0  0  0  0
   -4.4997   -3.0998   -2.9470 H   0  0  0  0  0  0  0  0  0  0  0  0
   -3.4447   -3.6785   -1.5903 H   0  0  0  0  0  0  0  0  0  0  0  0
   -2.7611   -2.7567   -2.9694 H   0  0  0  0  0  0  0  0  0  0  0  0
   -3.6183    2.2962   -1.3820 H   0  0  0  0  0  0  0  0  0  0  0  0
   -4.2900    1.1081   -2.5527 H   0  0  0  0  0  0  0  0  0  0  0  0
   -5.4161    2.3115   -1.8055 H   0  0  0  0  0  0  0  0  0  0  0  0
  1  2  1  0
  2  3  1  0
  3  4  2  0
  4  5  1  0
  5  6  1  0
  6  7  1  0
  6  8  1  0
  8  9  3  0
  9 10  1  0
 10 11  2  0
 11 12  1  0
 11 13  1  0
 13 14  2  0
 14 15  1  0
 14 16  1  0
 16 17  2  0
 17 18  1  0
  5 19  2  0
 19 20  1  0
 20 21  1  0
 21 22  1  0
 20 23  2  0
 23 24  1  0
 24 25  1  0
 23  3  1  0
 17 10  1  0
  1 26  1  0
  1 27  1  0
  1 28  1  0
  4 29  1  0
  6 30  1  0
  7 31  1  0
 12 32  1  0
 12 33  1  0
 12 34  1  0
 15 35  1  0
 15 36  1  0
 18 37  1  0
 18 38  1  0
 19 39  1  0
 22 40  1  0
 22 41  1  0
 22 42  1  0
 25 43  1  0
 25 44  1  0
 25 45  1  0
M  END
$$$$
