@<TRIPOS>MOLECULE
*****
 45 46 0 0 0
SMALL
GASTEIGER

@<TRIPOS>ATOM
      1 C          -2.5508    2.4658    2.5551 C.3     1  UNL1        0.0790
      2 O          -3.3002    1.8833    1.4859 O.3     1  UNL1       -0.4913
      3 C          -2.8857    0.6748    0.9497 C.ar    1  UNL1        0.1655
      4 C          -1.7557    0.0390    1.4463 C.ar    1  UNL1       -0.0095
      5 C          -1.3438   -1.1565    0.9174 C.ar    1  UNL1       -0.0000
      6 C          -0.1495   -1.8504    1.4263 C.3     1  UNL1        0.1415
      7 O          -0.1653   -1.8414    2.8230 O.3     1  UNL1       -0.3751
      8 C           1.0223   -1.1399    0.9044 C.1     1  UNL1       -0.0607
      9 C           1.9998   -0.5657    0.4855 C.1     1  UNL1       -0.0582
     10 C           3.1658    0.1212    0.0066 C.ar    1  UNL1        0.0855
     11 C           4.2814   -0.5337   -0.4698 C.ar    1  UNL1        0.0605
     12 C           4.2435   -2.0203   -0.4746 C.3     1  UNL1       -0.0209
     13 N           5.3591    0.1281   -0.9121 N.ar    1  UNL1       -0.2186
     14 C           5.4112    1.4853   -0.9151 C.ar    1  UNL1        0.2145
     15 N           6.5639    2.1688   -1.3885 N.pl3   1  UNL1       -0.3274
     16 N           4.3319    2.1416   -0.4538 N.ar    1  UNL1       -0.1989
     17 C           3.2368    1.5114   -0.0038 C.ar    1  UNL1        0.1370
     18 N           2.0945    2.1908    0.4842 N.pl3   1  UNL1       -0.3420
     19 C          -2.0681   -1.7118   -0.1103 C.ar    1  UNL1       -0.0095
     20 C          -3.2002   -1.0970   -0.6243 C.ar    1  UNL1        0.1655
     21 O          -3.9390   -1.6306   -1.6485 O.3     1  UNL1       -0.4913
     22 C          -3.6395   -2.8505   -2.2914 C.3     1  UNL1        0.0790
     23 C          -3.5972    0.1026   -0.0796 C.ar    1  UNL1        0.2035
     24 O          -4.7408    0.7724   -0.5630 O.3     1  UNL1       -0.4885
     25 C          -4.5172    1.6885   -1.6206 C.3     1  UNL1        0.0791
     26 H          -2.6294    1.8600    3.4849 H       1  UNL1        0.0660
     27 H          -2.9523    3.4715    2.7952 H       1  UNL1        0.0660
     28 H          -1.4640    2.5494    2.2684 H       1  UNL1        0.0660
     29 H          -1.2310    0.5230    2.2512 H       1  UNL1        0.0659
     30 H          -0.1547   -2.9156    1.1189 H       1  UNL1        0.0783
     31 H           0.3894   -2.5864    3.1861 H       1  UNL1        0.2115
     32 H           3.2202   -2.3828   -0.5770 H       1  UNL1        0.0293
     33 H           4.6663   -2.3873    0.4777 H       1  UNL1        0.0293
     34 H           4.8423   -2.3541   -1.3528 H       1  UNL1        0.0293
     35 H           7.2225    2.6024   -0.7284 H       1  UNL1        0.1452
     36 H           6.7318    2.2248   -2.4016 H       1  UNL1        0.1452
     37 H           1.8466    2.1414    1.4931 H       1  UNL1        0.1437
     38 H           1.4725    2.7528   -0.1318 H       1  UNL1        0.1437
     39 H          -1.7876   -2.6558   -0.5662 H       1  UNL1        0.0659
     40 H          -4.4997   -3.0998   -2.9470 H       1  UNL1        0.0660
     41 H          -3.4447   -3.6785   -1.5903 H       1  UNL1        0.0660
     42 H          -2.7611   -2.7567   -2.9694 H       1  UNL1        0.0660
     43 H          -3.6183    2.2962   -1.3820 H       1  UNL1        0.0660
     44 H          -4.2900    1.1081   -2.5527 H       1  UNL1        0.0660
     45 H          -5.4161    2.3115   -1.8055 H       1  UNL1        0.0660
@<TRIPOS>BOND
     1     1     2    1
     2     2     3    1
     3     3     4   ar
     4     4     5   ar
     5     5     6    1
     6     6     7    1
     7     6     8    1
     8     8     9    3
     9     9    10    1
    10    10    11   ar
    11    11    12    1
    12    11    13   ar
    13    13    14   ar
    14    14    15    1
    15    14    16   ar
    16    16    17   ar
    17    17    18    1
    18     5    19   ar
    19    19    20   ar
    20    20    21    1
    21    21    22    1
    22    20    23   ar
    23    23    24    1
    24    24    25    1
    25    23     3   ar
    26    17    10   ar
    27     1    26    1
    28     1    27    1
    29     1    28    1
    30     4    29    1
    31     6    30    1
    32     7    31    1
    33    12    32    1
    34    12    33    1
    35    12    34    1
    36    15    35    1
    37    15    36    1
    38    18    37    1
    39    18    38    1
    40    19    39    1
    41    22    40    1
    42    22    41    1
    43    22    42    1
    44    25    43    1
    45    25    44    1
    46    25    45    1
