@<TRIPOS>MOLECULE
*****
 51 55 0 0 0
SMALL
GASTEIGER

@<TRIPOS>ATOM
      1 C          -2.4421   -1.5431    2.7959 C.3     1  UNL1        0.0788
      2 O          -1.6206   -1.5190    1.6422 O.3     1  UNL1       -0.4944
      3 C          -1.9480   -0.7184    0.5659 C.ar    1  UNL1        0.1299
      4 C          -3.0720    0.0680    0.5905 C.ar    1  UNL1       -0.0102
      5 C          -3.4419    0.8809   -0.4518 C.ar    1  UNL1        0.0040
      6 C          -4.6502    1.6776   -0.3235 C.ar    1  UNL1       -0.0137
      7 C          -5.8001    1.0594    0.1672 C.ar    1  UNL1       -0.0538
      8 C          -6.9784    1.7575    0.3152 C.ar    1  UNL1       -0.0585
      9 C          -7.0516    3.0873   -0.0181 C.ar    1  UNL1       -0.0264
     10 C          -5.9034    3.6919   -0.5046 C.ar    1  UNL1        0.1240
     11 F          -5.9567    5.0102   -0.8400 F       1  UNL1       -0.2055
     12 C          -4.7223    2.9994   -0.6550 C.ar    1  UNL1       -0.0187
     13 C          -2.6358    0.8927   -1.5616 C.ar    1  UNL1        0.0495
     14 CL         -3.0818    1.9142   -2.9013 Cl      1  UNL1       -0.0829
     15 C          -1.4805    0.1099   -1.6355 C.ar    1  UNL1       -0.0301
     16 C          -1.1533   -0.6910   -0.5577 C.ar    1  UNL1        0.0440
     17 C           0.0494   -1.5523   -0.5892 C.ar    1  UNL1        0.0822
     18 N          -0.1167   -2.8856   -0.4133 N.ar    1  UNL1       -0.2542
     19 C           0.9241   -3.7361   -0.4269 C.ar    1  UNL1        0.0289
     20 C           2.1770   -3.1965   -0.6281 C.ar    1  UNL1       -0.0358
     21 C           2.3829   -1.8447   -0.8101 C.ar    1  UNL1       -0.0126
     22 C           3.6640   -1.3238   -1.0061 C.ar    1  UNL1       -0.0272
     23 C           3.8899    0.0226   -1.1829 C.ar    1  UNL1        0.1092
     24 S           5.5162    0.6647   -1.4245 S.O2    1  UNL1        0.0747
     25 O           6.3274   -0.4314   -2.0880 O.2     1  UNL1       -0.1499
     26 O           5.4606    1.8282   -2.3754 O.2     1  UNL1       -0.1499
     27 N           6.2077    1.1063    0.0827 N.pl3   1  UNL1       -0.1811
     28 C           6.4279    0.1531    1.1046 C.ar    1  UNL1        0.2744
     29 N           6.1481   -1.1548    1.0538 N.ar    1  UNL1       -0.1801
     30 C           6.5000   -1.7089    2.2093 C.ar    1  UNL1        0.2157
     31 O           6.9852   -0.7636    2.9538 O.2     1  UNL1       -0.3398
     32 N           6.9573    0.3623    2.3249 N.ar    1  UNL1       -0.0390
     33 C           2.7861    0.8489   -1.1586 C.ar    1  UNL1       -0.0344
     34 C           1.5014    0.3465   -0.9646 C.ar    1  UNL1       -0.0501
     35 C           1.2940   -0.9998   -0.7904 C.ar    1  UNL1        0.0083
     36 H          -3.3718   -2.0974    2.6248 H       1  UNL1        0.0660
     37 H          -2.6258   -0.4869    3.1220 H       1  UNL1        0.0660
     38 H          -1.9345   -2.0207    3.6567 H       1  UNL1        0.0660
     39 H          -3.7028    0.0494    1.4761 H       1  UNL1        0.0661
     40 H          -5.7413    0.0028    0.4324 H       1  UNL1        0.0624
     41 H          -7.8812    1.2737    0.7001 H       1  UNL1        0.0619
     42 H          -7.9625    3.6606    0.0874 H       1  UNL1        0.0646
     43 H          -3.8195    3.4795   -1.0376 H       1  UNL1        0.0652
     44 H          -0.8714    0.1413   -2.5286 H       1  UNL1        0.0640
     45 H           0.7775   -4.8114   -0.2838 H       1  UNL1        0.0830
     46 H           3.0373   -3.8472   -0.6459 H       1  UNL1        0.0639
     47 H           4.4903   -2.0158   -1.0178 H       1  UNL1        0.0643
     48 H           6.4751    2.0929    0.2612 H       1  UNL1        0.1768
     49 H           6.3905   -2.7588    2.4570 H       1  UNL1        0.1283
     50 H           2.9376    1.9047   -1.2942 H       1  UNL1        0.0637
     51 H           0.6589    1.0208   -0.9432 H       1  UNL1        0.0625
@<TRIPOS>BOND
     1     1     2    1
     2     2     3    1
     3     3     4   ar
     4     4     5   ar
     5     5     6    1
     6     6     7   ar
     7     7     8   ar
     8     8     9   ar
     9     9    10   ar
    10    10    11    1
    11    10    12   ar
    12     5    13   ar
    13    13    14    1
    14    13    15   ar
    15    15    16   ar
    16    16    17    1
    17    17    18   ar
    18    18    19   ar
    19    19    20   ar
    20    20    21   ar
    21    21    22   ar
    22    22    23   ar
    23    23    24    1
    24    24    25    2
    25    24    26    2
    26    24    27    1
    27    27    28    1
    28    28    29   ar
    29    29    30   ar
    30    30    31   ar
    31    31    32   ar
    32    23    33   ar
    33    33    34   ar
    34    34    35   ar
    35    16     3   ar
    36    35    17   ar
    37    12     6   ar
    38    35    21   ar
    39    32    28   ar
    40     1    36    1
    41     1    37    1
    42     1    38    1
    43     4    39    1
    44     7    40    1
    45     8    41    1
    46     9    42    1
    47    12    43    1
    48    15    44    1
    49    19    45    1
    50    20    46    1
    51    22    47    1
    52    27    48    1
    53    30    49    1
    54    33    50    1
    55    34    51    1
