@<TRIPOS>MOLECULE
*****
 49 51 0 0 0
SMALL
GASTEIGER

@<TRIPOS>ATOM
      1 O          -3.5038   -0.9638   -1.4424 O.2     1  UNL1       -0.2921
      2 C          -3.8598   -0.6024   -0.3025 C.2     1  UNL1        0.1632
      3 C          -2.9695   -0.7931    0.8499 C.3     1  UNL1        0.0116
      4 C          -1.5997   -1.3264    0.5219 C.3     1  UNL1       -0.0332
      5 C          -0.8666   -0.3744   -0.3339 C.3     1  UNL1       -0.0007
      6 N           0.4463   -0.7319   -0.7533 N.3     1  UNL1       -0.3021
      7 C           1.0572    0.2790   -1.5970 C.3     1  UNL1        0.0018
      8 C           2.5661    0.2258   -1.5657 C.3     1  UNL1       -0.0070
      9 C           3.0032    0.5344   -0.1500 C.3     1  UNL1        0.0933
     10 O           2.7863    1.9196    0.0233 O.3     1  UNL1       -0.3839
     11 C           4.4561    0.2834    0.0406 C.ar    1  UNL1       -0.0160
     12 C           5.3675    1.3021   -0.1766 C.ar    1  UNL1       -0.0545
     13 C           6.7265    1.1161   -0.0155 C.ar    1  UNL1       -0.0430
     14 C           7.2318   -0.1069    0.3727 C.ar    1  UNL1        0.0410
     15 CL          8.9655   -0.3300    0.5749 Cl      1  UNL1       -0.0835
     16 C           6.3367   -1.1291    0.5923 C.ar    1  UNL1       -0.0430
     17 C           4.9621   -0.9366    0.4279 C.ar    1  UNL1       -0.0545
     18 C           2.1568   -0.2025    0.8382 C.3     1  UNL1       -0.0070
     19 C           1.3281   -1.2948    0.1921 C.3     1  UNL1        0.0018
     20 C          -5.1864    0.0096   -0.1818 C.ar    1  UNL1        0.0176
     21 C          -6.0108    0.1791   -1.2725 C.ar    1  UNL1       -0.0486
     22 C          -7.2549    0.7587   -1.1467 C.ar    1  UNL1       -0.0258
     23 C          -7.7355    1.1970    0.0762 C.ar    1  UNL1        0.1234
     24 F          -8.9596    1.7698    0.2050 F       1  UNL1       -0.2055
     25 C          -6.8974    1.0196    1.1567 C.ar    1  UNL1       -0.0258
     26 C          -5.6621    0.4455    1.0390 C.ar    1  UNL1       -0.0486
     27 H          -2.9055    0.1161    1.4941 H       1  UNL1        0.0345
     28 H          -3.4279   -1.5701    1.5365 H       1  UNL1        0.0345
     29 H          -1.1234   -1.5635    1.4966 H       1  UNL1        0.0282
     30 H          -1.7601   -2.3314    0.0392 H       1  UNL1        0.0282
     31 H          -1.4459   -0.1376   -1.2380 H       1  UNL1        0.0427
     32 H          -0.7460    0.5759    0.2591 H       1  UNL1        0.0427
     33 H           0.7811    1.2674   -1.1237 H       1  UNL1        0.0427
     34 H           0.6356    0.2965   -2.6056 H       1  UNL1        0.0427
     35 H           2.9599   -0.7449   -1.9259 H       1  UNL1        0.0309
     36 H           2.9167    1.0417   -2.2457 H       1  UNL1        0.0309
     37 H           2.5448    2.0690    0.9667 H       1  UNL1        0.2106
     38 H           4.9742    2.2664   -0.4809 H       1  UNL1        0.0622
     39 H           7.4497    1.9172   -0.1858 H       1  UNL1        0.0632
     40 H           6.7359   -2.0840    0.8959 H       1  UNL1        0.0632
     41 H           4.2631   -1.7476    0.6019 H       1  UNL1        0.0622
     42 H           1.5182    0.4929    1.4223 H       1  UNL1        0.0309
     43 H           2.8229   -0.6939    1.5739 H       1  UNL1        0.0309
     44 H           2.0282   -2.0522   -0.2355 H       1  UNL1        0.0427
     45 H           0.7708   -1.7934    0.9999 H       1  UNL1        0.0427
     46 H          -5.6451   -0.1609   -2.2358 H       1  UNL1        0.0625
     47 H          -7.9122    0.8950   -2.0091 H       1  UNL1        0.0646
     48 H          -7.2805    1.3664    2.1194 H       1  UNL1        0.0646
     49 H          -5.0386    0.3272    1.9211 H       1  UNL1        0.0625
@<TRIPOS>BOND
     1     1     2    2
     2     2     3    1
     3     3     4    1
     4     4     5    1
     5     5     6    1
     6     6     7    1
     7     7     8    1
     8     8     9    1
     9     9    10    1
    10     9    11    1
    11    11    12   ar
    12    12    13   ar
    13    13    14   ar
    14    14    15    1
    15    14    16   ar
    16    16    17   ar
    17     9    18    1
    18    18    19    1
    19     2    20    1
    20    20    21   ar
    21    21    22   ar
    22    22    23   ar
    23    23    24    1
    24    23    25   ar
    25    25    26   ar
    26    19     6    1
    27    26    20   ar
    28    17    11   ar
    29     3    27    1
    30     3    28    1
    31     4    29    1
    32     4    30    1
    33     5    31    1
    34     5    32    1
    35     7    33    1
    36     7    34    1
    37     8    35    1
    38     8    36    1
    39    10    37    1
    40    12    38    1
    41    13    39    1
    42    16    40    1
    43    17    41    1
    44    18    42    1
    45    18    43    1
    46    19    44    1
    47    19    45    1
    48    21    46    1
    49    22    47    1
    50    25    48    1
    51    26    49    1
