@<TRIPOS>MOLECULE
*****
 60 62 0 0 0
SMALL
GASTEIGER

@<TRIPOS>ATOM
      1 O           2.9865    4.8272    1.3824 O.3     1  UNL1       -0.3938
      2 C           3.2807    4.0995    0.2292 C.3     1  UNL1        0.0567
      3 C           4.4808    3.2508    0.4936 C.3     1  UNL1        0.0192
      4 N           4.9178    2.4380   -0.5918 N.3     1  UNL1       -0.3123
      5 C           4.0410    1.3567   -0.9562 C.3     1  UNL1        0.0115
      6 C           4.0484    0.3393    0.1609 C.3     1  UNL1        0.0217
      7 N           3.2031   -0.8042   -0.0882 N.pl3   1  UNL1       -0.3421
      8 C           1.7904   -0.7796   -0.0404 C.ar    1  UNL1        0.0389
      9 C           1.1735    0.3933    0.3201 C.ar    1  UNL1       -0.0384
     10 C          -0.1966    0.4919    0.4185 C.ar    1  UNL1       -0.0384
     11 C          -1.0223   -0.5621    0.1662 C.ar    1  UNL1        0.0389
     12 N          -2.4268   -0.3968    0.2943 N.pl3   1  UNL1       -0.3421
     13 C          -2.9557    0.8816    0.6741 C.3     1  UNL1        0.0217
     14 C          -4.4271    0.9770    0.8421 C.3     1  UNL1        0.0115
     15 N          -4.7773    2.3348    1.2201 N.3     1  UNL1       -0.3123
     16 C          -4.5660    3.2939    0.1796 C.3     1  UNL1        0.0192
     17 C          -4.9758    4.6661    0.7250 C.3     1  UNL1        0.0567
     18 O          -4.2208    4.9970    1.8261 O.3     1  UNL1       -0.3938
     19 C          -0.4153   -1.7447   -0.1965 C.ar    1  UNL1        0.0558
     20 C           0.9575   -1.8344   -0.2925 C.ar    1  UNL1        0.0558
     21 C           1.5354   -3.1067   -0.6808 C.2     1  UNL1        0.1999
     22 O           2.7543   -3.3279   -0.8061 O.2     1  UNL1       -0.2864
     23 C           0.7438   -4.2973   -0.9755 C.ar    1  UNL1        0.0780
     24 C          -0.6522   -4.2060   -0.8778 C.ar    1  UNL1        0.0780
     25 C          -1.4237   -5.3377   -1.1575 C.ar    1  UNL1        0.1286
     26 O          -2.8210   -5.2179   -1.0519 O.3     1  UNL1       -0.5060
     27 C          -0.8515   -6.5385   -1.5259 C.ar    1  UNL1       -0.0160
     28 C           0.5215   -6.6363   -1.6242 C.ar    1  UNL1       -0.0160
     29 C           1.2884   -5.5251   -1.3500 C.ar    1  UNL1        0.1286
     30 O           2.6552   -5.6209   -1.4481 O.3     1  UNL1       -0.5060
     31 C          -1.2248   -2.9207   -0.4862 C.2     1  UNL1        0.1999
     32 O          -2.4628   -2.9469   -0.4298 O.2     1  UNL1       -0.2864
     33 H           3.8538    4.9837    1.8446 H       1  UNL1        0.2095
     34 H           2.3760    3.5193   -0.0239 H       1  UNL1        0.0570
     35 H           3.4604    4.8577   -0.5712 H       1  UNL1        0.0570
     36 H           5.3313    3.9622    0.7148 H       1  UNL1        0.0446
     37 H           4.3210    2.7260    1.4552 H       1  UNL1        0.0446
     38 H           5.8642    2.0742   -0.3772 H       1  UNL1        0.1221
     39 H           3.0652    1.7228   -1.2529 H       1  UNL1        0.0439
     40 H           4.5573    0.8246   -1.8190 H       1  UNL1        0.0439
     41 H           3.5956    0.8719    1.0619 H       1  UNL1        0.0474
     42 H           5.0844    0.1252    0.4330 H       1  UNL1        0.0474
     43 H           3.8798   -1.5603   -0.2912 H       1  UNL1        0.1461
     44 H           1.6822    1.3120    0.5634 H       1  UNL1        0.0637
     45 H          -0.6644    1.4422    0.7085 H       1  UNL1        0.0637
     46 H          -3.2402   -1.0162    0.1729 H       1  UNL1        0.1461
     47 H          -2.5382    1.6386   -0.0262 H       1  UNL1        0.0474
     48 H          -2.4916    1.1262    1.6607 H       1  UNL1        0.0474
     49 H          -5.0194    0.6474   -0.0333 H       1  UNL1        0.0439
     50 H          -4.7321    0.3592    1.7341 H       1  UNL1        0.0439
     51 H          -4.1595    2.5766    2.0505 H       1  UNL1        0.1221
     52 H          -3.5354    3.4051   -0.1682 H       1  UNL1        0.0446
     53 H          -5.2995    3.0532   -0.6240 H       1  UNL1        0.0446
     54 H          -6.0549    4.5757    0.9899 H       1  UNL1        0.0570
     55 H          -4.9326    5.4256   -0.0775 H       1  UNL1        0.0570
     56 H          -4.7770    5.0743    2.6326 H       1  UNL1        0.2095
     57 H          -3.3514   -5.5910   -1.8360 H       1  UNL1        0.2922
     58 H          -1.5137   -7.3720   -1.7259 H       1  UNL1        0.0655
     59 H           0.9862   -7.5703   -1.9116 H       1  UNL1        0.0655
     60 H           3.2941   -5.7374   -0.6913 H       1  UNL1        0.2922
@<TRIPOS>BOND
     1     1     2    1
     2     2     3    1
     3     3     4    1
     4     4     5    1
     5     5     6    1
     6     6     7    1
     7     7     8    1
     8     8     9   ar
     9     9    10   ar
    10    10    11   ar
    11    11    12    1
    12    12    13    1
    13    13    14    1
    14    14    15    1
    15    15    16    1
    16    16    17    1
    17    17    18    1
    18    11    19   ar
    19    19    20   ar
    20    20    21    1
    21    21    22    2
    22    21    23    1
    23    23    24   ar
    24    24    25   ar
    25    25    26    1
    26    25    27   ar
    27    27    28   ar
    28    28    29   ar
    29    29    30    1
    30    24    31    1
    31    31    32    2
    32    20     8   ar
    33    29    23   ar
    34    31    19    1
    35     1    33    1
    36     2    34    1
    37     2    35    1
    38     3    36    1
    39     3    37    1
    40     4    38    1
    41     5    39    1
    42     5    40    1
    43     6    41    1
    44     6    42    1
    45     7    43    1
    46     9    44    1
    47    10    45    1
    48    12    46    1
    49    13    47    1
    50    13    48    1
    51    14    49    1
    52    14    50    1
    53    15    51    1
    54    16    52    1
    55    16    53    1
    56    17    54    1
    57    17    55    1
    58    18    56    1
    59    26    57    1
    60    27    58    1
    61    28    59    1
    62    30    60    1
