@<TRIPOS>MOLECULE
*****
 53 57 0 0 0
SMALL
GASTEIGER

@<TRIPOS>ATOM
      1 O           5.5207    0.3842   -1.8311 O.2     1  UNL1       -0.2751
      2 C           5.6512   -0.7499   -1.3374 C.2     1  UNL1        0.2225
      3 N           5.0293   -1.0338   -0.1146 N.am    1  UNL1       -0.2530
      4 C           4.2513   -0.0455    0.5706 C.ar    1  UNL1        0.2416
      5 N           4.6642    0.8522    1.4835 N.ar    1  UNL1       -0.1938
      6 C           3.6402    1.6163    1.9037 C.ar    1  UNL1        0.1583
      7 C           3.4942    2.6611    2.8036 C.ar    1  UNL1       -0.0173
      8 C           2.2664    3.2470    3.0110 C.ar    1  UNL1       -0.0562
      9 C           1.1931    2.7652    2.3000 C.ar    1  UNL1       -0.0355
     10 C           1.3296    1.7152    1.3930 C.ar    1  UNL1        0.0749
     11 C           0.1927    1.1924    0.6289 C.ar    1  UNL1        0.0005
     12 C          -0.0455   -0.1455    0.4785 C.ar    1  UNL1       -0.0523
     13 C          -1.1351   -0.5817   -0.2543 C.ar    1  UNL1       -0.0567
     14 C          -2.0027    0.3113   -0.8477 C.ar    1  UNL1       -0.0333
     15 C          -3.1805   -0.1399   -1.6402 C.3     1  UNL1        0.0241
     16 N          -4.3624   -0.3070   -0.8728 N.3     1  UNL1       -0.2951
     17 C          -4.2717   -1.2619    0.1804 C.3     1  UNL1        0.0187
     18 C          -5.5330   -1.3253    0.9761 C.3     1  UNL1        0.0785
     19 S          -6.9652   -0.8538    0.0605 S.O2    1  UNL1       -0.0286
     20 O          -8.0347   -0.4538    1.0606 O.2     1  UNL1       -0.1743
     21 O          -7.4637   -1.9629   -0.8206 O.2     1  UNL1       -0.1743
     22 C          -6.5543    0.5947   -0.8860 C.3     1  UNL1        0.0785
     23 C          -5.0808    0.8836   -0.5631 C.3     1  UNL1        0.0187
     24 C          -1.7483    1.6535   -0.6865 C.ar    1  UNL1       -0.0567
     25 C          -0.6774    2.0802    0.0338 C.ar    1  UNL1       -0.0523
     26 N           2.5508    1.1766    1.2264 N.ar    1  UNL1       -0.2108
     27 N           2.9314    0.1739    0.4251 N.ar    1  UNL1       -0.1281
     28 C           6.4644   -1.7542   -2.0715 C.3     1  UNL1        0.0360
     29 C           7.3947   -2.5896   -1.1443 C.3     1  UNL1       -0.0412
     30 C           6.2363   -3.2034   -1.8478 C.3     1  UNL1       -0.0412
     31 H           5.1472   -1.9902    0.2886 H       1  UNL1        0.1578
     32 H           4.3711    3.0037    3.3386 H       1  UNL1        0.0655
     33 H           2.0968    4.0590    3.6958 H       1  UNL1        0.0619
     34 H           0.1911    3.1646    2.3985 H       1  UNL1        0.0639
     35 H           0.6227   -0.8640    0.9358 H       1  UNL1        0.0624
     36 H          -1.3515   -1.6438   -0.3921 H       1  UNL1        0.0621
     37 H          -3.3654    0.6481   -2.4028 H       1  UNL1        0.0476
     38 H          -2.9758   -1.0726   -2.1948 H       1  UNL1        0.0476
     39 H          -4.0520   -2.2751   -0.2417 H       1  UNL1        0.0442
     40 H          -3.4222   -1.0352    0.8650 H       1  UNL1        0.0442
     41 H          -5.6848   -2.3839    1.3192 H       1  UNL1        0.0512
     42 H          -5.4385   -0.7241    1.8913 H       1  UNL1        0.0512
     43 H          -6.5616    0.3463   -1.9785 H       1  UNL1        0.0512
     44 H          -7.1932    1.4564   -0.6416 H       1  UNL1        0.0512
     45 H          -5.0536    1.0166    0.5466 H       1  UNL1        0.0442
     46 H          -4.7330    1.7932   -1.0553 H       1  UNL1        0.0442
     47 H          -2.4139    2.4029   -1.1422 H       1  UNL1        0.0621
     48 H          -0.4619    3.1566    0.1708 H       1  UNL1        0.0624
     49 H           6.9204   -1.4444   -3.0322 H       1  UNL1        0.0394
     50 H           8.4215   -2.7402   -1.5183 H       1  UNL1        0.0273
     51 H           7.3181   -2.4223   -0.0713 H       1  UNL1        0.0273
     52 H           6.5064   -3.8890   -2.6802 H       1  UNL1        0.0273
     53 H           5.3569   -3.4622   -1.2124 H       1  UNL1        0.0273
@<TRIPOS>BOND
     1     1     2    2
     2     2     3   am
     3     3     4    1
     4     4     5   ar
     5     5     6   ar
     6     6     7   ar
     7     7     8   ar
     8     8     9   ar
     9     9    10   ar
    10    10    11    1
    11    11    12   ar
    12    12    13   ar
    13    13    14   ar
    14    14    15    1
    15    15    16    1
    16    16    17    1
    17    17    18    1
    18    18    19    1
    19    19    20    2
    20    19    21    2
    21    19    22    1
    22    22    23    1
    23    14    24   ar
    24    24    25   ar
    25    10    26   ar
    26    26    27   ar
    27     2    28    1
    28    28    29    1
    29    29    30    1
    30    27     4   ar
    31    30    28    1
    32    26     6   ar
    33    25    11   ar
    34    23    16    1
    35     3    31    1
    36     7    32    1
    37     8    33    1
    38     9    34    1
    39    12    35    1
    40    13    36    1
    41    15    37    1
    42    15    38    1
    43    17    39    1
    44    17    40    1
    45    18    41    1
    46    18    42    1
    47    22    43    1
    48    22    44    1
    49    23    45    1
    50    23    46    1
    51    24    47    1
    52    25    48    1
    53    28    49    1
    54    29    50    1
    55    29    51    1
    56    30    52    1
    57    30    53    1
