
     RDKit          3D

 53 57  0  0  0  0  0  0  0  0999 V2000
    5.5207    0.3842   -1.8311 O   0  0  0  0  0  0  0  0  0  0  0  0
    5.6512   -0.7499   -1.3374 C   0  0  0  0  0  0  0  0  0  0  0  0
    5.0293   -1.0338   -0.1146 N   0  0  0  0  0  0  0  0  0  0  0  0
    4.2513   -0.0455    0.5706 C   0  0  0  0  0  0  0  0  0  0  0  0
    4.6642    0.8522    1.4835 N   0  0  0  0  0  0  0  0  0  0  0  0
    3.6402    1.6163    1.9037 C   0  0  0  0  0  0  0  0  0  0  0  0
    3.4942    2.6611    2.8036 C   0  0  0  0  0  0  0  0  0  0  0  0
    2.2664    3.2470    3.0110 C   0  0  0  0  0  0  0  0  0  0  0  0
    1.1931    2.7652    2.3000 C   0  0  0  0  0  0  0  0  0  0  0  0
    1.3296    1.7152    1.3930 C   0  0  0  0  0  0  0  0  0  0  0  0
    0.1927    1.1924    0.6289 C   0  0  0  0  0  0  0  0  0  0  0  0
   -0.0455   -0.1455    0.4785 C   0  0  0  0  0  0  0  0  0  0  0  0
   -1.1351   -0.5817   -0.2543 C   0  0  0  0  0  0  0  0  0  0  0  0
   -2.0027    0.3113   -0.8477 C   0  0  0  0  0  0  0  0  0  0  0  0
   -3.1805   -0.1399   -1.6402 C   0  0  0  0  0  0  0  0  0  0  0  0
   -4.3624   -0.3070   -0.8728 N   0  0  0  0  0  0  0  0  0  0  0  0
   -4.2717   -1.2619    0.1804 C   0  0  0  0  0  0  0  0  0  0  0  0
   -5.5330   -1.3253    0.9761 C   0  0  0  0  0  0  0  0  0  0  0  0
   -6.9652   -0.8538    0.0605 S   0  0  0  0  0  6  0  0  0  0  0  0
   -8.0347   -0.4538    1.0606 O   0  0  0  0  0  0  0  0  0  0  0  0
   -7.4637   -1.9629   -0.8206 O   0  0  0  0  0  0  0  0  0  0  0  0
   -6.5543    0.5947   -0.8860 C   0  0  0  0  0  0  0  0  0  0  0  0
   -5.0808    0.8836   -0.5631 C   0  0  0  0  0  0  0  0  0  0  0  0
   -1.7483    1.6535   -0.6865 C   0  0  0  0  0  0  0  0  0  0  0  0
   -0.6774    2.0802    0.0338 C   0  0  0  0  0  0  0  0  0  0  0  0
    2.5508    1.1766    1.2264 N   0  0  0  0  0  0  0  0  0  0  0  0
    2.9314    0.1739    0.4251 N   0  0  0  0  0  0  0  0  0  0  0  0
    6.4644   -1.7542   -2.0715 C   0  0  0  0  0  0  0  0  0  0  0  0
    7.3947   -2.5896   -1.1443 C   0  0  0  0  0  0  0  0  0  0  0  0
    6.2363   -3.2034   -1.8478 C   0  0  0  0  0  0  0  0  0  0  0  0
    5.1472   -1.9902    0.2886 H   0  0  0  0  0  0  0  0  0  0  0  0
    4.3711    3.0037    3.3386 H   0  0  0  0  0  0  0  0  0  0  0  0
    2.0968    4.0590    3.6958 H   0  0  0  0  0  0  0  0  0  0  0  0
    0.1911    3.1646    2.3985 H   0  0  0  0  0  0  0  0  0  0  0  0
    0.6227   -0.8640    0.9358 H   0  0  0  0  0  0  0  0  0  0  0  0
   -1.3515   -1.6438   -0.3921 H   0  0  0  0  0  0  0  0  0  0  0  0
   -3.3654    0.6481   -2.4028 H   0  0  0  0  0  0  0  0  0  0  0  0
   -2.9758   -1.0726   -2.1948 H   0  0  0  0  0  0  0  0  0  0  0  0
   -4.0520   -2.2751   -0.2417 H   0  0  0  0  0  0  0  0  0  0  0  0
   -3.4222   -1.0352    0.8650 H   0  0  0  0  0  0  0  0  0  0  0  0
   -5.6848   -2.3839    1.3192 H   0  0  0  0  0  0  0  0  0  0  0  0
   -5.4385   -0.7241    1.8913 H   0  0  0  0  0  0  0  0  0  0  0  0
   -6.5616    0.3463   -1.9785 H   0  0  0  0  0  0  0  0  0  0  0  0
   -7.1932    1.4564   -0.6416 H   0  0  0  0  0  0  0  0  0  0  0  0
   -5.0536    1.0166    0.5466 H   0  0  0  0  0  0  0  0  0  0  0  0
   -4.7330    1.7932   -1.0553 H   0  0  0  0  0  0  0  0  0  0  0  0
   -2.4139    2.4029   -1.1422 H   0  0  0  0  0  0  0  0  0  0  0  0
   -0.4619    3.1566    0.1708 H   0  0  0  0  0  0  0  0  0  0  0  0
    6.9204   -1.4444   -3.0322 H   0  0  0  0  0  0  0  0  0  0  0  0
    8.4215   -2.7402   -1.5183 H   0  0  0  0  0  0  0  0  0  0  0  0
    7.3181   -2.4223   -0.0713 H   0  0  0  0  0  0  0  0  0  0  0  0
    6.5064   -3.8890   -2.6802 H   0  0  0  0  0  0  0  0  0  0  0  0
    5.3569   -3.4622   -1.2124 H   0  0  0  0  0  0  0  0  0  0  0  0
  1  2  2  0
  2  3  1  0
  3  4  1  0
  4  5  1  0
  5  6  2  0
  6  7  1  0
  7  8  2  0
  8  9  1  0
  9 10  2  0
 10 11  1  0
 11 12  2  0
 12 13  1  0
 13 14  2  0
 14 15  1  0
 15 16  1  0
 16 17  1  0
 17 18  1  0
 18 19  1  0
 19 20  2  0
 19 21  2  0
 19 22  1  0
 22 23  1  0
 14 24  1  0
 24 25  2  0
 10 26  1  0
 26 27  1  0
  2 28  1  0
 28 29  1  0
 29 30  1  0
 27  4  2  0
 30 28  1  0
 26  6  1  0
 25 11  1  0
 23 16  1  0
  3 31  1  0
  7 32  1  0
  8 33  1  0
  9 34  1  0
 12 35  1  0
 13 36  1  0
 15 37  1  0
 15 38  1  0
 17 39  1  0
 17 40  1  0
 18 41  1  0
 18 42  1  0
 22 43  1  0
 22 44  1  0
 23 45  1  0
 23 46  1  0
 24 47  1  0
 25 48  1  0
 28 49  1  0
 29 50  1  0
 29 51  1  0
 30 52  1  0
 30 53  1  0
M  END
$$$$
