@<TRIPOS>MOLECULE
*****
 44 47 0 0 0
SMALL
GASTEIGER

@<TRIPOS>ATOM
      1 C           6.5194    1.0428    1.6912 C.3     1  UNL1        0.0788
      2 O           5.1265    1.2560    1.5656 O.3     1  UNL1       -0.4951
      3 C           4.4031    0.4140    0.7611 C.ar    1  UNL1        0.1207
      4 C           4.9902   -0.6222    0.0796 C.ar    1  UNL1       -0.0199
      5 C           4.2582   -1.4717   -0.7321 C.ar    1  UNL1       -0.0577
      6 C           2.9053   -1.2870   -0.8710 C.ar    1  UNL1       -0.0537
      7 C           2.2807   -0.2580   -0.2039 C.ar    1  UNL1       -0.0122
      8 C           0.8496   -0.0124   -0.3386 C.ar    1  UNL1        0.0127
      9 C          -0.0623    0.0233    0.6953 C.ar    1  UNL1        0.0202
     10 N          -1.2812    0.2408    0.1805 N.ar    1  UNL1       -0.3001
     11 C          -2.5328    0.3535    0.8824 C.ar    1  UNL1        0.0483
     12 C          -2.6496    1.2879    1.8857 C.ar    1  UNL1       -0.0378
     13 C          -3.8512    1.3928    2.5562 C.ar    1  UNL1       -0.0595
     14 C          -4.9076    0.5677    2.2144 C.ar    1  UNL1       -0.0563
     15 C          -4.8155   -0.3755    1.2137 C.ar    1  UNL1       -0.0202
     16 C          -5.9660   -1.2469    0.8690 C.3     1  UNL1        0.0693
     17 O          -6.7110   -0.5824   -0.1248 O.3     1  UNL1       -0.3904
     18 C          -3.5939   -0.4564    0.5582 C.ar    1  UNL1       -0.0324
     19 C          -1.2185    0.3529   -1.1649 C.ar    1  UNL1        0.1508
     20 N          -2.1483    0.5745   -2.1122 N.ar    1  UNL1       -0.2172
     21 C          -1.7641    0.6431   -3.3941 C.ar    1  UNL1        0.1204
     22 N          -0.4789    0.4956   -3.7413 N.ar    1  UNL1       -0.2204
     23 C           0.4896    0.2704   -2.8146 C.ar    1  UNL1        0.1292
     24 N           1.8427    0.1341   -3.1835 N.pl3   1  UNL1       -0.3425
     25 C           0.1304    0.1927   -1.4868 C.ar    1  UNL1        0.0664
     26 C           3.0572    0.5806    0.6091 C.ar    1  UNL1       -0.0122
     27 H           7.0130    1.2766    0.7299 H       1  UNL1        0.0660
     28 H           6.7619   -0.0089    1.9536 H       1  UNL1        0.0660
     29 H           6.9043    1.6753    2.5278 H       1  UNL1        0.0660
     30 H           6.0543   -0.7607    0.1941 H       1  UNL1        0.0654
     31 H           4.7459   -2.2922   -1.2670 H       1  UNL1        0.0619
     32 H           2.2928   -1.9430   -1.4882 H       1  UNL1        0.0624
     33 H           0.1396   -0.1002    1.7590 H       1  UNL1        0.0820
     34 H          -1.8534    1.9505    2.1847 H       1  UNL1        0.0638
     35 H          -3.9677    2.1184    3.3473 H       1  UNL1        0.0618
     36 H          -5.8406    0.6617    2.7477 H       1  UNL1        0.0621
     37 H          -5.5928   -2.1950    0.4482 H       1  UNL1        0.0607
     38 H          -6.6145   -1.4577    1.7288 H       1  UNL1        0.0607
     39 H          -6.2027    0.1472   -0.5348 H       1  UNL1        0.2098
     40 H          -3.4906   -1.1751   -0.2197 H       1  UNL1        0.0642
     41 H          -2.4815    0.8215   -4.2051 H       1  UNL1        0.1048
     42 H           2.5114    0.8975   -3.0038 H       1  UNL1        0.1437
     43 H           2.1643   -0.7351   -3.6358 H       1  UNL1        0.1437
     44 H           2.5844    1.3908    1.1390 H       1  UNL1        0.0660
@<TRIPOS>BOND
     1     1     2    1
     2     2     3    1
     3     3     4   ar
     4     4     5   ar
     5     5     6   ar
     6     6     7   ar
     7     7     8    1
     8     8     9   ar
     9     9    10   ar
    10    10    11    1
    11    11    12   ar
    12    12    13   ar
    13    13    14   ar
    14    14    15   ar
    15    15    16    1
    16    16    17    1
    17    15    18   ar
    18    10    19   ar
    19    19    20   ar
    20    20    21   ar
    21    21    22   ar
    22    22    23   ar
    23    23    24    1
    24    23    25   ar
    25     7    26   ar
    26    26     3   ar
    27    25     8   ar
    28    18    11   ar
    29    25    19   ar
    30     1    27    1
    31     1    28    1
    32     1    29    1
    33     4    30    1
    34     5    31    1
    35     6    32    1
    36     9    33    1
    37    12    34    1
    38    13    35    1
    39    14    36    1
    40    16    37    1
    41    16    38    1
    42    17    39    1
    43    18    40    1
    44    21    41    1
    45    24    42    1
    46    24    43    1
    47    26    44    1
