@<TRIPOS>MOLECULE
*****
 72 75 0 0 0
SMALL
GASTEIGER

@<TRIPOS>ATOM
      1 C           3.8587   -1.1771    6.5409 C.3     1  UNL1       -0.0397
      2 C           3.6855   -0.6875    5.1372 C.ar    1  UNL1       -0.0498
      3 C           2.5294   -0.0503    4.7398 C.ar    1  UNL1       -0.0541
      4 C           2.3653    0.4057    3.4377 C.ar    1  UNL1       -0.0287
      5 C           1.1241    1.0929    3.0004 C.3     1  UNL1       -0.0379
      6 C           3.3541    0.2386    2.4896 C.ar    1  UNL1        0.0406
      7 N           3.1679    0.7122    1.1619 N.am    1  UNL1       -0.2687
      8 C           2.5994   -0.0526    0.1104 C.2     1  UNL1        0.3081
      9 O           2.2325   -1.2291    0.3595 O.2     1  UNL1       -0.2522
     10 N           2.4226    0.4396   -1.2081 N.am    1  UNL1       -0.2685
     11 C           1.8538   -0.3312   -2.2532 C.ar    1  UNL1        0.0475
     12 C           2.6234   -1.1160   -3.0757 C.ar    1  UNL1       -0.0320
     13 C           2.0427   -1.8700   -4.1023 C.ar    1  UNL1       -0.0161
     14 C           2.8166   -2.6647   -4.9361 C.ar    1  UNL1       -0.0540
     15 C           2.2552   -3.4121   -5.9513 C.ar    1  UNL1       -0.0612
     16 C           0.8918   -3.3885   -6.1665 C.ar    1  UNL1       -0.0612
     17 C           0.1119   -2.5960   -5.3364 C.ar    1  UNL1       -0.0540
     18 C           0.6868   -1.8474   -4.3174 C.ar    1  UNL1       -0.0171
     19 C          -0.0997   -1.0498   -3.4823 C.ar    1  UNL1       -0.0401
     20 C           0.4778   -0.3107   -2.4745 C.ar    1  UNL1        0.0585
     21 C          -0.3685    0.5110   -1.6207 C.2     1  UNL1        0.2467
     22 O           0.1347    1.2080   -0.6781 O.2     1  UNL1       -0.2701
     23 N          -1.7710    0.6082   -1.7525 N.am    1  UNL1       -0.2958
     24 C          -2.5823    1.4369   -0.8870 C.3     1  UNL1        0.1317
     25 C          -2.0897    2.8443   -1.0863 C.2     1  UNL1        0.3285
     26 O          -1.1701    3.1341   -1.8745 O.2     1  UNL1       -0.2486
     27 O          -2.6744    3.8665   -0.3706 O.3     1  UNL1       -0.4791
     28 C          -2.4459    1.1010    0.5486 C.3     1  UNL1       -0.0212
     29 C          -3.5827    1.7026    1.3352 C.3     1  UNL1       -0.0506
     30 C          -4.5882    0.5827    1.6300 C.3     1  UNL1       -0.0530
     31 C          -5.8994    0.8933    0.9066 C.3     1  UNL1       -0.0531
     32 C          -5.9936    0.2376   -0.4278 C.3     1  UNL1       -0.0530
     33 C          -4.6997    0.1292   -1.1699 C.3     1  UNL1       -0.0506
     34 C          -4.0038    1.4229   -1.4163 C.3     1  UNL1       -0.0212
     35 C           4.5098   -0.3998    2.8914 C.ar    1  UNL1       -0.0287
     36 C           5.5867   -0.5916    1.8920 C.3     1  UNL1       -0.0379
     37 C           4.6714   -0.8526    4.1866 C.ar    1  UNL1       -0.0541
     38 H           3.2621   -2.0846    6.7345 H       1  UNL1        0.0278
     39 H           4.9149   -1.4127    6.7509 H       1  UNL1        0.0278
     40 H           3.5652   -0.3946    7.2805 H       1  UNL1        0.0278
     41 H           1.7351    0.0901    5.4805 H       1  UNL1        0.0623
     42 H           1.3517    2.1718    2.8602 H       1  UNL1        0.0278
     43 H           0.7197    0.6899    2.0580 H       1  UNL1        0.0278
     44 H           0.3999    1.0334    3.8425 H       1  UNL1        0.0278
     45 H           3.4698    1.6839    0.9517 H       1  UNL1        0.1564
     46 H           2.7476    1.4381   -1.3689 H       1  UNL1        0.1564
     47 H           3.6986   -1.1784   -2.9596 H       1  UNL1        0.0642
     48 H           3.8852   -2.6768   -4.7598 H       1  UNL1        0.0624
     49 H           2.8628   -4.0257   -6.5937 H       1  UNL1        0.0618
     50 H           0.4026   -3.9598   -6.9530 H       1  UNL1        0.0618
     51 H          -0.9557   -2.5655   -5.4904 H       1  UNL1        0.0624
     52 H          -1.1520   -1.0758   -3.7028 H       1  UNL1        0.0632
     53 H          -2.2471    0.0690   -2.4935 H       1  UNL1        0.1501
     54 H          -2.3653    4.8240   -0.3747 H       1  UNL1        0.2951
     55 H          -1.5124    1.6134    0.9275 H       1  UNL1        0.0291
     56 H          -2.3897    0.0137    0.7610 H       1  UNL1        0.0291
     57 H          -4.1123    2.5184    0.8477 H       1  UNL1        0.0266
     58 H          -3.2117    2.1323    2.3139 H       1  UNL1        0.0266
     59 H          -4.7804    0.5863    2.7187 H       1  UNL1        0.0265
     60 H          -4.2155   -0.4029    1.3266 H       1  UNL1        0.0265
     61 H          -6.7077    0.4852    1.5511 H       1  UNL1        0.0265
     62 H          -6.0740    1.9930    0.8727 H       1  UNL1        0.0265
     63 H          -6.7369    0.7640   -1.0310 H       1  UNL1        0.0265
     64 H          -6.3516   -0.8180   -0.2509 H       1  UNL1        0.0265
     65 H          -4.9513   -0.3648   -2.1551 H       1  UNL1        0.0266
     66 H          -4.0034   -0.6117   -0.6864 H       1  UNL1        0.0266
     67 H          -4.5591    2.3248   -1.1072 H       1  UNL1        0.0291
     68 H          -3.8748    1.5661   -2.5345 H       1  UNL1        0.0291
     69 H           5.4737   -1.6298    1.5004 H       1  UNL1        0.0278
     70 H           6.6036   -0.4740    2.3647 H       1  UNL1        0.0278
     71 H           5.4961    0.0918    1.0354 H       1  UNL1        0.0278
     72 H           5.5793   -1.3545    4.5029 H       1  UNL1        0.0623
@<TRIPOS>BOND
     1     1     2    1
     2     2     3   ar
     3     3     4   ar
     4     4     5    1
     5     4     6   ar
     6     6     7    1
     7     7     8   am
     8     8     9    2
     9     8    10   am
    10    10    11    1
    11    11    12   ar
    12    12    13   ar
    13    13    14   ar
    14    14    15   ar
    15    15    16   ar
    16    16    17   ar
    17    17    18   ar
    18    18    19   ar
    19    19    20   ar
    20    20    21    1
    21    21    22    2
    22    21    23   am
    23    23    24    1
    24    24    25    1
    25    25    26    2
    26    25    27    1
    27    24    28    1
    28    28    29    1
    29    29    30    1
    30    30    31    1
    31    31    32    1
    32    32    33    1
    33    33    34    1
    34     6    35   ar
    35    35    36    1
    36    35    37   ar
    37    37     2   ar
    38    20    11   ar
    39    34    24    1
    40    18    13   ar
    41     1    38    1
    42     1    39    1
    43     1    40    1
    44     3    41    1
    45     5    42    1
    46     5    43    1
    47     5    44    1
    48     7    45    1
    49    10    46    1
    50    12    47    1
    51    14    48    1
    52    15    49    1
    53    16    50    1
    54    17    51    1
    55    19    52    1
    56    23    53    1
    57    27    54    1
    58    28    55    1
    59    28    56    1
    60    29    57    1
    61    29    58    1
    62    30    59    1
    63    30    60    1
    64    31    61    1
    65    31    62    1
    66    32    63    1
    67    32    64    1
    68    33    65    1
    69    33    66    1
    70    34    67    1
    71    34    68    1
    72    36    69    1
    73    36    70    1
    74    36    71    1
    75    37    72    1
