@<TRIPOS>MOLECULE
*****
 49 50 0 0 0
SMALL
GASTEIGER

@<TRIPOS>ATOM
      1 C          -4.0271    0.0303    1.4996 C.3     1  UNL1        0.0822
      2 N          -4.8298   -1.1876    1.5504 N.3     1  UNL1       -0.3199
      3 C          -4.9663    1.1067    1.0110 C.3     1  UNL1       -0.0321
      4 C          -4.3648    2.4595    0.8823 C.3     1  UNL1       -0.0634
      5 C          -2.8152   -0.0870    0.6851 C.2     1  UNL1        0.2330
      6 O          -2.3339    1.0913    0.7828 O.2     1  UNL1       -0.2739
      7 N          -2.2986   -1.2203   -0.0349 N.am    1  UNL1       -0.2886
      8 C          -2.7711   -2.6074   -0.2066 C.3     1  UNL1        0.0156
      9 C          -2.8983   -2.6218   -1.7396 C.3     1  UNL1       -0.0350
     10 C          -1.6672   -1.8009   -2.1634 C.3     1  UNL1       -0.0243
     11 C          -1.1144   -1.3344   -0.8417 C.3     1  UNL1        0.1022
     12 C          -0.2493   -0.1713   -0.9147 C.2     1  UNL1        0.2338
     13 O          -0.0837    0.9967   -0.4745 O.2     1  UNL1       -0.2738
     14 N           0.8651   -0.3553   -1.8196 N.am    1  UNL1       -0.3097
     15 C           1.8702    0.6490   -2.0683 C.3     1  UNL1        0.0369
     16 C           2.9091    0.7607   -1.0387 C.ar    1  UNL1       -0.0303
     17 C           3.9973   -0.1066   -1.2092 C.ar    1  UNL1       -0.0563
     18 C           5.0875   -0.1495   -0.3524 C.ar    1  UNL1       -0.0466
     19 C           5.0956    0.7041    0.7165 C.ar    1  UNL1        0.0647
     20 C           4.0542    1.5807    0.9376 C.ar    1  UNL1       -0.0466
     21 C           3.0071    1.5773    0.0585 C.ar    1  UNL1       -0.0563
     22 C           6.2620    0.6381    1.6052 C.2     1  UNL1        0.3081
     23 N           6.5921    1.8555    2.2829 N.pl3   1  UNL1       -0.2466
     24 N           6.9596   -0.4126    1.7893 N.2     1  UNL1       -0.0994
     25 H          -3.7605    0.2612    2.5533 H       1  UNL1        0.0554
     26 H          -5.4728   -1.2545    0.7307 H       1  UNL1        0.1189
     27 H          -5.3880   -1.1428    2.4525 H       1  UNL1        0.1189
     28 H          -5.4045    0.8248    0.0301 H       1  UNL1        0.0282
     29 H          -5.8115    1.1535    1.7421 H       1  UNL1        0.0282
     30 H          -3.7683    2.7723    1.7614 H       1  UNL1        0.0230
     31 H          -5.2241    3.1961    0.8659 H       1  UNL1        0.0230
     32 H          -3.8684    2.6002   -0.0860 H       1  UNL1        0.0230
     33 H          -1.9172   -3.2537    0.1144 H       1  UNL1        0.0465
     34 H          -3.7004   -2.8219    0.3054 H       1  UNL1        0.0465
     35 H          -3.8177   -2.0517   -1.9853 H       1  UNL1        0.0281
     36 H          -2.8731   -3.6282   -2.1554 H       1  UNL1        0.0281
     37 H          -2.0019   -1.0198   -2.8398 H       1  UNL1        0.0288
     38 H          -0.9724   -2.4931   -2.6335 H       1  UNL1        0.0288
     39 H          -0.5449   -2.2213   -0.4220 H       1  UNL1        0.0597
     40 H           0.9988   -1.2726   -2.3596 H       1  UNL1        0.1491
     41 H           2.3518    0.4266   -3.0398 H       1  UNL1        0.0512
     42 H           1.3892    1.6672   -2.1936 H       1  UNL1        0.0512
     43 H           4.0496   -0.8140   -2.0456 H       1  UNL1        0.0621
     44 H           5.9061   -0.8349   -0.5217 H       1  UNL1        0.0626
     45 H           4.0696    2.2408    1.7706 H       1  UNL1        0.0626
     46 H           2.2006    2.2493    0.2083 H       1  UNL1        0.0621
     47 H           7.3345    2.3109    1.6888 H       1  UNL1        0.2884
     48 H           6.1462    2.1456    3.1634 H       1  UNL1        0.2884
     49 H           7.7990   -0.4350    2.4375 H       1  UNL1        0.3633
@<TRIPOS>BOND
     1     1     2    1
     2     1     3    1
     3     3     4    1
     4     1     5    1
     5     5     6    2
     6     5     7   am
     7     7     8    1
     8     8     9    1
     9     9    10    1
    10    10    11    1
    11    11    12    1
    12    12    13    2
    13    12    14   am
    14    14    15    1
    15    15    16    1
    16    16    17   ar
    17    17    18   ar
    18    18    19   ar
    19    19    20   ar
    20    20    21   ar
    21    19    22    1
    22    22    23    1
    23    22    24    2
    24    11     7    1
    25    21    16   ar
    26     1    25    1
    27     2    26    1
    28     2    27    1
    29     3    28    1
    30     3    29    1
    31     4    30    1
    32     4    31    1
    33     4    32    1
    34     8    33    1
    35     8    34    1
    36     9    35    1
    37     9    36    1
    38    10    37    1
    39    10    38    1
    40    11    39    1
    41    14    40    1
    42    15    41    1
    43    15    42    1
    44    17    43    1
    45    18    44    1
    46    20    45    1
    47    21    46    1
    48    23    47    1
    49    23    48    1
    50    24    49    1
