
     RDKit          3D

 23 23  0  0  0  0  0  0  0  0999 V2000
    3.4871   -0.0850   -0.1252 N   0  0  0  0  0  0  0  0  0  0  0  0
    2.0858   -0.1626   -0.5706 C   0  0  0  0  0  0  0  0  0  0  0  0
    1.1561    0.0690    0.5984 C   0  0  0  0  0  0  0  0  0  0  0  0
   -0.1753    0.0198    0.2003 N   0  0  0  0  0  0  0  0  0  0  0  0
   -0.7682   -1.2035   -0.2129 C   0  0  0  0  0  0  0  0  0  0  0  0
   -2.2891   -1.1641   -0.1477 C   0  0  0  0  0  0  0  0  0  0  0  0
   -2.7676    0.0766    0.2238 O   0  0  0  0  0  0  0  0  0  0  0  0
   -2.2352    1.1504   -0.4587 C   0  0  0  0  0  0  0  0  0  0  0  0
   -0.7327    1.1908   -0.3943 C   0  0  0  0  0  0  0  0  0  0  0  0
    3.6895    0.9183    0.0890 H   0  0  0  0  0  0  0  0  0  0  0  0
    4.0996   -0.4557   -0.8885 H   0  0  0  0  0  0  0  0  0  0  0  0
    1.8409   -1.1541   -1.0045 H   0  0  0  0  0  0  0  0  0  0  0  0
    1.9300    0.6659   -1.2964 H   0  0  0  0  0  0  0  0  0  0  0  0
    1.3550   -0.6866    1.3911 H   0  0  0  0  0  0  0  0  0  0  0  0
    1.4345    1.0588    1.0325 H   0  0  0  0  0  0  0  0  0  0  0  0
   -0.3204   -2.0424    0.3380 H   0  0  0  0  0  0  0  0  0  0  0  0
   -0.5319   -1.3564   -1.2860 H   0  0  0  0  0  0  0  0  0  0  0  0
   -2.7766   -1.5922   -1.0431 H   0  0  0  0  0  0  0  0  0  0  0  0
   -2.5664   -1.8553    0.6961 H   0  0  0  0  0  0  0  0  0  0  0  0
   -2.5831    2.0691    0.0656 H   0  0  0  0  0  0  0  0  0  0  0  0
   -2.6418    1.2350   -1.4915 H   0  0  0  0  0  0  0  0  0  0  0  0
   -0.3703    1.2249   -1.4457 H   0  0  0  0  0  0  0  0  0  0  0  0
   -0.3198    2.0795    0.1156 H   0  0  0  0  0  0  0  0  0  0  0  0
  1  2  1  0
  2  3  1  0
  3  4  1  0
  4  5  1  0
  5  6  1  0
  6  7  1  0
  7  8  1  0
  8  9  1  0
  9  4  1  0
  1 10  1  0
  1 11  1  0
  2 12  1  0
  2 13  1  0
  3 14  1  0
  3 15  1  0
  5 16  1  0
  5 17  1  0
  6 18  1  0
  6 19  1  0
  8 20  1  0
  8 21  1  0
  9 22  1  0
  9 23  1  0
M  END
$$$$
