@<TRIPOS>MOLECULE
*****
 43 46 0 0 0
SMALL
GASTEIGER

@<TRIPOS>ATOM
      1 O           7.2323   -0.0231    0.8102 O.2     1  UNL1       -0.2680
      2 C           6.3094    0.8243    0.5659 C.2     1  UNL1        0.2694
      3 N           6.7065    2.1594    0.4091 N.am    1  UNL1       -0.1934
      4 O           8.0280    2.5027    0.5191 O.3     1  UNL1       -0.2949
      5 C           4.9222    0.3930    0.4613 C.ar    1  UNL1        0.0749
      6 C           4.6350   -0.9578    0.6340 C.ar    1  UNL1        0.0448
      7 N           3.3567   -1.3337    0.5343 N.ar    1  UNL1       -0.2220
      8 C           2.3531   -0.4500    0.2745 C.ar    1  UNL1        0.2178
      9 N           1.0058   -0.8894    0.1761 N.pl3   1  UNL1       -0.2990
     10 C           0.5764   -2.2656    0.3352 C.3     1  UNL1        0.0195
     11 C          -0.7718   -2.3710   -0.3304 C.3     1  UNL1       -0.0038
     12 C          -1.9761   -1.7496    0.2756 C.3     1  UNL1        0.0171
     13 N          -3.2442   -2.1784   -0.2210 N.3     1  UNL1       -0.3086
     14 C          -4.3696   -1.5287    0.4171 C.3     1  UNL1        0.0215
     15 C          -4.3647   -0.0755    0.2519 C.ar    1  UNL1       -0.0335
     16 C          -3.7333    0.7538    1.1673 C.ar    1  UNL1       -0.0560
     17 C          -3.7527    2.1284    0.9722 C.ar    1  UNL1       -0.0431
     18 C          -4.3959    2.6655   -0.1249 C.ar    1  UNL1        0.0410
     19 CL         -4.3936    4.4072   -0.3287 Cl      1  UNL1       -0.0835
     20 C          -5.0304    1.8659   -1.0488 C.ar    1  UNL1       -0.0431
     21 C          -5.0067    0.5032   -0.8483 C.ar    1  UNL1       -0.0560
     22 C          -1.1216   -0.9972   -0.7170 C.3     1  UNL1       -0.0038
     23 C          -0.1204   -0.0507   -0.0921 C.3     1  UNL1        0.0195
     24 N           2.6527    0.8500    0.1111 N.ar    1  UNL1       -0.2220
     25 C           3.9360    1.3090    0.1986 C.ar    1  UNL1        0.0448
     26 H           6.0307    2.9258    0.2077 H       1  UNL1        0.1825
     27 H           8.4647    2.3855   -0.3595 H       1  UNL1        0.2414
     28 H           5.4281   -1.6662    0.8409 H       1  UNL1        0.0839
     29 H           1.2960   -2.8910   -0.2335 H       1  UNL1        0.0468
     30 H           0.5939   -2.6099    1.3696 H       1  UNL1        0.0468
     31 H          -0.9292   -3.2391   -0.9762 H       1  UNL1        0.0335
     32 H          -1.8622   -1.5134    1.3701 H       1  UNL1        0.0467
     33 H          -3.3198   -3.1991   -0.1473 H       1  UNL1        0.1225
     34 H          -5.2881   -1.9316   -0.0818 H       1  UNL1        0.0474
     35 H          -4.4517   -1.7793    1.4881 H       1  UNL1        0.0474
     36 H          -3.2189    0.3485    2.0419 H       1  UNL1        0.0621
     37 H          -3.2667    2.8021    1.6726 H       1  UNL1        0.0632
     38 H          -5.5443    2.2668   -1.9219 H       1  UNL1        0.0632
     39 H          -5.4978   -0.1651   -1.5575 H       1  UNL1        0.0621
     40 H          -1.5250   -0.7530   -1.7074 H       1  UNL1        0.0335
     41 H           0.0661    0.7655   -0.8013 H       1  UNL1        0.0468
     42 H          -0.5136    0.4001    0.8496 H       1  UNL1        0.0468
     43 H           4.1047    2.3615    0.0573 H       1  UNL1        0.0839
@<TRIPOS>BOND
     1     1     2    2
     2     2     3   am
     3     3     4    1
     4     2     5    1
     5     5     6   ar
     6     6     7   ar
     7     7     8   ar
     8     8     9    1
     9     9    10    1
    10    10    11    1
    11    11    12    1
    12    12    13    1
    13    13    14    1
    14    14    15    1
    15    15    16   ar
    16    16    17   ar
    17    17    18   ar
    18    18    19    1
    19    18    20   ar
    20    20    21   ar
    21    12    22    1
    22    22    23    1
    23     8    24   ar
    24    24    25   ar
    25    25     5   ar
    26    23     9    1
    27    22    11    1
    28    21    15   ar
    29     3    26    1
    30     4    27    1
    31     6    28    1
    32    10    29    1
    33    10    30    1
    34    11    31    1
    35    12    32    1
    36    13    33    1
    37    14    34    1
    38    14    35    1
    39    16    36    1
    40    17    37    1
    41    20    38    1
    42    21    39    1
    43    22    40    1
    44    23    41    1
    45    23    42    1
    46    25    43    1
