
     RDKit          3D

 43 46  0  0  0  0  0  0  0  0999 V2000
    7.2323   -0.0231    0.8102 O   0  0  0  0  0  0  0  0  0  0  0  0
    6.3094    0.8243    0.5659 C   0  0  0  0  0  0  0  0  0  0  0  0
    6.7065    2.1594    0.4091 N   0  0  0  0  0  0  0  0  0  0  0  0
    8.0280    2.5027    0.5191 O   0  0  0  0  0  0  0  0  0  0  0  0
    4.9222    0.3930    0.4613 C   0  0  0  0  0  0  0  0  0  0  0  0
    4.6350   -0.9578    0.6340 C   0  0  0  0  0  0  0  0  0  0  0  0
    3.3567   -1.3337    0.5343 N   0  0  0  0  0  0  0  0  0  0  0  0
    2.3531   -0.4500    0.2745 C   0  0  0  0  0  0  0  0  0  0  0  0
    1.0058   -0.8894    0.1761 N   0  0  0  0  0  0  0  0  0  0  0  0
    0.5764   -2.2656    0.3352 C   0  0  0  0  0  0  0  0  0  0  0  0
   -0.7718   -2.3710   -0.3304 C   0  0  1  0  0  0  0  0  0  0  0  0
   -1.9761   -1.7496    0.2756 C   0  0  2  0  0  0  0  0  0  0  0  0
   -3.2442   -2.1784   -0.2210 N   0  0  0  0  0  0  0  0  0  0  0  0
   -4.3696   -1.5287    0.4171 C   0  0  0  0  0  0  0  0  0  0  0  0
   -4.3647   -0.0755    0.2519 C   0  0  0  0  0  0  0  0  0  0  0  0
   -3.7333    0.7538    1.1673 C   0  0  0  0  0  0  0  0  0  0  0  0
   -3.7527    2.1284    0.9722 C   0  0  0  0  0  0  0  0  0  0  0  0
   -4.3959    2.6655   -0.1249 C   0  0  0  0  0  0  0  0  0  0  0  0
   -4.3936    4.4072   -0.3287 Cl  0  0  0  0  0  0  0  0  0  0  0  0
   -5.0304    1.8659   -1.0488 C   0  0  0  0  0  0  0  0  0  0  0  0
   -5.0067    0.5032   -0.8483 C   0  0  0  0  0  0  0  0  0  0  0  0
   -1.1216   -0.9972   -0.7170 C   0  0  1  0  0  0  0  0  0  0  0  0
   -0.1204   -0.0507   -0.0921 C   0  0  0  0  0  0  0  0  0  0  0  0
    2.6527    0.8500    0.1111 N   0  0  0  0  0  0  0  0  0  0  0  0
    3.9360    1.3090    0.1986 C   0  0  0  0  0  0  0  0  0  0  0  0
    6.0307    2.9258    0.2077 H   0  0  0  0  0  0  0  0  0  0  0  0
    8.4647    2.3855   -0.3595 H   0  0  0  0  0  0  0  0  0  0  0  0
    5.4281   -1.6662    0.8409 H   0  0  0  0  0  0  0  0  0  0  0  0
    1.2960   -2.8910   -0.2335 H   0  0  0  0  0  0  0  0  0  0  0  0
    0.5939   -2.6099    1.3696 H   0  0  0  0  0  0  0  0  0  0  0  0
   -0.9292   -3.2391   -0.9762 H   0  0  0  0  0  0  0  0  0  0  0  0
   -1.8622   -1.5134    1.3701 H   0  0  0  0  0  0  0  0  0  0  0  0
   -3.3198   -3.1991   -0.1473 H   0  0  0  0  0  0  0  0  0  0  0  0
   -5.2881   -1.9316   -0.0818 H   0  0  0  0  0  0  0  0  0  0  0  0
   -4.4517   -1.7793    1.4881 H   0  0  0  0  0  0  0  0  0  0  0  0
   -3.2189    0.3485    2.0419 H   0  0  0  0  0  0  0  0  0  0  0  0
   -3.2667    2.8021    1.6726 H   0  0  0  0  0  0  0  0  0  0  0  0
   -5.5443    2.2668   -1.9219 H   0  0  0  0  0  0  0  0  0  0  0  0
   -5.4978   -0.1651   -1.5575 H   0  0  0  0  0  0  0  0  0  0  0  0
   -1.5250   -0.7530   -1.7074 H   0  0  0  0  0  0  0  0  0  0  0  0
    0.0661    0.7655   -0.8013 H   0  0  0  0  0  0  0  0  0  0  0  0
   -0.5136    0.4001    0.8496 H   0  0  0  0  0  0  0  0  0  0  0  0
    4.1047    2.3615    0.0573 H   0  0  0  0  0  0  0  0  0  0  0  0
  1  2  2  0
  2  3  1  0
  3  4  1  0
  2  5  1  0
  5  6  2  0
  6  7  1  0
  7  8  2  0
  8  9  1  0
  9 10  1  0
 10 11  1  0
 11 12  1  0
 12 13  1  0
 13 14  1  0
 14 15  1  0
 15 16  2  0
 16 17  1  0
 17 18  2  0
 18 19  1  0
 18 20  1  0
 20 21  2  0
 12 22  1  0
 22 23  1  0
  8 24  1  0
 24 25  2  0
 25  5  1  0
 23  9  1  0
 22 11  1  0
 21 15  1  0
  3 26  1  0
  4 27  1  0
  6 28  1  0
 10 29  1  0
 10 30  1  0
 11 31  1  6
 12 32  1  1
 13 33  1  0
 14 34  1  0
 14 35  1  0
 16 36  1  0
 17 37  1  0
 20 38  1  0
 21 39  1  0
 22 40  1  6
 23 41  1  0
 23 42  1  0
 25 43  1  0
M  END
$$$$
