@<TRIPOS>MOLECULE
*****
 61 64 0 0 0
SMALL
GASTEIGER

@<TRIPOS>ATOM
      1 C          -3.2477   -1.9812    2.4408 C.3     1  UNL1       -0.0650
      2 C          -1.7567   -1.8425    2.5023 C.3     1  UNL1       -0.0518
      3 C          -1.1402   -1.7794    1.1103 C.3     1  UNL1       -0.0244
      4 C          -1.7198   -0.6013    0.4303 C.ar    1  UNL1       -0.0022
      5 C          -2.6804   -0.6782   -0.5288 C.ar    1  UNL1       -0.0127
      6 C          -3.2239    0.4166   -1.1664 C.ar    1  UNL1        0.1289
      7 O          -4.2035    0.3385   -2.1450 O.3     1  UNL1       -0.4560
      8 C          -5.5374    0.3715   -1.7465 C.ar    1  UNL1        0.1299
      9 C          -5.9128    0.4813   -0.4185 C.ar    1  UNL1       -0.0179
     10 C          -7.2392    0.5123   -0.0452 C.ar    1  UNL1       -0.0385
     11 C          -8.2193    0.4312   -1.0261 C.ar    1  UNL1        0.0595
     12 CL         -9.8740    0.4732   -0.5197 Cl      1  UNL1       -0.0820
     13 C          -7.8770    0.3214   -2.3545 C.ar    1  UNL1        0.0627
     14 CL         -9.1523    0.2223   -3.5551 Cl      1  UNL1       -0.0819
     15 C          -6.5396    0.2919   -2.7100 C.ar    1  UNL1        0.0004
     16 C          -2.7655    1.6621   -0.8087 C.ar    1  UNL1       -0.0159
     17 C          -1.7723    1.7771    0.1807 C.ar    1  UNL1       -0.0162
     18 C          -1.2404    0.6756    0.8057 C.ar    1  UNL1        0.1239
     19 O          -0.2868    0.7907    1.7590 O.3     1  UNL1       -0.4916
     20 C           0.3325    1.9003    2.2546 C.3     1  UNL1        0.0927
     21 C           1.1900    2.6954    1.3223 C.3     1  UNL1        0.0157
     22 C           2.3229    1.8620    0.7519 C.3     1  UNL1        0.0927
     23 O           1.8668    0.7581    0.0299 O.3     1  UNL1       -0.4918
     24 C           2.8237   -0.0763   -0.5385 C.ar    1  UNL1        0.1211
     25 C           2.4631   -1.1986   -1.2749 C.ar    1  UNL1       -0.0199
     26 C           3.3958   -2.0391   -1.8468 C.ar    1  UNL1       -0.0577
     27 C           4.7600   -1.7697   -1.6917 C.ar    1  UNL1       -0.0531
     28 C           5.1398   -0.6740   -0.9730 C.ar    1  UNL1       -0.0026
     29 C           6.5286   -0.3632   -0.7900 C.ar    1  UNL1        0.0838
     30 S           7.1047    1.0447    0.1365 S.2     1  UNL1       -0.0230
     31 C           8.8489    0.7330   -0.0997 C.ar    1  UNL1        0.2913
     32 O           9.8255    1.4217    0.3419 O.2     1  UNL1       -0.2596
     33 N           8.8357   -0.3966   -0.8506 N.ar    1  UNL1       -0.2870
     34 C           7.6876   -0.9188   -1.1787 C.ar    1  UNL1        0.2081
     35 O           7.6518   -2.1188   -1.9762 O.3     1  UNL1       -0.4928
     36 C           4.1824    0.1508   -0.4111 C.ar    1  UNL1       -0.0116
     37 H          -3.5449   -2.6339    3.3097 H       1  UNL1        0.0230
     38 H          -3.7976   -1.0425    2.5246 H       1  UNL1        0.0230
     39 H          -3.5795   -2.5332    1.5383 H       1  UNL1        0.0230
     40 H          -1.2896   -2.6864    3.0558 H       1  UNL1        0.0266
     41 H          -1.5333   -0.9154    3.0671 H       1  UNL1        0.0266
     42 H          -0.0527   -1.7740    1.1501 H       1  UNL1        0.0314
     43 H          -1.4431   -2.6671    0.5187 H       1  UNL1        0.0314
     44 H          -3.0697   -1.6495   -0.8392 H       1  UNL1        0.0658
     45 H          -5.1331    0.5432    0.3285 H       1  UNL1        0.0655
     46 H          -7.4850    0.5993    1.0058 H       1  UNL1        0.0634
     47 H          -6.3308    0.2046   -3.7648 H       1  UNL1        0.0669
     48 H          -3.1571    2.5659   -1.2774 H       1  UNL1        0.0655
     49 H          -1.4536    2.7813    0.4518 H       1  UNL1        0.0655
     50 H          -0.4379    2.5586    2.7431 H       1  UNL1        0.0697
     51 H           0.9805    1.5649    3.1156 H       1  UNL1        0.0697
     52 H           1.7320    3.4435    1.9953 H       1  UNL1        0.0331
     53 H           0.7052    3.3039    0.5763 H       1  UNL1        0.0331
     54 H           2.9992    1.6105    1.5910 H       1  UNL1        0.0697
     55 H           2.9086    2.5575    0.0959 H       1  UNL1        0.0697
     56 H           1.3993   -1.4002   -1.3902 H       1  UNL1        0.0654
     57 H           3.0925   -2.9213   -2.4253 H       1  UNL1        0.0619
     58 H           5.4282   -2.4636   -2.1621 H       1  UNL1        0.0624
     59 H           9.8051   -0.8180   -1.1471 H       1  UNL1        0.1723
     60 H           8.2241   -2.1638   -2.8080 H       1  UNL1        0.2937
     61 H           4.4622    1.0413    0.1736 H       1  UNL1        0.0660
@<TRIPOS>BOND
     1     1     2    1
     2     2     3    1
     3     3     4    1
     4     4     5   ar
     5     5     6   ar
     6     6     7    1
     7     7     8    1
     8     8     9   ar
     9     9    10   ar
    10    10    11   ar
    11    11    12    1
    12    11    13   ar
    13    13    14    1
    14    13    15   ar
    15     6    16   ar
    16    16    17   ar
    17    17    18   ar
    18    18    19    1
    19    19    20    1
    20    20    21    1
    21    21    22    1
    22    22    23    1
    23    23    24    1
    24    24    25   ar
    25    25    26   ar
    26    26    27   ar
    27    27    28   ar
    28    28    29    1
    29    29    30   ar
    30    30    31   ar
    31    31    32    2
    32    31    33   ar
    33    33    34   ar
    34    34    35    1
    35    28    36   ar
    36    18     4   ar
    37    36    24   ar
    38    15     8   ar
    39    34    29   ar
    40     1    37    1
    41     1    38    1
    42     1    39    1
    43     2    40    1
    44     2    41    1
    45     3    42    1
    46     3    43    1
    47     5    44    1
    48     9    45    1
    49    10    46    1
    50    15    47    1
    51    16    48    1
    52    17    49    1
    53    20    50    1
    54    20    51    1
    55    21    52    1
    56    21    53    1
    57    22    54    1
    58    22    55    1
    59    25    56    1
    60    26    57    1
    61    27    58    1
    62    33    59    1
    63    35    60    1
    64    36    61    1
