@<TRIPOS>MOLECULE
*****
 29 30 0 0 0
SMALL
GASTEIGER

@<TRIPOS>ATOM
      1 N           5.2855   -0.6583   -0.0237 N.pl3   1  UNL1       -0.3430
      2 C           3.9122   -0.3104    0.0096 C.ar    1  UNL1        0.1230
      3 N           3.4002    0.9188   -0.2444 N.ar    1  UNL1       -0.1783
      4 C           2.0792    1.1644   -0.1908 C.ar    1  UNL1        0.3523
      5 O           1.6267    2.3033   -0.4280 O.2     1  UNL1       -0.2444
      6 N           1.1500    0.2421    0.1123 N.ar    1  UNL1       -0.2670
      7 C           1.6081   -1.0163    0.3781 C.ar    1  UNL1        0.0153
      8 C           2.9782   -1.2743    0.3233 C.ar    1  UNL1       -0.0056
      9 C          -0.2518    0.3704    0.2011 C.3     1  UNL1        0.2055
     10 O          -0.9651   -0.7266   -0.3316 O.3     1  UNL1       -0.3422
     11 C          -2.2353   -0.3430    0.1030 C.3     1  UNL1        0.1159
     12 C          -3.3144   -1.2866   -0.3314 C.3     1  UNL1        0.0731
     13 O          -3.4234   -1.4148   -1.6928 O.3     1  UNL1       -0.3924
     14 C          -2.3664    1.0312   -0.5121 C.3     1  UNL1        0.1508
     15 O          -3.1334    1.8827    0.2403 O.3     1  UNL1       -0.3830
     16 C          -0.9189    1.5204   -0.4405 C.3     1  UNL1        0.3207
     17 F          -0.8217    2.6528    0.3413 F       1  UNL1       -0.1978
     18 F          -0.5577    1.8053   -1.7301 F       1  UNL1       -0.1978
     19 H           5.7531   -0.8486    0.8842 H       1  UNL1        0.1437
     20 H           5.9424   -0.7653   -0.7997 H       1  UNL1        0.1437
     21 H           0.9788   -1.8553    0.6353 H       1  UNL1        0.0812
     22 H           3.3410   -2.2843    0.5370 H       1  UNL1        0.0666
     23 H          -0.5623    0.3805    1.2681 H       1  UNL1        0.0902
     24 H          -2.2680   -0.2309    1.2050 H       1  UNL1        0.0648
     25 H          -4.2683   -0.8725    0.0654 H       1  UNL1        0.0584
     26 H          -3.1641   -2.2356    0.2097 H       1  UNL1        0.0584
     27 H          -4.0195   -0.7086   -2.0285 H       1  UNL1        0.2095
     28 H          -2.7305    0.9083   -1.5406 H       1  UNL1        0.0682
     29 H          -3.0546    1.6511    1.1960 H       1  UNL1        0.2101
@<TRIPOS>BOND
     1     1     2    1
     2     2     3   ar
     3     3     4   ar
     4     4     5    2
     5     4     6   ar
     6     6     7   ar
     7     7     8   ar
     8     6     9    1
     9     9    10    1
    10    10    11    1
    11    11    12    1
    12    12    13    1
    13    11    14    1
    14    14    15    1
    15    14    16    1
    16    16    17    1
    17    16    18    1
    18     8     2   ar
    19    16     9    1
    20     1    19    1
    21     1    20    1
    22     7    21    1
    23     8    22    1
    24     9    23    1
    25    11    24    1
    26    12    25    1
    27    12    26    1
    28    13    27    1
    29    14    28    1
    30    15    29    1
