
     RDKit          3D

 29 30  0  0  0  0  0  0  0  0999 V2000
    5.2855   -0.6583   -0.0237 N   0  0  0  0  0  0  0  0  0  0  0  0
    3.9122   -0.3104    0.0096 C   0  0  0  0  0  0  0  0  0  0  0  0
    3.4002    0.9188   -0.2444 N   0  0  0  0  0  0  0  0  0  0  0  0
    2.0792    1.1644   -0.1908 C   0  0  0  0  0  0  0  0  0  0  0  0
    1.6267    2.3033   -0.4280 O   0  0  0  0  0  0  0  0  0  0  0  0
    1.1500    0.2421    0.1123 N   0  0  0  0  0  0  0  0  0  0  0  0
    1.6081   -1.0163    0.3781 C   0  0  0  0  0  0  0  0  0  0  0  0
    2.9782   -1.2743    0.3233 C   0  0  0  0  0  0  0  0  0  0  0  0
   -0.2518    0.3704    0.2011 C   0  0  2  0  0  0  0  0  0  0  0  0
   -0.9651   -0.7266   -0.3316 O   0  0  0  0  0  0  0  0  0  0  0  0
   -2.2353   -0.3430    0.1030 C   0  0  2  0  0  0  0  0  0  0  0  0
   -3.3144   -1.2866   -0.3314 C   0  0  0  0  0  0  0  0  0  0  0  0
   -3.4234   -1.4148   -1.6928 O   0  0  0  0  0  0  0  0  0  0  0  0
   -2.3664    1.0312   -0.5121 C   0  0  1  0  0  0  0  0  0  0  0  0
   -3.1334    1.8827    0.2403 O   0  0  0  0  0  0  0  0  0  0  0  0
   -0.9189    1.5204   -0.4405 C   0  0  0  0  0  0  0  0  0  0  0  0
   -0.8217    2.6528    0.3413 F   0  0  0  0  0  0  0  0  0  0  0  0
   -0.5577    1.8053   -1.7301 F   0  0  0  0  0  0  0  0  0  0  0  0
    5.7531   -0.8486    0.8842 H   0  0  0  0  0  0  0  0  0  0  0  0
    5.9424   -0.7653   -0.7997 H   0  0  0  0  0  0  0  0  0  0  0  0
    0.9788   -1.8553    0.6353 H   0  0  0  0  0  0  0  0  0  0  0  0
    3.3410   -2.2843    0.5370 H   0  0  0  0  0  0  0  0  0  0  0  0
   -0.5623    0.3805    1.2681 H   0  0  0  0  0  0  0  0  0  0  0  0
   -2.2680   -0.2309    1.2050 H   0  0  0  0  0  0  0  0  0  0  0  0
   -4.2683   -0.8725    0.0654 H   0  0  0  0  0  0  0  0  0  0  0  0
   -3.1641   -2.2356    0.2097 H   0  0  0  0  0  0  0  0  0  0  0  0
   -4.0195   -0.7086   -2.0285 H   0  0  0  0  0  0  0  0  0  0  0  0
   -2.7305    0.9083   -1.5406 H   0  0  0  0  0  0  0  0  0  0  0  0
   -3.0546    1.6511    1.1960 H   0  0  0  0  0  0  0  0  0  0  0  0
  1  2  1  0
  2  3  2  0
  3  4  1  0
  4  5  2  0
  4  6  1  0
  6  7  1  0
  7  8  2  0
  6  9  1  0
  9 10  1  0
 10 11  1  0
 11 12  1  0
 12 13  1  0
 11 14  1  0
 14 15  1  0
 14 16  1  0
 16 17  1  0
 16 18  1  0
  8  2  1  0
 16  9  1  0
  1 19  1  0
  1 20  1  0
  7 21  1  0
  8 22  1  0
  9 23  1  1
 11 24  1  1
 12 25  1  0
 12 26  1  0
 13 27  1  0
 14 28  1  6
 15 29  1  0
M  END
$$$$
