@<TRIPOS>MOLECULE
*****
 82 87 0 0 0
SMALL
GASTEIGER

@<TRIPOS>ATOM
      1 C          11.9170    3.5572    1.0501 C.3     1  UNL1       -0.0397
      2 C          11.1413    2.5015    0.3311 C.ar    1  UNL1       -0.0503
      3 C          10.4709    2.8179   -0.8410 C.ar    1  UNL1       -0.0570
      4 C           9.7475    1.8585   -1.5249 C.ar    1  UNL1       -0.0341
      5 C           9.7034    0.5781   -1.0189 C.ar    1  UNL1        0.1171
      6 S           8.8282   -0.6782   -1.8312 S.O2    1  UNL1        0.1121
      7 O           9.5535   -2.0002   -1.6356 O.2     1  UNL1       -0.1419
      8 O           8.8400   -0.4139   -3.3295 O.2     1  UNL1       -0.1419
      9 O           7.2770   -0.8252   -1.2748 O.3     1  UNL1       -0.2309
     10 C           6.7290    0.3679   -0.8100 C.3     1  UNL1        0.1109
     11 C           5.5648    0.7944   -1.6811 C.3     1  UNL1        0.1151
     12 O           4.5162   -0.0744   -1.7706 O.3     1  UNL1       -0.4896
     13 C           3.6300   -0.5023   -0.8426 C.ar    1  UNL1        0.1206
     14 C           3.5780   -0.0916    0.4790 C.ar    1  UNL1       -0.0196
     15 C           2.6023   -0.6281    1.3145 C.ar    1  UNL1       -0.0536
     16 C           1.6714   -1.5433    0.9314 C.ar    1  UNL1       -0.0295
     17 C           0.6393   -2.0880    1.8427 C.3     1  UNL1        0.0452
     18 N          -0.5363   -1.2259    1.7825 N.am    1  UNL1       -0.2598
     19 C          -0.7238   -0.1206    2.6580 C.2     1  UNL1        0.2915
     20 O           0.0203    0.3002    3.5890 O.2     1  UNL1       -0.2661
     21 C          -2.0115    0.4726    2.2578 C.2     1  UNL1        0.2496
     22 O          -2.5595    1.4771    2.7776 O.2     1  UNL1       -0.2817
     23 C          -2.5602   -0.2994    1.1474 C.ar    1  UNL1        0.0502
     24 C          -3.7235   -0.1518    0.4184 C.ar    1  UNL1       -0.0226
     25 C          -4.0141   -1.0218   -0.6030 C.ar    1  UNL1        0.1063
     26 S          -5.4876   -0.8357   -1.5269 S.O2    1  UNL1        0.0612
     27 O          -5.9110    0.6260   -1.4826 O.2     1  UNL1       -0.1528
     28 O          -5.1084   -1.0786   -2.9830 O.2     1  UNL1       -0.1528
     29 N          -6.7368   -1.8765   -1.1325 N.3     1  UNL1       -0.1703
     30 C          -6.4306   -3.2655   -1.3296 C.3     1  UNL1        0.0210
     31 C          -6.0507   -3.7638    0.0567 C.3     1  UNL1       -0.0370
     32 C          -6.4820   -2.6613    1.0226 C.3     1  UNL1       -0.0313
     33 C          -7.3491   -1.8067    0.1294 C.3     1  UNL1        0.0659
     34 C          -7.5536   -0.4057    0.6738 C.3     1  UNL1        0.1067
     35 O          -8.3345    0.3741   -0.1687 O.3     1  UNL1       -0.4904
     36 C          -8.6508    1.6821    0.1343 C.ar    1  UNL1        0.1206
     37 C          -9.4392    2.4447   -0.7366 C.ar    1  UNL1       -0.0199
     38 C          -9.7791    3.7582   -0.4692 C.ar    1  UNL1       -0.0583
     39 C          -9.3515    4.3636    0.6690 C.ar    1  UNL1       -0.0615
     40 C          -8.5685    3.6471    1.5615 C.ar    1  UNL1       -0.0583
     41 C          -8.2307    2.3306    1.2879 C.ar    1  UNL1       -0.0199
     42 C          -3.1282   -2.0361   -0.8820 C.ar    1  UNL1       -0.0335
     43 C          -1.9721   -2.1700   -0.1457 C.ar    1  UNL1       -0.0377
     44 C          -1.6410   -1.3178    0.8879 C.ar    1  UNL1        0.0481
     45 C           1.7334   -1.9516   -0.4055 C.ar    1  UNL1       -0.0536
     46 C           2.6755   -1.4483   -1.2527 C.ar    1  UNL1       -0.0196
     47 C          10.3769    0.2753    0.1517 C.ar    1  UNL1       -0.0341
     48 C          11.1044    1.2333    0.8412 C.ar    1  UNL1       -0.0570
     49 H          12.9984    3.2576    1.0587 H       1  UNL1        0.0278
     50 H          11.5502    3.6525    2.0937 H       1  UNL1        0.0278
     51 H          11.8159    4.5599    0.6022 H       1  UNL1        0.0278
     52 H          10.5386    3.8351   -1.1906 H       1  UNL1        0.0621
     53 H           9.2345    2.1433   -2.4375 H       1  UNL1        0.0637
     54 H           7.5323    1.1429   -0.8651 H       1  UNL1        0.0618
     55 H           6.4063    0.1702    0.2203 H       1  UNL1        0.0618
     56 H           6.0187    0.9065   -2.7135 H       1  UNL1        0.0720
     57 H           5.2444    1.8482   -1.3948 H       1  UNL1        0.0720
     58 H           4.2682    0.6376    0.8524 H       1  UNL1        0.0654
     59 H           2.5707   -0.3009    2.3590 H       1  UNL1        0.0622
     60 H           0.3614   -3.1116    1.5077 H       1  UNL1        0.0518
     61 H           1.0669   -2.1307    2.8596 H       1  UNL1        0.0518
     62 H          -4.3834    0.6760    0.6835 H       1  UNL1        0.0645
     63 H          -5.6325   -3.4349   -2.0821 H       1  UNL1        0.0444
     64 H          -7.3762   -3.7522   -1.6962 H       1  UNL1        0.0444
     65 H          -5.0012   -4.0457    0.1623 H       1  UNL1        0.0279
     66 H          -6.7381   -4.6249    0.2668 H       1  UNL1        0.0279
     67 H          -7.0728   -3.1035    1.8613 H       1  UNL1        0.0282
     68 H          -5.6111   -2.1268    1.4098 H       1  UNL1        0.0282
     69 H          -8.3292   -2.3448    0.0622 H       1  UNL1        0.0513
     70 H          -8.1823   -0.5676    1.6051 H       1  UNL1        0.0713
     71 H          -6.6217    0.0366    1.0401 H       1  UNL1        0.0713
     72 H          -9.7609    1.9263   -1.6358 H       1  UNL1        0.0654
     73 H         -10.4012    4.2239   -1.2484 H       1  UNL1        0.0619
     74 H          -9.6266    5.3985    0.8649 H       1  UNL1        0.0618
     75 H          -8.2388    4.1676    2.4751 H       1  UNL1        0.0619
     76 H          -7.6151    1.7915    2.0061 H       1  UNL1        0.0654
     77 H          -3.3599   -2.7375   -1.7054 H       1  UNL1        0.0638
     78 H          -1.2808   -2.9929   -0.3789 H       1  UNL1        0.0637
     79 H           1.0162   -2.6813   -0.7406 H       1  UNL1        0.0622
     80 H           2.6687   -1.8143   -2.2860 H       1  UNL1        0.0654
     81 H          10.3383   -0.7239    0.5393 H       1  UNL1        0.0637
     82 H          11.6157    0.9412    1.7548 H       1  UNL1        0.0621
@<TRIPOS>BOND
     1     1     2    1
     2     2     3   ar
     3     3     4   ar
     4     4     5   ar
     5     5     6    1
     6     6     7    2
     7     6     8    2
     8     6     9    1
     9     9    10    1
    10    10    11    1
    11    11    12    1
    12    12    13    1
    13    13    14   ar
    14    14    15   ar
    15    15    16   ar
    16    16    17    1
    17    17    18    1
    18    18    19   am
    19    19    20    2
    20    19    21    1
    21    21    22    2
    22    21    23    1
    23    23    24   ar
    24    24    25   ar
    25    25    26    1
    26    26    27    2
    27    26    28    2
    28    26    29    1
    29    29    30    1
    30    30    31    1
    31    31    32    1
    32    32    33    1
    33    33    34    1
    34    34    35    1
    35    35    36    1
    36    36    37   ar
    37    37    38   ar
    38    38    39   ar
    39    39    40   ar
    40    40    41   ar
    41    25    42   ar
    42    42    43   ar
    43    43    44   ar
    44    16    45   ar
    45    45    46   ar
    46     5    47   ar
    47    47    48   ar
    48    48     2   ar
    49    46    13   ar
    50    44    18    1
    51    44    23   ar
    52    33    29    1
    53    41    36   ar
    54     1    49    1
    55     1    50    1
    56     1    51    1
    57     3    52    1
    58     4    53    1
    59    10    54    1
    60    10    55    1
    61    11    56    1
    62    11    57    1
    63    14    58    1
    64    15    59    1
    65    17    60    1
    66    17    61    1
    67    24    62    1
    68    30    63    1
    69    30    64    1
    70    31    65    1
    71    31    66    1
    72    32    67    1
    73    32    68    1
    74    33    69    1
    75    34    70    1
    76    34    71    1
    77    37    72    1
    78    38    73    1
    79    39    74    1
    80    40    75    1
    81    41    76    1
    82    42    77    1
    83    43    78    1
    84    45    79    1
    85    46    80    1
    86    47    81    1
    87    48    82    1
