
     RDKit          3D

 82 87  0  0  0  0  0  0  0  0999 V2000
   11.9170    3.5572    1.0501 C   0  0  0  0  0  0  0  0  0  0  0  0
   11.1413    2.5015    0.3311 C   0  0  0  0  0  0  0  0  0  0  0  0
   10.4709    2.8179   -0.8410 C   0  0  0  0  0  0  0  0  0  0  0  0
    9.7475    1.8585   -1.5249 C   0  0  0  0  0  0  0  0  0  0  0  0
    9.7034    0.5781   -1.0189 C   0  0  0  0  0  0  0  0  0  0  0  0
    8.8282   -0.6782   -1.8312 S   0  0  0  0  0  6  0  0  0  0  0  0
    9.5535   -2.0002   -1.6356 O   0  0  0  0  0  0  0  0  0  0  0  0
    8.8400   -0.4139   -3.3295 O   0  0  0  0  0  0  0  0  0  0  0  0
    7.2770   -0.8252   -1.2748 O   0  0  0  0  0  0  0  0  0  0  0  0
    6.7290    0.3679   -0.8100 C   0  0  0  0  0  0  0  0  0  0  0  0
    5.5648    0.7944   -1.6811 C   0  0  0  0  0  0  0  0  0  0  0  0
    4.5162   -0.0744   -1.7706 O   0  0  0  0  0  0  0  0  0  0  0  0
    3.6300   -0.5023   -0.8426 C   0  0  0  0  0  0  0  0  0  0  0  0
    3.5780   -0.0916    0.4790 C   0  0  0  0  0  0  0  0  0  0  0  0
    2.6023   -0.6281    1.3145 C   0  0  0  0  0  0  0  0  0  0  0  0
    1.6714   -1.5433    0.9314 C   0  0  0  0  0  0  0  0  0  0  0  0
    0.6393   -2.0880    1.8427 C   0  0  0  0  0  0  0  0  0  0  0  0
   -0.5363   -1.2259    1.7825 N   0  0  0  0  0  0  0  0  0  0  0  0
   -0.7238   -0.1206    2.6580 C   0  0  0  0  0  0  0  0  0  0  0  0
    0.0203    0.3002    3.5890 O   0  0  0  0  0  0  0  0  0  0  0  0
   -2.0115    0.4726    2.2578 C   0  0  0  0  0  0  0  0  0  0  0  0
   -2.5595    1.4771    2.7776 O   0  0  0  0  0  0  0  0  0  0  0  0
   -2.5602   -0.2994    1.1474 C   0  0  0  0  0  0  0  0  0  0  0  0
   -3.7235   -0.1518    0.4184 C   0  0  0  0  0  0  0  0  0  0  0  0
   -4.0141   -1.0218   -0.6030 C   0  0  0  0  0  0  0  0  0  0  0  0
   -5.4876   -0.8357   -1.5269 S   0  0  0  0  0  6  0  0  0  0  0  0
   -5.9110    0.6260   -1.4826 O   0  0  0  0  0  0  0  0  0  0  0  0
   -5.1084   -1.0786   -2.9830 O   0  0  0  0  0  0  0  0  0  0  0  0
   -6.7368   -1.8765   -1.1325 N   0  0  0  0  0  0  0  0  0  0  0  0
   -6.4306   -3.2655   -1.3296 C   0  0  0  0  0  0  0  0  0  0  0  0
   -6.0507   -3.7638    0.0567 C   0  0  0  0  0  0  0  0  0  0  0  0
   -6.4820   -2.6613    1.0226 C   0  0  0  0  0  0  0  0  0  0  0  0
   -7.3491   -1.8067    0.1294 C   0  0  1  0  0  0  0  0  0  0  0  0
   -7.5536   -0.4057    0.6738 C   0  0  0  0  0  0  0  0  0  0  0  0
   -8.3345    0.3741   -0.1687 O   0  0  0  0  0  0  0  0  0  0  0  0
   -8.6508    1.6821    0.1343 C   0  0  0  0  0  0  0  0  0  0  0  0
   -9.4392    2.4447   -0.7366 C   0  0  0  0  0  0  0  0  0  0  0  0
   -9.7791    3.7582   -0.4692 C   0  0  0  0  0  0  0  0  0  0  0  0
   -9.3515    4.3636    0.6690 C   0  0  0  0  0  0  0  0  0  0  0  0
   -8.5685    3.6471    1.5615 C   0  0  0  0  0  0  0  0  0  0  0  0
   -8.2307    2.3306    1.2879 C   0  0  0  0  0  0  0  0  0  0  0  0
   -3.1282   -2.0361   -0.8820 C   0  0  0  0  0  0  0  0  0  0  0  0
   -1.9721   -2.1700   -0.1457 C   0  0  0  0  0  0  0  0  0  0  0  0
   -1.6410   -1.3178    0.8879 C   0  0  0  0  0  0  0  0  0  0  0  0
    1.7334   -1.9516   -0.4055 C   0  0  0  0  0  0  0  0  0  0  0  0
    2.6755   -1.4483   -1.2527 C   0  0  0  0  0  0  0  0  0  0  0  0
   10.3769    0.2753    0.1517 C   0  0  0  0  0  0  0  0  0  0  0  0
   11.1044    1.2333    0.8412 C   0  0  0  0  0  0  0  0  0  0  0  0
   12.9984    3.2576    1.0587 H   0  0  0  0  0  0  0  0  0  0  0  0
   11.5502    3.6525    2.0937 H   0  0  0  0  0  0  0  0  0  0  0  0
   11.8159    4.5599    0.6022 H   0  0  0  0  0  0  0  0  0  0  0  0
   10.5386    3.8351   -1.1906 H   0  0  0  0  0  0  0  0  0  0  0  0
    9.2345    2.1433   -2.4375 H   0  0  0  0  0  0  0  0  0  0  0  0
    7.5323    1.1429   -0.8651 H   0  0  0  0  0  0  0  0  0  0  0  0
    6.4063    0.1702    0.2203 H   0  0  0  0  0  0  0  0  0  0  0  0
    6.0187    0.9065   -2.7135 H   0  0  0  0  0  0  0  0  0  0  0  0
    5.2444    1.8482   -1.3948 H   0  0  0  0  0  0  0  0  0  0  0  0
    4.2682    0.6376    0.8524 H   0  0  0  0  0  0  0  0  0  0  0  0
    2.5707   -0.3009    2.3590 H   0  0  0  0  0  0  0  0  0  0  0  0
    0.3614   -3.1116    1.5077 H   0  0  0  0  0  0  0  0  0  0  0  0
    1.0669   -2.1307    2.8596 H   0  0  0  0  0  0  0  0  0  0  0  0
   -4.3834    0.6760    0.6835 H   0  0  0  0  0  0  0  0  0  0  0  0
   -5.6325   -3.4349   -2.0821 H   0  0  0  0  0  0  0  0  0  0  0  0
   -7.3762   -3.7522   -1.6962 H   0  0  0  0  0  0  0  0  0  0  0  0
   -5.0012   -4.0457    0.1623 H   0  0  0  0  0  0  0  0  0  0  0  0
   -6.7381   -4.6249    0.2668 H   0  0  0  0  0  0  0  0  0  0  0  0
   -7.0728   -3.1035    1.8613 H   0  0  0  0  0  0  0  0  0  0  0  0
   -5.6111   -2.1268    1.4098 H   0  0  0  0  0  0  0  0  0  0  0  0
   -8.3292   -2.3448    0.0622 H   0  0  0  0  0  0  0  0  0  0  0  0
   -8.1823   -0.5676    1.6051 H   0  0  0  0  0  0  0  0  0  0  0  0
   -6.6217    0.0366    1.0401 H   0  0  0  0  0  0  0  0  0  0  0  0
   -9.7609    1.9263   -1.6358 H   0  0  0  0  0  0  0  0  0  0  0  0
  -10.4012    4.2239   -1.2484 H   0  0  0  0  0  0  0  0  0  0  0  0
   -9.6266    5.3985    0.8649 H   0  0  0  0  0  0  0  0  0  0  0  0
   -8.2388    4.1676    2.4751 H   0  0  0  0  0  0  0  0  0  0  0  0
   -7.6151    1.7915    2.0061 H   0  0  0  0  0  0  0  0  0  0  0  0
   -3.3599   -2.7375   -1.7054 H   0  0  0  0  0  0  0  0  0  0  0  0
   -1.2808   -2.9929   -0.3789 H   0  0  0  0  0  0  0  0  0  0  0  0
    1.0162   -2.6813   -0.7406 H   0  0  0  0  0  0  0  0  0  0  0  0
    2.6687   -1.8143   -2.2860 H   0  0  0  0  0  0  0  0  0  0  0  0
   10.3383   -0.7239    0.5393 H   0  0  0  0  0  0  0  0  0  0  0  0
   11.6157    0.9412    1.7548 H   0  0  0  0  0  0  0  0  0  0  0  0
  1  2  1  0
  2  3  2  0
  3  4  1  0
  4  5  2  0
  5  6  1  0
  6  7  2  0
  6  8  2  0
  6  9  1  0
  9 10  1  0
 10 11  1  0
 11 12  1  0
 12 13  1  0
 13 14  2  0
 14 15  1  0
 15 16  2  0
 16 17  1  0
 17 18  1  0
 18 19  1  0
 19 20  2  0
 19 21  1  0
 21 22  2  0
 21 23  1  0
 23 24  2  0
 24 25  1  0
 25 26  1  0
 26 27  2  0
 26 28  2  0
 26 29  1  0
 29 30  1  0
 30 31  1  0
 31 32  1  0
 32 33  1  0
 33 34  1  0
 34 35  1  0
 35 36  1  0
 36 37  2  0
 37 38  1  0
 38 39  2  0
 39 40  1  0
 40 41  2  0
 25 42  2  0
 42 43  1  0
 43 44  2  0
 16 45  1  0
 45 46  2  0
  5 47  1  0
 47 48  2  0
 48  2  1  0
 46 13  1  0
 44 18  1  0
 44 23  1  0
 33 29  1  0
 41 36  1  0
  1 49  1  0
  1 50  1  0
  1 51  1  0
  3 52  1  0
  4 53  1  0
 10 54  1  0
 10 55  1  0
 11 56  1  0
 11 57  1  0
 14 58  1  0
 15 59  1  0
 17 60  1  0
 17 61  1  0
 24 62  1  0
 30 63  1  0
 30 64  1  0
 31 65  1  0
 31 66  1  0
 32 67  1  0
 32 68  1  0
 33 69  1  6
 34 70  1  0
 34 71  1  0
 37 72  1  0
 38 73  1  0
 39 74  1  0
 40 75  1  0
 41 76  1  0
 42 77  1  0
 43 78  1  0
 45 79  1  0
 46 80  1  0
 47 81  1  0
 48 82  1  0
M  END
$$$$
