
     RDKit          3D

 46 46  0  0  0  0  0  0  0  0999 V2000
    2.5379    0.1476   -0.6660 C   0  0  2  0  0  0  0  0  0  0  0  0
    3.7999   -0.4643   -0.9558 N   0  0  0  0  0  0  0  0  0  0  0  0
    2.0050   -0.4673    0.6247 C   0  0  0  0  0  0  0  0  0  0  0  0
    2.9629   -0.2101    1.7157 C   0  0  0  0  0  0  0  0  0  0  0  0
    3.9493   -1.1290    1.9410 C   0  0  0  0  0  0  0  0  0  0  0  0
    4.9143   -1.0247    2.9232 C   0  0  0  0  0  0  0  0  0  0  0  0
    4.8335    0.1168    3.7147 C   0  0  0  0  0  0  0  0  0  0  0  0
    3.8659    1.1019    3.5572 C   0  0  0  0  0  0  0  0  0  0  0  0
    2.9497    0.8879    2.5372 C   0  0  0  0  0  0  0  0  0  0  0  0
    1.5256   -0.0742   -1.7967 C   0  0  2  0  0  0  0  0  0  0  0  0
    2.0929    0.5092   -2.9431 O   0  0  0  0  0  0  0  0  0  0  0  0
    0.2798    0.6626   -1.5029 C   0  0  0  0  0  0  0  0  0  0  0  0
    0.3340    2.0419   -1.3664 O   0  0  0  0  0  0  0  0  0  0  0  0
   -0.7652   -0.0383   -1.3960 N   0  0  0  0  0  0  0  0  0  0  0  0
   -2.1059    0.4341   -1.1136 C   0  0  1  0  0  0  0  0  0  0  0  0
   -3.0689   -0.7145   -0.9562 C   0  0  0  0  0  0  0  0  0  0  0  0
   -4.4419   -0.1779   -0.6708 C   0  0  0  0  0  0  0  0  0  0  0  0
   -4.9481    0.7220   -1.7771 C   0  0  0  0  0  0  0  0  0  0  0  0
   -5.4662   -1.3278   -0.6034 C   0  0  0  0  0  0  0  0  0  0  0  0
   -2.1262    1.3465    0.0505 C   0  0  0  0  0  0  0  0  0  0  0  0
   -1.6592    2.0886    1.1205 O   0  0  0  0  0  0  0  0  0  0  0  0
   -2.9987    2.0196    0.6870 O   0  0  0  0  0  0  0  0  0  0  0  0
    2.6959    1.2312   -0.5240 H   0  0  0  0  0  0  0  0  0  0  0  0
    4.1759   -0.1962   -1.8978 H   0  0  0  0  0  0  0  0  0  0  0  0
    3.6523   -1.5153   -1.0062 H   0  0  0  0  0  0  0  0  0  0  0  0
    1.8722   -1.5564    0.5095 H   0  0  0  0  0  0  0  0  0  0  0  0
    1.0368    0.0301    0.8795 H   0  0  0  0  0  0  0  0  0  0  0  0
    4.0069   -2.0181    1.3199 H   0  0  0  0  0  0  0  0  0  0  0  0
    5.6866   -1.7631    3.0854 H   0  0  0  0  0  0  0  0  0  0  0  0
    5.6102    0.1828    4.4922 H   0  0  0  0  0  0  0  0  0  0  0  0
    3.8484    1.9642    4.1957 H   0  0  0  0  0  0  0  0  0  0  0  0
    2.1811    1.6338    2.3838 H   0  0  0  0  0  0  0  0  0  0  0  0
    1.3906   -1.1355   -2.0001 H   0  0  0  0  0  0  0  0  0  0  0  0
    2.0046    1.4932   -2.9212 H   0  0  0  0  0  0  0  0  0  0  0  0
   -0.5300    2.5670   -1.3741 H   0  0  0  0  0  0  0  0  0  0  0  0
   -2.4218    0.9850   -2.0422 H   0  0  0  0  0  0  0  0  0  0  0  0
   -2.7823   -1.3916   -0.1211 H   0  0  0  0  0  0  0  0  0  0  0  0
   -3.1189   -1.2735   -1.9055 H   0  0  0  0  0  0  0  0  0  0  0  0
   -4.5215    0.3694    0.2769 H   0  0  0  0  0  0  0  0  0  0  0  0
   -4.8718    0.2948   -2.7804 H   0  0  0  0  0  0  0  0  0  0  0  0
   -4.4606    1.7264   -1.7497 H   0  0  0  0  0  0  0  0  0  0  0  0
   -6.0215    0.9092   -1.5710 H   0  0  0  0  0  0  0  0  0  0  0  0
   -6.4254   -0.8605   -0.2371 H   0  0  0  0  0  0  0  0  0  0  0  0
   -5.6544   -1.6154   -1.6645 H   0  0  0  0  0  0  0  0  0  0  0  0
   -5.1111   -2.1451    0.0335 H   0  0  0  0  0  0  0  0  0  0  0  0
   -0.7126    2.0560    1.4950 H   0  0  0  0  0  0  0  0  0  0  0  0
  1  2  1  0
  1  3  1  0
  3  4  1  0
  4  5  2  0
  5  6  1  0
  6  7  2  0
  7  8  1  0
  8  9  2  0
  1 10  1  0
 10 11  1  0
 10 12  1  0
 12 13  1  0
 12 14  2  3
 14 15  1  0
 15 16  1  0
 16 17  1  0
 17 18  1  0
 17 19  1  0
 15 20  1  0
 20 21  1  0
 20 22  2  0
  9  4  1  0
  1 23  1  1
  2 24  1  0
  2 25  1  0
  3 26  1  0
  3 27  1  0
  5 28  1  0
  6 29  1  0
  7 30  1  0
  8 31  1  0
  9 32  1  0
 10 33  1  6
 11 34  1  0
 13 35  1  0
 15 36  1  6
 16 37  1  0
 16 38  1  0
 17 39  1  0
 18 40  1  0
 18 41  1  0
 18 42  1  0
 19 43  1  0
 19 44  1  0
 19 45  1  0
 21 46  1  0
M  END
$$$$
