@<TRIPOS>MOLECULE
*****
 46 46 0 0 0
SMALL
GASTEIGER

@<TRIPOS>ATOM
      1 C           2.5379    0.1476   -0.6660 C.3     0  UNK0        0.0438
      2 N           3.7999   -0.4643   -0.9558 N.3     0  UNK0       -0.3245
      3 C           2.0050   -0.4673    0.6247 C.3     0  UNK0       -0.0095
      4 C           2.9629   -0.2101    1.7157 C.ar    0  UNK0       -0.0458
      5 C           3.9493   -1.1290    1.9410 C.ar    0  UNK0       -0.0585
      6 C           4.9143   -1.0247    2.9232 C.ar    0  UNK0       -0.0615
      7 C           4.8335    0.1168    3.7147 C.ar    0  UNK0       -0.0617
      8 C           3.8659    1.1019    3.5572 C.ar    0  UNK0       -0.0615
      9 C           2.9497    0.8879    2.5372 C.ar    0  UNK0       -0.0585
     10 C           1.5256   -0.0742   -1.7967 C.3     0  UNK0        0.1452
     11 O           2.0929    0.5092   -2.9431 O.3     0  UNK0       -0.3809
     12 C           0.2798    0.6626   -1.5029 C.2     0  UNK0        0.2144
     13 O           0.3340    2.0419   -1.3664 O.2     0  UNK0       -0.4938
     14 N          -0.7652   -0.0383   -1.3960 N.2     1  LEU1       -0.2378
     15 CA         -2.1059    0.4341   -1.1136 C.3     1  LEU1        0.1507
     16 CB         -3.0689   -0.7145   -0.9562 C.3     1  LEU1       -0.0177
     17 CG         -4.4419   -0.1779   -0.6708 C.3     1  LEU1       -0.0443
     18 CD1        -4.9481    0.7220   -1.7771 C.3     1  LEU1       -0.0626
     19 CD2        -5.4662   -1.3278   -0.6034 C.3     1  LEU1       -0.0626
     20 C          -2.1262    1.3465    0.0505 C.2     1  LEU1        0.3296
     21 O          -1.6592    2.0886    1.1205 O.3     1  LEU1       -0.4791
     22 OXT        -2.9987    2.0196    0.6870 O.2     1  LEU1       -0.2486
     23 H           2.6959    1.2312   -0.5240 H       0  UNK0        0.0492
     24 H           4.1759   -0.1962   -1.8978 H       0  UNK0        0.1186
     25 H           3.6523   -1.5153   -1.0062 H       0  UNK0        0.1186
     26 H           1.8722   -1.5564    0.5095 H       0  UNK0        0.0329
     27 H           1.0368    0.0301    0.8795 H       0  UNK0        0.0329
     28 H           4.0069   -2.0181    1.3199 H       0  UNK0        0.0620
     29 H           5.6866   -1.7631    3.0854 H       0  UNK0        0.0618
     30 H           5.6102    0.1828    4.4922 H       0  UNK0        0.0618
     31 H           3.8484    1.9642    4.1957 H       0  UNK0        0.0618
     32 H           2.1811    1.6338    2.3838 H       0  UNK0        0.0620
     33 H           1.3906   -1.1355   -2.0001 H       0  UNK0        0.0707
     34 H           2.0046    1.4932   -2.9212 H       0  UNK0        0.2105
     35 H          -0.5300    2.5670   -1.3741 H       0  UNK0        0.2935
     36 HA         -2.4218    0.9850   -2.0422 H       1  LEU1        0.0662
     37 HB1        -2.7823   -1.3916   -0.1211 H       1  LEU1        0.0294
     38 HB2        -3.1189   -1.2735   -1.9055 H       1  LEU1        0.0294
     39 HG         -4.5215    0.3694    0.2769 H       1  LEU1        0.0296
     40 HD11       -4.8718    0.2948   -2.7804 H       1  LEU1        0.0232
     41 HD12       -4.4606    1.7264   -1.7497 H       1  LEU1        0.0232
     42 HD13       -6.0215    0.9092   -1.5710 H       1  LEU1        0.0232
     43 HD21       -6.4254   -0.8605   -0.2371 H       1  LEU1        0.0232
     44 HD22       -5.6544   -1.6154   -1.6645 H       1  LEU1        0.0232
     45 HD23       -5.1111   -2.1451    0.0335 H       1  LEU1        0.0232
     46 H          -0.7126    2.0560    1.4950 H       1  LEU1        0.2951
@<TRIPOS>BOND
     1     1     2    1
     2     1     3    1
     3     3     4    1
     4     4     5   ar
     5     5     6   ar
     6     6     7   ar
     7     7     8   ar
     8     8     9   ar
     9     1    10    1
    10    10    11    1
    11    10    12    1
    12    12    13    1
    13    12    14    2
    14    14    15    1
    15    15    16    1
    16    16    17    1
    17    17    18    1
    18    17    19    1
    19    15    20    1
    20    20    21    1
    21    20    22    2
    22     9     4   ar
    23     1    23    1
    24     2    24    1
    25     2    25    1
    26     3    26    1
    27     3    27    1
    28     5    28    1
    29     6    29    1
    30     7    30    1
    31     8    31    1
    32     9    32    1
    33    10    33    1
    34    11    34    1
    35    13    35    1
    36    15    36    1
    37    16    37    1
    38    16    38    1
    39    17    39    1
    40    18    40    1
    41    18    41    1
    42    18    42    1
    43    19    43    1
    44    19    44    1
    45    19    45    1
    46    21    46    1
