@<TRIPOS>MOLECULE
*****
 30 31 0 0 0
SMALL
GASTEIGER

@<TRIPOS>ATOM
      1 O          -4.3417   -2.3338   -1.0797 O.3     1  UNL1       -0.5066
      2 C          -3.8523   -1.1256   -0.5983 C.ar    1  UNL1        0.1209
      3 C          -4.7101   -0.1161   -0.2151 C.ar    1  UNL1        0.0213
      4 C          -4.2492    1.0913    0.2656 C.ar    1  UNL1        0.1209
      5 O          -5.1680    2.0553    0.6301 O.3     1  UNL1       -0.5066
      6 C          -2.8926    1.2753    0.3580 C.ar    1  UNL1       -0.0128
      7 C          -1.9632    0.2950   -0.0128 C.ar    1  UNL1       -0.0181
      8 C          -0.5353    0.5653    0.1146 C.2     1  UNL1       -0.0538
      9 C           0.3857   -0.3018   -0.2119 C.2     1  UNL1       -0.0539
     10 C           1.7814   -0.0465   -0.0909 C.ar    1  UNL1       -0.0213
     11 C           2.2699    1.1379    0.3811 C.ar    1  UNL1       -0.0509
     12 C           3.6419    1.3571    0.4875 C.ar    1  UNL1       -0.0160
     13 C           4.5350    0.3896    0.1212 C.ar    1  UNL1        0.1582
     14 O           5.9035    0.6521    0.2446 O.3     1  UNL1       -0.5033
     15 C           4.0600   -0.8122   -0.3574 C.ar    1  UNL1        0.1588
     16 O           4.9912   -1.7952   -0.7292 O.3     1  UNL1       -0.5033
     17 C           2.7103   -1.0190   -0.4586 C.ar    1  UNL1       -0.0094
     18 C          -2.4714   -0.8899   -0.4852 C.ar    1  UNL1       -0.0128
     19 H          -3.9217   -3.2015   -0.7731 H       1  UNL1        0.2921
     20 H          -5.7739   -0.3132   -0.3083 H       1  UNL1        0.0691
     21 H          -5.2254    2.9461    0.1585 H       1  UNL1        0.2921
     22 H          -2.4965    2.2090    0.7302 H       1  UNL1        0.0660
     23 H          -0.2496    1.5298    0.4972 H       1  UNL1        0.0624
     24 H           0.0953   -1.2907   -0.6042 H       1  UNL1        0.0624
     25 H           1.6284    1.9653    0.6961 H       1  UNL1        0.0625
     26 H           3.9650    2.3155    0.8683 H       1  UNL1        0.0655
     27 H           6.6039   -0.0846    0.2043 H       1  UNL1        0.2923
     28 H           4.7300   -2.7853   -0.7143 H       1  UNL1        0.2923
     29 H           2.3525   -1.9783   -0.8403 H       1  UNL1        0.0661
     30 H          -1.8032   -1.6911   -0.7896 H       1  UNL1        0.0660
@<TRIPOS>BOND
     1     1     2    1
     2     2     3   ar
     3     3     4   ar
     4     4     5    1
     5     4     6   ar
     6     6     7   ar
     7     7     8    1
     8     8     9    2
     9     9    10    1
    10    10    11   ar
    11    11    12   ar
    12    12    13   ar
    13    13    14    1
    14    13    15   ar
    15    15    16    1
    16    15    17   ar
    17     7    18   ar
    18    18     2   ar
    19    17    10   ar
    20     1    19    1
    21     3    20    1
    22     5    21    1
    23     6    22    1
    24     8    23    1
    25     9    24    1
    26    11    25    1
    27    12    26    1
    28    14    27    1
    29    16    28    1
    30    17    29    1
    31    18    30    1
