@<TRIPOS>MOLECULE
*****
 36 38 0 0 0
SMALL
GASTEIGER

@<TRIPOS>ATOM
      1 F           1.2911   -1.6993    1.0289 F       1  UNL1       -0.2048
      2 C           2.3504   -0.8400    0.8675 C.ar    1  UNL1        0.1325
      3 C           3.5563   -1.3454    1.2583 C.ar    1  UNL1       -0.0258
      4 C           4.6650   -0.5108    1.1137 C.ar    1  UNL1       -0.0590
      5 C           4.5565    0.7666    0.6009 C.ar    1  UNL1       -0.0610
      6 C           3.3281    1.2693    0.2081 C.ar    1  UNL1       -0.0498
      7 C           2.2067    0.4417    0.3483 C.ar    1  UNL1        0.0357
      8 C           0.8366    0.7900    0.0110 C.2     1  UNL1        0.0777
      9 N           0.4571    1.9027    0.5581 N.2     1  UNL1       -0.2761
     10 C          -0.7638    2.6412    0.5275 C.3     1  UNL1        0.0854
     11 C          -1.9861    1.8368    0.4518 C.2     1  UNL1        0.0774
     12 S          -3.2787    2.6142    1.1243 S.2     1  UNL1       -0.0379
     13 N          -2.3176    0.5289   -0.0892 N.am    1  UNL1       -0.2869
     14 C          -3.5668   -0.0771    0.1818 C.3     1  UNL1        0.1127
     15 C          -3.7212   -0.6230    1.5946 C.3     1  UNL1        0.4056
     16 F          -4.9584   -1.1948    1.8136 F       1  UNL1       -0.1689
     17 F          -3.5352    0.3069    2.5790 F       1  UNL1       -0.1689
     18 F          -2.7046   -1.5647    1.8554 F       1  UNL1       -0.1689
     19 C          -1.3433   -0.1613   -0.8572 C.ar    1  UNL1        0.0438
     20 C           0.0476   -0.0894   -0.8537 C.ar    1  UNL1        0.0233
     21 C           0.9175   -0.8171   -1.6342 C.ar    1  UNL1       -0.0324
     22 C           0.2799   -1.7092   -2.5039 C.ar    1  UNL1        0.0417
     23 CL          1.3074   -2.6982   -3.5430 Cl      1  UNL1       -0.0835
     24 C          -1.1060   -1.8166   -2.5425 C.ar    1  UNL1       -0.0416
     25 C          -1.9063   -1.0474   -1.7253 C.ar    1  UNL1       -0.0383
     26 H           3.6788   -2.3313    1.6576 H       1  UNL1        0.0646
     27 H           5.6550   -0.8772    1.4137 H       1  UNL1        0.0618
     28 H           5.4007    1.4326    0.4795 H       1  UNL1        0.0618
     29 H           3.1175    2.2448   -0.2027 H       1  UNL1        0.0625
     30 H          -0.7087    3.3426   -0.3377 H       1  UNL1        0.0576
     31 H          -0.8075    3.2710    1.4293 H       1  UNL1        0.0576
     32 H          -4.1679   -0.5442   -0.5790 H       1  UNL1        0.0557
     33 H          -4.2475    0.8819    0.2973 H       1  UNL1        0.0557
     34 H           1.9860   -0.6736   -1.5442 H       1  UNL1        0.0639
     35 H          -1.5664   -2.5257   -3.2373 H       1  UNL1        0.0633
     36 H          -2.9521   -1.1252   -1.7501 H       1  UNL1        0.0637
@<TRIPOS>BOND
     1     1     2    1
     2     2     3   ar
     3     3     4   ar
     4     4     5   ar
     5     5     6   ar
     6     6     7   ar
     7     7     8    1
     8     8     9    2
     9     9    10    1
    10    10    11    1
    11    11    12    2
    12    11    13    1
    13    13    14    1
    14    14    15    1
    15    15    16    1
    16    15    17    1
    17    15    18    1
    18    13    19    1
    19    19    20   ar
    20    20    21   ar
    21    21    22   ar
    22    22    23    1
    23    22    24   ar
    24    24    25   ar
    25     7     2   ar
    26    20     8    1
    27    25    19   ar
    28     3    26    1
    29     4    27    1
    30     5    28    1
    31     6    29    1
    32    10    30    1
    33    10    31    1
    34    14    32    1
    35    14    33    1
    36    21    34    1
    37    24    35    1
    38    25    36    1
