
     RDKit          3D

 65 69  0  0  0  0  0  0  0  0999 V2000
    1.0178   -2.8831   -3.7912 O   0  0  0  0  0  0  0  0  0  0  0  0
    1.5022   -1.7492   -3.5106 C   0  0  0  0  0  0  0  0  0  0  0  0
    2.8326   -1.2705   -3.8386 C   0  0  0  0  0  0  0  0  0  0  0  0
    3.7543   -1.8623   -4.4507 O   0  0  0  0  0  0  0  0  0  0  0  0
    2.9554    0.0539   -3.3352 N   0  0  0  0  0  0  0  0  0  0  0  0
    4.1406    0.9030   -3.4524 C   0  0  0  0  0  0  0  0  0  0  0  0
    5.0580    0.7089   -2.3059 C   0  0  0  0  0  0  0  0  0  0  0  0
    4.9672    1.4572   -1.1635 C   0  0  0  0  0  0  0  0  0  0  0  0
    5.8594    1.2345   -0.1059 C   0  0  0  0  0  0  0  0  0  0  0  0
    6.8476    0.2827   -0.1471 C   0  0  0  0  0  0  0  0  0  0  0  0
    7.7471    0.0017    0.8312 O   0  0  0  0  0  0  0  0  0  0  0  0
    7.9871    0.4652    2.0854 C   0  0  0  0  0  0  0  0  0  0  0  0
    6.8475    0.1964    3.0314 C   0  0  0  0  0  0  0  0  0  0  0  0
    7.1268    0.6830    4.3027 F   0  0  0  0  0  0  0  0  0  0  0  0
    6.9191   -0.4752   -1.3383 C   0  0  0  0  0  0  0  0  0  0  0  0
    6.0423   -0.2528   -2.3724 C   0  0  0  0  0  0  0  0  0  0  0  0
    1.7137    0.3654   -2.7131 C   0  0  0  0  0  0  0  0  0  0  0  0
    1.3125    1.5338   -2.0678 C   0  0  0  0  0  0  0  0  0  0  0  0
    0.0313    1.6101   -1.5285 C   0  0  0  0  0  0  0  0  0  0  0  0
   -0.8284    0.5511   -1.6289 C   0  0  0  0  0  0  0  0  0  0  0  0
   -2.4284    0.6868   -0.9387 S   0  0  0  0  0  6  0  0  0  0  0  0
   -2.7870    2.1628   -0.8973 O   0  0  0  0  0  0  0  0  0  0  0  0
   -3.4133   -0.1102   -1.7330 O   0  0  0  0  0  0  0  0  0  0  0  0
   -2.3271    0.1359    0.6985 N   0  0  0  0  0  0  0  0  0  0  0  0
   -1.8880   -1.2846    0.6832 C   0  0  0  0  0  0  0  0  0  0  0  0
   -2.0151   -1.6057    2.1563 C   0  0  0  0  0  0  0  0  0  0  0  0
   -3.2296   -0.8214    2.5984 C   0  0  0  0  0  0  0  0  0  0  0  0
   -3.6190   -0.0421    1.3313 C   0  0  1  0  0  0  0  0  0  0  0  0
   -4.1815    1.2944    1.7106 C   0  0  0  0  0  0  0  0  0  0  0  0
   -5.4022    1.2706    2.3421 O   0  0  0  0  0  0  0  0  0  0  0  0
   -6.6182    0.8581    1.9366 C   0  0  0  0  0  0  0  0  0  0  0  0
   -7.6948    0.9349    2.8285 C   0  0  0  0  0  0  0  0  0  0  0  0
   -8.9662    0.5411    2.5040 C   0  0  0  0  0  0  0  0  0  0  0  0
   -9.2569    0.0386    1.2567 C   0  0  0  0  0  0  0  0  0  0  0  0
   -8.2205   -0.0483    0.3602 C   0  0  0  0  0  0  0  0  0  0  0  0
   -6.9229    0.3556    0.6960 C   0  0  0  0  0  0  0  0  0  0  0  0
   -0.4684   -0.6092   -2.2546 C   0  0  0  0  0  0  0  0  0  0  0  0
    0.8255   -0.6661   -2.7908 C   0  0  0  0  0  0  0  0  0  0  0  0
    3.7931    1.9689   -3.5166 H   0  0  0  0  0  0  0  0  0  0  0  0
    4.6986    0.6912   -4.3928 H   0  0  0  0  0  0  0  0  0  0  0  0
    4.2099    2.2301   -1.0564 H   0  0  0  0  0  0  0  0  0  0  0  0
    5.7717    1.8620    0.7833 H   0  0  0  0  0  0  0  0  0  0  0  0
    8.9405    0.0236    2.4966 H   0  0  0  0  0  0  0  0  0  0  0  0
    8.1310    1.5854    2.0819 H   0  0  0  0  0  0  0  0  0  0  0  0
    6.7209   -0.9235    3.0656 H   0  0  0  0  0  0  0  0  0  0  0  0
    5.9184    0.6565    2.6929 H   0  0  0  0  0  0  0  0  0  0  0  0
    7.6855   -1.2389   -1.4158 H   0  0  0  0  0  0  0  0  0  0  0  0
    6.0902   -0.8372   -3.3027 H   0  0  0  0  0  0  0  0  0  0  0  0
    2.0168    2.3406   -2.0116 H   0  0  0  0  0  0  0  0  0  0  0  0
   -0.2685    2.5293   -1.0270 H   0  0  0  0  0  0  0  0  0  0  0  0
   -0.8720   -1.3708    0.2990 H   0  0  0  0  0  0  0  0  0  0  0  0
   -2.6361   -1.9101    0.1533 H   0  0  0  0  0  0  0  0  0  0  0  0
   -2.0913   -2.6828    2.3613 H   0  0  0  0  0  0  0  0  0  0  0  0
   -1.1034   -1.1573    2.6473 H   0  0  0  0  0  0  0  0  0  0  0  0
   -4.0616   -1.4754    2.9214 H   0  0  0  0  0  0  0  0  0  0  0  0
   -2.9965   -0.1076    3.3902 H   0  0  0  0  0  0  0  0  0  0  0  0
   -4.2420   -0.6660    0.6948 H   0  0  0  0  0  0  0  0  0  0  0  0
   -4.1956    1.9298    0.7764 H   0  0  0  0  0  0  0  0  0  0  0  0
   -3.4689    1.8608    2.3803 H   0  0  0  0  0  0  0  0  0  0  0  0
   -7.4832    1.3329    3.8279 H   0  0  0  0  0  0  0  0  0  0  0  0
   -9.7883    0.6090    3.2112 H   0  0  0  0  0  0  0  0  0  0  0  0
  -10.2546   -0.2716    0.9994 H   0  0  0  0  0  0  0  0  0  0  0  0
   -8.4366   -0.4451   -0.6332 H   0  0  0  0  0  0  0  0  0  0  0  0
   -6.1790    0.2689   -0.0664 H   0  0  0  0  0  0  0  0  0  0  0  0
   -1.1196   -1.4547   -2.3487 H   0  0  0  0  0  0  0  0  0  0  0  0
  1  2  2  0
  2  3  1  0
  3  4  2  0
  3  5  1  0
  5  6  1  0
  6  7  1  0
  7  8  2  0
  8  9  1  0
  9 10  2  0
 10 11  1  0
 11 12  1  0
 12 13  1  0
 13 14  1  0
 10 15  1  0
 15 16  2  0
  5 17  1  0
 17 18  2  0
 18 19  1  0
 19 20  2  0
 20 21  1  0
 21 22  2  0
 21 23  2  0
 21 24  1  0
 24 25  1  0
 25 26  1  0
 26 27  1  0
 27 28  1  0
 28 29  1  0
 29 30  1  0
 30 31  1  0
 31 32  2  0
 32 33  1  0
 33 34  2  0
 34 35  1  0
 35 36  2  0
 20 37  1  0
 37 38  2  0
 38  2  1  0
 16  7  1  0
 38 17  1  0
 28 24  1  0
 36 31  1  0
  6 39  1  0
  6 40  1  0
  8 41  1  0
  9 42  1  0
 12 43  1  0
 12 44  1  0
 13 45  1  0
 13 46  1  0
 15 47  1  0
 16 48  1  0
 18 49  1  0
 19 50  1  0
 25 51  1  0
 25 52  1  0
 26 53  1  0
 26 54  1  0
 27 55  1  0
 27 56  1  0
 28 57  1  6
 29 58  1  0
 29 59  1  0
 32 60  1  0
 33 61  1  0
 34 62  1  0
 35 63  1  0
 36 64  1  0
 37 65  1  0
M  END
$$$$
