@<TRIPOS>MOLECULE
*****
 65 69 0 0 0
SMALL
GASTEIGER

@<TRIPOS>ATOM
      1 O           1.0178   -2.8831   -3.7912 O.2     1  UNL1       -0.2817
      2 C           1.5022   -1.7492   -3.5106 C.2     1  UNL1        0.2496
      3 C           2.8326   -1.2705   -3.8386 C.2     1  UNL1        0.2915
      4 O           3.7543   -1.8623   -4.4507 O.2     1  UNL1       -0.2661
      5 N           2.9554    0.0539   -3.3352 N.am    1  UNL1       -0.2598
      6 C           4.1406    0.9030   -3.4524 C.3     1  UNL1        0.0452
      7 C           5.0580    0.7089   -2.3059 C.ar    1  UNL1       -0.0295
      8 C           4.9672    1.4572   -1.1635 C.ar    1  UNL1       -0.0536
      9 C           5.8594    1.2345   -0.1059 C.ar    1  UNL1       -0.0196
     10 C           6.8476    0.2827   -0.1471 C.ar    1  UNL1        0.1206
     11 O           7.7471    0.0017    0.8312 O.3     1  UNL1       -0.4894
     12 C           7.9871    0.4652    2.0854 C.3     1  UNL1        0.1177
     13 C           6.8475    0.1964    3.0314 C.3     1  UNL1        0.1241
     14 F           7.1268    0.6830    4.3027 F       1  UNL1       -0.2455
     15 C           6.9191   -0.4752   -1.3383 C.ar    1  UNL1       -0.0196
     16 C           6.0423   -0.2528   -2.3724 C.ar    1  UNL1       -0.0536
     17 C           1.7137    0.3654   -2.7131 C.ar    1  UNL1        0.0481
     18 C           1.3125    1.5338   -2.0678 C.ar    1  UNL1       -0.0377
     19 C           0.0313    1.6101   -1.5285 C.ar    1  UNL1       -0.0335
     20 C          -0.8284    0.5511   -1.6289 C.ar    1  UNL1        0.1063
     21 S          -2.4284    0.6868   -0.9387 S.O2    1  UNL1        0.0612
     22 O          -2.7870    2.1628   -0.8973 O.2     1  UNL1       -0.1528
     23 O          -3.4133   -0.1102   -1.7330 O.2     1  UNL1       -0.1528
     24 N          -2.3271    0.1359    0.6985 N.3     1  UNL1       -0.1703
     25 C          -1.8880   -1.2846    0.6832 C.3     1  UNL1        0.0210
     26 C          -2.0151   -1.6057    2.1563 C.3     1  UNL1       -0.0370
     27 C          -3.2296   -0.8214    2.5984 C.3     1  UNL1       -0.0313
     28 C          -3.6190   -0.0421    1.3313 C.3     1  UNL1        0.0659
     29 C          -4.1815    1.2944    1.7106 C.3     1  UNL1        0.1067
     30 O          -5.4022    1.2706    2.3421 O.3     1  UNL1       -0.4904
     31 C          -6.6182    0.8581    1.9366 C.ar    1  UNL1        0.1206
     32 C          -7.6948    0.9349    2.8285 C.ar    1  UNL1       -0.0199
     33 C          -8.9662    0.5411    2.5040 C.ar    1  UNL1       -0.0583
     34 C          -9.2569    0.0386    1.2567 C.ar    1  UNL1       -0.0615
     35 C          -8.2205   -0.0483    0.3602 C.ar    1  UNL1       -0.0583
     36 C          -6.9229    0.3556    0.6960 C.ar    1  UNL1       -0.0199
     37 C          -0.4684   -0.6092   -2.2546 C.ar    1  UNL1       -0.0226
     38 C           0.8255   -0.6661   -2.7908 C.ar    1  UNL1        0.0502
     39 H           3.7931    1.9689   -3.5166 H       1  UNL1        0.0518
     40 H           4.6986    0.6912   -4.3928 H       1  UNL1        0.0518
     41 H           4.2099    2.2301   -1.0564 H       1  UNL1        0.0622
     42 H           5.7717    1.8620    0.7833 H       1  UNL1        0.0654
     43 H           8.9405    0.0236    2.4966 H       1  UNL1        0.0723
     44 H           8.1310    1.5854    2.0819 H       1  UNL1        0.0723
     45 H           6.7209   -0.9235    3.0656 H       1  UNL1        0.0649
     46 H           5.9184    0.6565    2.6929 H       1  UNL1        0.0649
     47 H           7.6855   -1.2389   -1.4158 H       1  UNL1        0.0654
     48 H           6.0902   -0.8372   -3.3027 H       1  UNL1        0.0622
     49 H           2.0168    2.3406   -2.0116 H       1  UNL1        0.0637
     50 H          -0.2685    2.5293   -1.0270 H       1  UNL1        0.0638
     51 H          -0.8720   -1.3708    0.2990 H       1  UNL1        0.0444
     52 H          -2.6361   -1.9101    0.1533 H       1  UNL1        0.0444
     53 H          -2.0913   -2.6828    2.3613 H       1  UNL1        0.0279
     54 H          -1.1034   -1.1573    2.6473 H       1  UNL1        0.0279
     55 H          -4.0616   -1.4754    2.9214 H       1  UNL1        0.0282
     56 H          -2.9965   -0.1076    3.3902 H       1  UNL1        0.0282
     57 H          -4.2420   -0.6660    0.6948 H       1  UNL1        0.0513
     58 H          -4.1956    1.9298    0.7764 H       1  UNL1        0.0713
     59 H          -3.4689    1.8608    2.3803 H       1  UNL1        0.0713
     60 H          -7.4832    1.3329    3.8279 H       1  UNL1        0.0654
     61 H          -9.7883    0.6090    3.2112 H       1  UNL1        0.0619
     62 H         -10.2546   -0.2716    0.9994 H       1  UNL1        0.0618
     63 H          -8.4366   -0.4451   -0.6332 H       1  UNL1        0.0619
     64 H          -6.1790    0.2689   -0.0664 H       1  UNL1        0.0654
     65 H          -1.1196   -1.4547   -2.3487 H       1  UNL1        0.0645
@<TRIPOS>BOND
     1     1     2    2
     2     2     3    1
     3     3     4    2
     4     3     5   am
     5     5     6    1
     6     6     7    1
     7     7     8   ar
     8     8     9   ar
     9     9    10   ar
    10    10    11    1
    11    11    12    1
    12    12    13    1
    13    13    14    1
    14    10    15   ar
    15    15    16   ar
    16     5    17    1
    17    17    18   ar
    18    18    19   ar
    19    19    20   ar
    20    20    21    1
    21    21    22    2
    22    21    23    2
    23    21    24    1
    24    24    25    1
    25    25    26    1
    26    26    27    1
    27    27    28    1
    28    28    29    1
    29    29    30    1
    30    30    31    1
    31    31    32   ar
    32    32    33   ar
    33    33    34   ar
    34    34    35   ar
    35    35    36   ar
    36    20    37   ar
    37    37    38   ar
    38    38     2    1
    39    16     7   ar
    40    38    17   ar
    41    28    24    1
    42    36    31   ar
    43     6    39    1
    44     6    40    1
    45     8    41    1
    46     9    42    1
    47    12    43    1
    48    12    44    1
    49    13    45    1
    50    13    46    1
    51    15    47    1
    52    16    48    1
    53    18    49    1
    54    19    50    1
    55    25    51    1
    56    25    52    1
    57    26    53    1
    58    26    54    1
    59    27    55    1
    60    27    56    1
    61    28    57    1
    62    29    58    1
    63    29    59    1
    64    32    60    1
    65    33    61    1
    66    34    62    1
    67    35    63    1
    68    36    64    1
    69    37    65    1
