
     RDKit          3D

 26 26  0  0  0  0  0  0  0  0999 V2000
   -3.4107   -0.4369   -1.4434 C   0  0  0  0  0  0  0  0  0  0  0  0
   -3.0187    0.3985   -0.2979 N   0  0  0  0  0  0  0  0  0  0  0  0
   -3.6952    1.3645    0.5435 C   0  0  0  0  0  0  0  0  0  0  0  0
   -1.6783    0.2350    0.0839 C   0  0  0  0  0  0  0  0  0  0  0  0
   -0.9664    0.7459    0.9864 O   0  0  0  0  0  0  0  0  0  0  0  0
   -0.7328   -0.6175   -0.5098 O   0  0  0  0  0  0  0  0  0  0  0  0
    0.5774   -0.6792   -0.0217 C   0  0  0  0  0  0  0  0  0  0  0  0
    1.5660    0.1636   -0.5189 C   0  0  0  0  0  0  0  0  0  0  0  0
    2.8217    0.0851   -0.0321 N   0  0  0  0  0  4  0  0  0  0  0  0
    3.8524    0.9676   -0.5542 C   0  0  0  0  0  0  0  0  0  0  0  0
    3.1299   -0.8074    0.9374 C   0  0  0  0  0  0  0  0  0  0  0  0
    2.1878   -1.6688    1.4679 C   0  0  0  0  0  0  0  0  0  0  0  0
    0.9109   -1.5965    0.9802 C   0  0  0  0  0  0  0  0  0  0  0  0
   -2.8062   -0.1432   -2.3141 H   0  0  0  0  0  0  0  0  0  0  0  0
   -3.1316   -1.4807   -1.1150 H   0  0  0  0  0  0  0  0  0  0  0  0
   -4.5010   -0.3340   -1.5841 H   0  0  0  0  0  0  0  0  0  0  0  0
   -4.7802    1.3160    0.3649 H   0  0  0  0  0  0  0  0  0  0  0  0
   -3.3792    2.4095    0.3236 H   0  0  0  0  0  0  0  0  0  0  0  0
   -3.5647    1.0817    1.6166 H   0  0  0  0  0  0  0  0  0  0  0  0
    1.3604    0.8756   -1.2791 H   0  0  0  0  0  0  0  0  0  0  0  0
    4.4844    1.2656    0.3287 H   0  0  0  0  0  0  0  0  0  0  0  0
    4.5593    0.4048   -1.2212 H   0  0  0  0  0  0  0  0  0  0  0  0
    3.4556    1.8751   -1.0106 H   0  0  0  0  0  0  0  0  0  0  0  0
    4.1600   -0.8103    1.2768 H   0  0  0  0  0  0  0  0  0  0  0  0
    2.4625   -2.3732    2.2433 H   0  0  0  0  0  0  0  0  0  0  0  0
    0.1366   -2.2408    1.3543 H   0  0  0  0  0  0  0  0  0  0  0  0
  1  2  1  0
  2  3  1  0
  2  4  1  0
  4  5  2  0
  4  6  1  0
  6  7  1  0
  7  8  2  0
  8  9  1  0
  9 10  1  0
  9 11  2  0
 11 12  1  0
 12 13  2  0
 13  7  1  0
  1 14  1  0
  1 15  1  0
  1 16  1  0
  3 17  1  0
  3 18  1  0
  3 19  1  0
  8 20  1  0
 10 21  1  0
 10 22  1  0
 10 23  1  0
 11 24  1  0
 12 25  1  0
 13 26  1  0
M  CHG  1   9   1
M  END
$$$$
