@<TRIPOS>MOLECULE
*****
 40 41 0 0 0
SMALL
GASTEIGER

@<TRIPOS>ATOM
      1 C          -6.7289    0.8655   -0.7867 C.3     1  UNL1       -0.0135
      2 S          -5.3431    1.9402   -0.3465 S.3     1  UNL1       -0.1285
      3 C          -4.0908    1.0177    0.5265 C.ar    1  UNL1        0.0111
      4 C          -3.0999    0.4281   -0.2055 C.ar    1  UNL1       -0.0048
      5 C          -2.0904   -0.2836    0.3533 C.ar    1  UNL1        0.1612
      6 N          -0.9547   -0.9720   -0.1284 N.pl3   1  UNL1       -0.0713
      7 C          -0.0751   -0.3245   -0.8007 C.cat   1  UNL1        0.3914
      8 N          -0.4007    1.0532   -0.9677 N.pl3   1  UNL1       -0.2883
      9 N           0.9439   -1.3019   -1.1107 N.pl3   1  UNL1       -0.2322
     10 C           0.6973   -2.4636   -1.9417 C.3     1  UNL1        0.0614
     11 C           2.2101   -1.0373   -0.5184 C.ar    1  UNL1        0.1035
     12 C           2.4816    0.0710    0.2609 C.ar    1  UNL1       -0.0096
     13 C           3.6630    0.3671    0.8539 C.ar    1  UNL1        0.0109
     14 S           3.7489    1.8694    1.8143 S.3     1  UNL1       -0.1285
     15 C           5.3490    2.1503    2.5565 C.3     1  UNL1       -0.0135
     16 C           4.7201   -0.5274    0.6676 C.ar    1  UNL1       -0.0481
     17 C           4.5208   -1.6719   -0.1087 C.ar    1  UNL1       -0.0575
     18 C           3.2654   -1.9046   -0.6875 C.ar    1  UNL1       -0.0230
     19 C          -2.1219   -0.3841    1.7542 C.ar    1  UNL1        0.0829
     20 CL         -0.9360   -1.2435    2.7488 Cl      1  UNL1       -0.0799
     21 C          -3.1171    0.2051    2.5086 C.ar    1  UNL1       -0.0389
     22 C          -4.1400    0.9302    1.9056 C.ar    1  UNL1       -0.0467
     23 H          -7.4399    1.4287   -1.4339 H       1  UNL1        0.0344
     24 H          -6.3238   -0.0086   -1.3189 H       1  UNL1        0.0344
     25 H          -7.2513    0.5929    0.1632 H       1  UNL1        0.0344
     26 H          -2.9892    0.4451   -1.2883 H       1  UNL1        0.0665
     27 H          -0.5539    1.6635   -1.8159 H       1  UNL1        0.2547
     28 H          -0.5237    1.6133   -0.0915 H       1  UNL1        0.2547
     29 H           0.9108   -3.3596   -1.3317 H       1  UNL1        0.0624
     30 H           1.3394   -2.4050   -2.8388 H       1  UNL1        0.0624
     31 H          -0.3627   -2.5112   -2.2652 H       1  UNL1        0.0624
     32 H           1.6432    0.7432    0.3877 H       1  UNL1        0.0663
     33 H           5.2932    3.1594    3.0598 H       1  UNL1        0.0344
     34 H           5.6541    1.3970    3.3076 H       1  UNL1        0.0344
     35 H           6.0949    2.3011    1.7428 H       1  UNL1        0.0344
     36 H           5.6664   -0.2729    1.1513 H       1  UNL1        0.0629
     37 H           5.3678   -2.3610   -0.2388 H       1  UNL1        0.0619
     38 H           3.1120   -2.7924   -1.2888 H       1  UNL1        0.0652
     39 H          -3.1871    0.1628    3.5817 H       1  UNL1        0.0634
     40 H          -4.9516    1.4204    2.4208 H       1  UNL1        0.0629
@<TRIPOS>BOND
     1     1     2    1
     2     2     3    1
     3     3     4   ar
     4     4     5   ar
     5     5     6    1
     6     6     7    2
     7     7     8    1
     8     7     9    1
     9     9    10    1
    10     9    11    1
    11    11    12   ar
    12    12    13   ar
    13    13    14    1
    14    14    15    1
    15    13    16   ar
    16    16    17   ar
    17    17    18   ar
    18     5    19   ar
    19    19    20    1
    20    19    21   ar
    21    21    22   ar
    22    22     3   ar
    23    18    11   ar
    24     1    23    1
    25     1    24    1
    26     1    25    1
    27     4    26    1
    28     8    27    1
    29     8    28    1
    30    10    29    1
    31    10    30    1
    32    10    31    1
    33    12    32    1
    34    15    33    1
    35    15    34    1
    36    15    35    1
    37    16    36    1
    38    17    37    1
    39    18    38    1
    40    21    39    1
    41    22    40    1
