
     RDKit          3D

 35 37  0  0  0  0  0  0  0  0999 V2000
   -5.7370   -0.5516    0.5447 C   0  0  0  0  0  0  0  0  0  0  0  0
   -5.5631    0.4149   -0.4143 C   0  0  0  0  0  0  0  0  0  0  0  0
   -4.2860    0.8375   -0.7984 C   0  0  0  0  0  0  0  0  0  0  0  0
   -3.1848    0.2928   -0.2227 C   0  0  0  0  0  0  0  0  0  0  0  0
   -1.7843    0.6696   -0.5595 C   0  0  0  0  0  0  0  0  0  0  0  0
   -1.2115   -0.1568   -1.6573 C   0  0  0  0  0  0  0  0  0  0  0  0
    0.0717    0.1947   -1.9601 O   0  0  0  0  0  0  0  0  0  0  0  0
    1.2675    0.1962   -1.3404 C   0  0  0  0  0  0  0  0  0  0  0  0
    2.3511    0.7037   -2.0886 C   0  0  0  0  0  0  0  0  0  0  0  0
    3.5862    0.7252   -1.5067 C   0  0  0  0  0  0  0  0  0  0  0  0
    3.8300    0.2757   -0.2230 C   0  0  0  0  0  0  0  0  0  0  0  0
    2.7592   -0.2122    0.4800 C   0  0  0  0  0  0  0  0  0  0  0  0
    1.4859   -0.2587   -0.0584 C   0  0  0  0  0  0  0  0  0  0  0  0
    2.9588   -0.6735    1.7714 O   0  0  0  0  0  0  0  0  0  0  0  0
    4.1724   -0.5029    2.4701 C   0  0  0  0  0  0  0  0  0  0  0  0
    5.3549   -0.4387    1.5288 C   0  0  0  0  0  0  0  0  0  0  0  0
    5.0700    0.2960    0.3657 O   0  0  0  0  0  0  0  0  0  0  0  0
   -3.3588   -0.6781    0.7407 C   0  0  0  0  0  0  0  0  0  0  0  0
   -4.6295   -1.1016    1.1258 C   0  0  0  0  0  0  0  0  0  0  0  0
   -6.7076   -0.9080    0.8717 H   0  0  0  0  0  0  0  0  0  0  0  0
   -6.4422    0.8489   -0.8731 H   0  0  0  0  0  0  0  0  0  0  0  0
   -4.1504    1.6011   -1.5561 H   0  0  0  0  0  0  0  0  0  0  0  0
   -1.1988    0.5847    0.3478 H   0  0  0  0  0  0  0  0  0  0  0  0
   -1.8504    1.7152   -0.9472 H   0  0  0  0  0  0  0  0  0  0  0  0
   -1.8296   -0.0177   -2.6057 H   0  0  0  0  0  0  0  0  0  0  0  0
   -1.3513   -1.2639   -1.4682 H   0  0  0  0  0  0  0  0  0  0  0  0
    2.2012    1.0668   -3.1015 H   0  0  0  0  0  0  0  0  0  0  0  0
    4.4390    1.1155   -2.0720 H   0  0  0  0  0  0  0  0  0  0  0  0
    0.6676   -0.6796    0.5516 H   0  0  0  0  0  0  0  0  0  0  0  0
    4.1490    0.4642    3.0290 H   0  0  0  0  0  0  0  0  0  0  0  0
    4.3208   -1.3768    3.1327 H   0  0  0  0  0  0  0  0  0  0  0  0
    5.6576   -1.4928    1.3086 H   0  0  0  0  0  0  0  0  0  0  0  0
    6.2136    0.0252    2.0522 H   0  0  0  0  0  0  0  0  0  0  0  0
   -2.5271   -1.1579    1.2437 H   0  0  0  0  0  0  0  0  0  0  0  0
   -4.7443   -1.8701    1.8890 H   0  0  0  0  0  0  0  0  0  0  0  0
  1  2  2  0
  2  3  1  0
  3  4  2  0
  4  5  1  0
  5  6  1  0
  6  7  1  0
  7  8  1  0
  8  9  2  0
  9 10  1  0
 10 11  2  0
 11 12  1  0
 12 13  2  0
 12 14  1  0
 14 15  1  0
 15 16  1  0
 16 17  1  0
  4 18  1  0
 18 19  2  0
 19  1  1  0
 13  8  1  0
 17 11  1  0
  1 20  1  0
  2 21  1  0
  3 22  1  0
  5 23  1  0
  5 24  1  0
  6 25  1  0
  6 26  1  0
  9 27  1  0
 10 28  1  0
 13 29  1  0
 15 30  1  0
 15 31  1  0
 16 32  1  0
 16 33  1  0
 18 34  1  0
 19 35  1  0
M  END
$$$$
