@<TRIPOS>MOLECULE
*****
 35 37 0 0 0
SMALL
GASTEIGER

@<TRIPOS>ATOM
      1 C          -5.7370   -0.5516    0.5447 C.ar    1  UNL1       -0.0617
      2 C          -5.5631    0.4149   -0.4143 C.ar    1  UNL1       -0.0615
      3 C          -4.2860    0.8375   -0.7984 C.ar    1  UNL1       -0.0585
      4 C          -3.1848    0.2928   -0.2227 C.ar    1  UNL1       -0.0442
      5 C          -1.7843    0.6696   -0.5595 C.3     1  UNL1        0.0066
      6 C          -1.2115   -0.1568   -1.6573 C.3     1  UNL1        0.0935
      7 O           0.0717    0.1947   -1.9601 O.3     1  UNL1       -0.4915
      8 C           1.2675    0.1962   -1.3404 C.ar    1  UNL1        0.1242
      9 C           2.3511    0.7037   -2.0886 C.ar    1  UNL1       -0.0162
     10 C           3.5862    0.7252   -1.5067 C.ar    1  UNL1       -0.0128
     11 C           3.8300    0.2757   -0.2230 C.ar    1  UNL1        0.1623
     12 C           2.7592   -0.2122    0.4800 C.ar    1  UNL1        0.1655
     13 C           1.4859   -0.2587   -0.0584 C.ar    1  UNL1        0.0254
     14 O           2.9588   -0.6735    1.7714 O.3     1  UNL1       -0.4848
     15 C           4.1724   -0.5029    2.4701 C.3     1  UNL1        0.1237
     16 C           5.3549   -0.4387    1.5288 C.3     1  UNL1        0.1237
     17 O           5.0700    0.2960    0.3657 O.3     1  UNL1       -0.4849
     18 C          -3.3588   -0.6781    0.7407 C.ar    1  UNL1       -0.0585
     19 C          -4.6295   -1.1016    1.1258 C.ar    1  UNL1       -0.0615
     20 H          -6.7076   -0.9080    0.8717 H       1  UNL1        0.0618
     21 H          -6.4422    0.8489   -0.8731 H       1  UNL1        0.0618
     22 H          -4.1504    1.6011   -1.5561 H       1  UNL1        0.0620
     23 H          -1.1988    0.5847    0.3478 H       1  UNL1        0.0346
     24 H          -1.8504    1.7152   -0.9472 H       1  UNL1        0.0346
     25 H          -1.8296   -0.0177   -2.6057 H       1  UNL1        0.0700
     26 H          -1.3513   -1.2639   -1.4682 H       1  UNL1        0.0700
     27 H           2.2012    1.0668   -3.1015 H       1  UNL1        0.0655
     28 H           4.4390    1.1155   -2.0720 H       1  UNL1        0.0656
     29 H           0.6676   -0.6796    0.5516 H       1  UNL1        0.0692
     30 H           4.1490    0.4642    3.0290 H       1  UNL1        0.0731
     31 H           4.3208   -1.3768    3.1327 H       1  UNL1        0.0731
     32 H           5.6576   -1.4928    1.3086 H       1  UNL1        0.0731
     33 H           6.2136    0.0252    2.0522 H       1  UNL1        0.0731
     34 H          -2.5271   -1.1579    1.2437 H       1  UNL1        0.0620
     35 H          -4.7443   -1.8701    1.8890 H       1  UNL1        0.0618
@<TRIPOS>BOND
     1     1     2   ar
     2     2     3   ar
     3     3     4   ar
     4     4     5    1
     5     5     6    1
     6     6     7    1
     7     7     8    1
     8     8     9   ar
     9     9    10   ar
    10    10    11   ar
    11    11    12   ar
    12    12    13   ar
    13    12    14    1
    14    14    15    1
    15    15    16    1
    16    16    17    1
    17     4    18   ar
    18    18    19   ar
    19    19     1   ar
    20    13     8   ar
    21    17    11    1
    22     1    20    1
    23     2    21    1
    24     3    22    1
    25     5    23    1
    26     5    24    1
    27     6    25    1
    28     6    26    1
    29     9    27    1
    30    10    28    1
    31    13    29    1
    32    15    30    1
    33    15    31    1
    34    16    32    1
    35    16    33    1
    36    18    34    1
    37    19    35    1
