@<TRIPOS>MOLECULE
*****
 61 68 0 0 0
SMALL
GASTEIGER

@<TRIPOS>ATOM
      1 C          -4.5062    2.2766   -0.9681 C.3     1  UNL1       -0.0155
      2 N          -4.0793    0.8903   -0.9130 N.3     1  UNL1       -0.3136
      3 C          -3.0882    0.7781    0.1156 C.3     1  UNL1        0.0423
      4 C          -1.9317    1.6843   -0.2403 C.3     1  UNL1        0.0107
      5 C          -1.0096    1.6907    0.9570 C.3     1  UNL1        0.1402
      6 O          -1.1605    0.6391    1.7857 O.3     1  UNL1       -0.3282
      7 C          -1.4169   -0.6142    1.2268 C.3     1  UNL1        0.1741
      8 C          -1.8594   -1.4426    2.4477 C.3     1  UNL1       -0.0136
      9 C          -2.5375   -0.6266    0.2433 C.3     1  UNL1        0.1214
     10 O          -2.1783   -1.1460   -0.9996 O.3     1  UNL1       -0.3735
     11 C          -2.9983   -2.1978   -1.3949 C.3     1  UNL1        0.0371
     12 N          -0.1864   -1.1941    0.7068 N.ar    1  UNL1       -0.3070
     13 C           0.1044   -2.5260    0.5856 C.ar    1  UNL1        0.0527
     14 C          -0.6290   -3.6446    0.8384 C.ar    1  UNL1       -0.0375
     15 C          -0.1404   -4.9273    0.6325 C.ar    1  UNL1       -0.0598
     16 C           1.1373   -5.0755    0.1523 C.ar    1  UNL1       -0.0611
     17 C           1.8986   -3.9437   -0.1122 C.ar    1  UNL1       -0.0520
     18 C           1.3808   -2.6884    0.1042 C.ar    1  UNL1        0.0081
     19 C           1.9173   -1.4342   -0.0917 C.ar    1  UNL1        0.0151
     20 C           3.1378   -0.9696   -0.5583 C.ar    1  UNL1       -0.0078
     21 C           3.4159    0.3894   -0.6678 C.ar    1  UNL1        0.0518
     22 C           2.4081    1.2457   -0.2871 C.ar    1  UNL1        0.0221
     23 C           2.3262    2.6259   -0.2832 C.ar    1  UNL1        0.0085
     24 C           3.1440    3.6558   -0.6088 C.ar    1  UNL1       -0.0520
     25 C           2.6907    4.9659   -0.4655 C.ar    1  UNL1       -0.0611
     26 C           1.4252    5.2423    0.0016 C.ar    1  UNL1       -0.0598
     27 C           0.5841    4.2246    0.3357 C.ar    1  UNL1       -0.0375
     28 C           1.0501    2.9136    0.1876 C.ar    1  UNL1        0.0524
     29 N           0.3758    1.8086    0.4614 N.ar    1  UNL1       -0.3115
     30 C           1.1851    0.7772    0.1813 C.ar    1  UNL1        0.0774
     31 C           0.9405   -0.5635    0.2813 C.ar    1  UNL1        0.0772
     32 C           4.7632    0.5636   -1.1801 C.2     1  UNL1        0.2453
     33 O           5.4157    1.5908   -1.4309 O.2     1  UNL1       -0.2702
     34 N           5.2989   -0.7435   -1.3800 N.am    1  UNL1       -0.3072
     35 C           4.3366   -1.7318   -1.0135 C.3     1  UNL1        0.0385
     36 H          -4.0071    2.8380   -1.7746 H       1  UNL1        0.0388
     37 H          -4.3438    2.7549    0.0357 H       1  UNL1        0.0388
     38 H          -5.6022    2.3708   -1.1512 H       1  UNL1        0.0388
     39 H          -4.9153    0.3341   -0.6022 H       1  UNL1        0.1220
     40 H          -3.4708    1.0853    1.0911 H       1  UNL1        0.0489
     41 H          -2.3596    2.6869   -0.4521 H       1  UNL1        0.0325
     42 H          -1.3968    1.3637   -1.1514 H       1  UNL1        0.0325
     43 H          -1.2210    2.6234    1.5197 H       1  UNL1        0.0839
     44 H          -1.0514   -2.0673    2.8492 H       1  UNL1        0.0277
     45 H          -2.0930   -0.7450    3.3277 H       1  UNL1        0.0277
     46 H          -2.8332   -1.9367    2.2897 H       1  UNL1        0.0277
     47 H          -3.4231   -1.2414    0.5838 H       1  UNL1        0.0660
     48 H          -2.9990   -3.0539   -0.7198 H       1  UNL1        0.0524
     49 H          -4.0482   -1.8280   -1.4442 H       1  UNL1        0.0524
     50 H          -2.7350   -2.5284   -2.4002 H       1  UNL1        0.0524
     51 H          -1.6408   -3.5431    1.1931 H       1  UNL1        0.0638
     52 H          -0.7501   -5.8093    0.8445 H       1  UNL1        0.0618
     53 H           1.5912   -6.0505   -0.0348 H       1  UNL1        0.0618
     54 H           2.9016   -4.0521   -0.4895 H       1  UNL1        0.0624
     55 H           4.1143    3.5168   -0.9682 H       1  UNL1        0.0624
     56 H           3.3501    5.7801   -0.7277 H       1  UNL1        0.0618
     57 H           1.0987    6.2746    0.1030 H       1  UNL1        0.0618
     58 H          -0.4218    4.4112    0.7075 H       1  UNL1        0.0638
     59 H           6.2449   -0.9562   -1.7377 H       1  UNL1        0.1493
     60 H           4.7407   -2.2967   -0.1282 H       1  UNL1        0.0512
     61 H           4.0560   -2.4244   -1.8261 H       1  UNL1        0.0512
@<TRIPOS>BOND
     1     1     2    1
     2     2     3    1
     3     3     4    1
     4     4     5    1
     5     5     6    1
     6     6     7    1
     7     7     8    1
     8     7     9    1
     9     9    10    1
    10    10    11    1
    11     7    12    1
    12    12    13   ar
    13    13    14   ar
    14    14    15   ar
    15    15    16   ar
    16    16    17   ar
    17    17    18   ar
    18    18    19   ar
    19    19    20   ar
    20    20    21   ar
    21    21    22   ar
    22    22    23   ar
    23    23    24   ar
    24    24    25   ar
    25    25    26   ar
    26    26    27   ar
    27    27    28   ar
    28    28    29   ar
    29    29    30   ar
    30    30    31   ar
    31    21    32    1
    32    32    33    2
    33    32    34   am
    34    34    35    1
    35     9     3    1
    36    31    12   ar
    37    29     5    1
    38    18    13   ar
    39    31    19   ar
    40    35    20    1
    41    30    22   ar
    42    28    23   ar
    43     1    36    1
    44     1    37    1
    45     1    38    1
    46     2    39    1
    47     3    40    1
    48     4    41    1
    49     4    42    1
    50     5    43    1
    51     8    44    1
    52     8    45    1
    53     8    46    1
    54     9    47    1
    55    11    48    1
    56    11    49    1
    57    11    50    1
    58    14    51    1
    59    15    52    1
    60    16    53    1
    61    17    54    1
    62    24    55    1
    63    25    56    1
    64    26    57    1
    65    27    58    1
    66    34    59    1
    67    35    60    1
    68    35    61    1
