@<TRIPOS>MOLECULE
*****
 72 74 0 0 0
SMALL
GASTEIGER

@<TRIPOS>ATOM
      1 C          -0.9437   -4.9185   -1.3553 C.3     1  UNL1       -0.0457
      2 C          -1.6166   -4.2801   -0.1603 C.3     1  UNL1        0.0629
      3 S          -1.4588   -2.4777   -0.2602 S.O2    1  UNL1       -0.0309
      4 O          -2.0613   -2.1067   -1.5788 O.2     1  UNL1       -0.1744
      5 O           0.0156   -2.2495   -0.3726 O.2     1  UNL1       -0.1744
      6 C          -2.2397   -1.8065    1.1223 C.3     1  UNL1        0.0703
      7 C          -2.3125   -0.3653    1.3411 C.3     1  UNL1       -0.0016
      8 C          -2.9839    0.4698    0.2778 C.3     1  UNL1       -0.0313
      9 C          -3.4826    1.7401    0.9643 C.3     1  UNL1        0.0108
     10 N          -4.0591    2.6277    0.0121 N.3     1  UNL1       -0.3000
     11 C          -4.5618    3.8244    0.5935 C.3     1  UNL1       -0.0122
     12 C          -4.8494    2.0416   -1.0168 C.3     1  UNL1        0.0048
     13 C          -6.0508    1.3297   -0.4391 C.3     1  UNL1       -0.0497
     14 C          -5.3474    3.0782   -2.0191 C.3     1  UNL1       -0.0497
     15 C          -2.4492    2.4536    1.7659 C.3     1  UNL1       -0.0356
     16 C          -1.5405    1.6409    2.5942 C.3     1  UNL1       -0.0326
     17 C          -1.1513    0.2894    1.9908 C.3     1  UNL1        0.0304
     18 N           0.0405    0.4411    1.1774 N.am    1  UNL1       -0.2965
     19 C           0.2082    1.1247   -0.0801 C.3     1  UNL1        0.0172
     20 C           1.6266    1.6460   -0.1448 C.3     1  UNL1       -0.0101
     21 C           2.3572    0.7193    0.7664 C.3     1  UNL1        0.1013
     22 N           3.2963   -0.0714    0.0023 N.am    1  UNL1       -0.3000
     23 C           4.6942   -0.0238    0.1849 C.2     1  UNL1        0.2447
     24 O           5.1043    0.7791    1.0881 O.2     1  UNL1       -0.2702
     25 C           5.6676   -0.8007   -0.5606 C.ar    1  UNL1        0.0372
     26 C           5.3193   -1.6932   -1.5476 C.ar    1  UNL1       -0.0496
     27 C           6.2731   -2.4250   -2.2460 C.ar    1  UNL1       -0.0605
     28 C           7.6111   -2.2788   -1.9696 C.ar    1  UNL1       -0.0501
     29 C           7.9782   -1.3881   -0.9827 C.ar    1  UNL1        0.0555
     30 C           9.4251   -1.2290   -0.6841 C.3     1  UNL1        0.4174
     31 F           9.8535   -2.0625    0.3291 F       1  UNL1       -0.1659
     32 F          10.1658   -1.5264   -1.8100 F       1  UNL1       -0.1659
     33 F           9.7206    0.0997   -0.3603 F       1  UNL1       -0.1659
     34 C           7.0108   -0.6597   -0.2892 C.ar    1  UNL1       -0.0380
     35 C           1.3498   -0.0814    1.4867 C.2     1  UNL1        0.2362
     36 O           1.5945   -1.0456    2.2352 O.2     1  UNL1       -0.2736
     37 H          -1.6479   -4.9489   -2.1962 H       1  UNL1        0.0245
     38 H          -0.5769   -5.9153   -1.0489 H       1  UNL1        0.0245
     39 H          -0.0814   -4.2459   -1.6369 H       1  UNL1        0.0245
     40 H          -2.7003   -4.5445   -0.1153 H       1  UNL1        0.0497
     41 H          -1.1441   -4.6671    0.7435 H       1  UNL1        0.0497
     42 H          -3.2699   -2.2925    1.1909 H       1  UNL1        0.0503
     43 H          -1.7358   -2.2774    2.0305 H       1  UNL1        0.0503
     44 H          -3.1239   -0.2688    2.1973 H       1  UNL1        0.0335
     45 H          -2.3757    0.6596   -0.6038 H       1  UNL1        0.0284
     46 H          -3.9432   -0.0741    0.0274 H       1  UNL1        0.0284
     47 H          -4.2761    1.4120    1.6727 H       1  UNL1        0.0463
     48 H          -5.4188    4.2268    0.0223 H       1  UNL1        0.0391
     49 H          -4.9380    3.6215    1.6216 H       1  UNL1        0.0391
     50 H          -3.7860    4.6163    0.6860 H       1  UNL1        0.0391
     51 H          -4.2822    1.2966   -1.6176 H       1  UNL1        0.0457
     52 H          -6.9947    1.8389   -0.7607 H       1  UNL1        0.0245
     53 H          -6.1438    0.2842   -0.8501 H       1  UNL1        0.0245
     54 H          -6.0062    1.2085    0.6577 H       1  UNL1        0.0245
     55 H          -5.5509    2.5706   -2.9677 H       1  UNL1        0.0245
     56 H          -4.6136    3.8859   -2.1588 H       1  UNL1        0.0245
     57 H          -6.3313    3.4416   -1.6201 H       1  UNL1        0.0245
     58 H          -1.9450    3.2485    1.1385 H       1  UNL1        0.0281
     59 H          -3.0408    3.1018    2.4921 H       1  UNL1        0.0281
     60 H          -1.9524    1.4958    3.6147 H       1  UNL1        0.0284
     61 H          -0.5817    2.1901    2.7326 H       1  UNL1        0.0284
     62 H          -0.8870   -0.3230    2.8839 H       1  UNL1        0.0504
     63 H          -0.4437    2.0074   -0.2103 H       1  UNL1        0.0465
     64 H           0.0925    0.4122   -0.9196 H       1  UNL1        0.0465
     65 H           1.7101    2.7210    0.1351 H       1  UNL1        0.0303
     66 H           2.0358    1.5896   -1.1949 H       1  UNL1        0.0303
     67 H           2.8733    1.3589    1.5240 H       1  UNL1        0.0595
     68 H           2.9262   -0.7162   -0.7276 H       1  UNL1        0.1498
     69 H           4.2698   -1.8132   -1.7712 H       1  UNL1        0.0625
     70 H           5.9742   -3.1180   -3.0148 H       1  UNL1        0.0618
     71 H           8.3831   -2.8431   -2.5048 H       1  UNL1        0.0623
     72 H           7.3224    0.0452    0.4941 H       1  UNL1        0.0631
@<TRIPOS>BOND
     1     1     2    1
     2     2     3    1
     3     3     4    2
     4     3     5    2
     5     3     6    1
     6     6     7    1
     7     7     8    1
     8     8     9    1
     9     9    10    1
    10    10    11    1
    11    10    12    1
    12    12    13    1
    13    12    14    1
    14     9    15    1
    15    15    16    1
    16    16    17    1
    17    17    18    1
    18    18    19    1
    19    19    20    1
    20    20    21    1
    21    21    22    1
    22    22    23   am
    23    23    24    2
    24    23    25    1
    25    25    26   ar
    26    26    27   ar
    27    27    28   ar
    28    28    29   ar
    29    29    30    1
    30    30    31    1
    31    30    32    1
    32    30    33    1
    33    29    34   ar
    34    21    35    1
    35    35    36    2
    36    17     7    1
    37    35    18   am
    38    34    25   ar
    39     1    37    1
    40     1    38    1
    41     1    39    1
    42     2    40    1
    43     2    41    1
    44     6    42    1
    45     6    43    1
    46     7    44    1
    47     8    45    1
    48     8    46    1
    49     9    47    1
    50    11    48    1
    51    11    49    1
    52    11    50    1
    53    12    51    1
    54    13    52    1
    55    13    53    1
    56    13    54    1
    57    14    55    1
    58    14    56    1
    59    14    57    1
    60    15    58    1
    61    15    59    1
    62    16    60    1
    63    16    61    1
    64    17    62    1
    65    19    63    1
    66    19    64    1
    67    20    65    1
    68    20    66    1
    69    21    67    1
    70    22    68    1
    71    26    69    1
    72    27    70    1
    73    28    71    1
    74    34    72    1
