
     RDKit          3D

 75 80  0  0  0  0  0  0  0  0999 V2000
    3.4480    2.9126    4.8518 C   0  0  0  0  0  0  0  0  0  0  0  0
    2.9585    1.5715    4.3804 C   0  0  0  0  0  0  0  0  0  0  0  0
    3.3017    0.4524    5.0318 N   0  0  0  0  0  0  0  0  0  0  0  0
    2.8916   -0.7662    4.6515 C   0  0  0  0  0  0  0  0  0  0  0  0
    2.0673   -0.8497    3.5184 C   0  0  0  0  0  0  0  0  0  0  0  0
    1.7076    0.2916    2.8404 C   0  0  0  0  0  0  0  0  0  0  0  0
    0.8630    0.1499    1.6840 N   0  0  0  0  0  0  0  0  0  0  0  0
   -0.5552    0.1583    1.6990 C   0  0  0  0  0  0  0  0  0  0  0  0
   -1.2268    0.1478    2.7826 O   0  0  0  0  0  0  0  0  0  0  0  0
   -1.1077    0.1794    0.3887 N   0  0  0  0  0  0  0  0  0  0  0  0
   -2.4818    0.1925    0.0104 C   0  0  0  0  0  0  0  0  0  0  0  0
   -3.2235    1.3347   -0.1882 C   0  0  0  0  0  0  0  0  0  0  0  0
   -4.5642    1.2765   -0.5554 C   0  0  0  0  0  0  0  0  0  0  0  0
   -5.1882    0.0535   -0.7310 C   0  0  0  0  0  0  0  0  0  0  0  0
   -6.5951    0.0663   -1.1121 C   0  0  0  0  0  0  0  0  0  0  0  0
   -7.5066    0.8969   -0.4508 C   0  0  0  0  0  0  0  0  0  0  0  0
   -8.8402    0.9232   -0.7893 C   0  0  0  0  0  0  0  0  0  0  0  0
   -9.3250    0.1266   -1.7980 C   0  0  0  0  0  0  0  0  0  0  0  0
  -10.7340    0.1398   -2.1711 C   0  0  0  0  0  0  0  0  0  0  0  0
  -11.5033    0.9062   -1.5420 O   0  0  0  0  0  0  0  0  0  0  0  0
  -11.2499   -0.6491   -3.1785 O   0  0  0  0  0  0  0  0  0  0  0  0
   -8.4457   -0.7098   -2.4747 C   0  0  0  0  0  0  0  0  0  0  0  0
   -7.1136   -0.7196   -2.1187 C   0  0  0  0  0  0  0  0  0  0  0  0
   -6.2248   -1.6370   -2.8885 C   0  0  0  0  0  0  0  0  0  0  0  0
   -4.4614   -1.0822   -0.5363 C   0  0  0  0  0  0  0  0  0  0  0  0
   -3.1321   -1.0114   -0.1722 C   0  0  0  0  0  0  0  0  0  0  0  0
    0.0342    0.1841   -0.4592 C   0  0  0  0  0  0  0  0  0  0  0  0
    0.0091    0.3452   -1.7226 O   0  0  0  0  0  0  0  0  0  0  0  0
    1.2744   -0.0239    0.3145 C   0  0  0  0  0  0  0  0  0  0  0  0
    2.3452    0.9647   -0.0898 C   0  0  0  0  0  0  0  0  0  0  0  0
    3.7353    0.4504    0.1433 C   0  0  0  0  0  0  0  0  0  0  0  0
    4.0127   -0.7511   -0.6222 N   0  0  0  0  0  0  0  0  0  0  0  0
    4.8792   -0.4550   -1.7506 C   0  0  0  0  0  0  0  0  0  0  0  0
    6.1677    0.1057   -1.3426 C   0  0  0  0  0  0  0  0  0  0  0  0
    6.4381    1.4113   -1.4717 N   0  0  0  0  0  0  0  0  0  0  0  0
    7.6359    1.9347   -1.0923 C   0  0  0  0  0  0  0  0  0  0  0  0
    8.6294    1.1418   -0.5554 C   0  0  0  0  0  0  0  0  0  0  0  0
    8.3728   -0.2027   -0.4138 C   0  0  0  0  0  0  0  0  0  0  0  0
    7.1470   -0.6995   -0.8092 C   0  0  0  0  0  0  0  0  0  0  0  0
    6.8677   -2.1432   -0.6587 C   0  0  0  0  0  0  0  0  0  0  0  0
    2.7638   -1.3072   -1.1345 C   0  0  0  0  0  0  0  0  0  0  0  0
    1.7775   -1.4214    0.0214 C   0  0  0  0  0  0  0  0  0  0  0  0
    2.1688    1.4581    3.2999 N   0  0  0  0  0  0  0  0  0  0  0  0
    3.7954    2.8186    5.8905 H   0  0  0  0  0  0  0  0  0  0  0  0
    2.6035    3.6174    4.7218 H   0  0  0  0  0  0  0  0  0  0  0  0
    4.2559    3.2500    4.1620 H   0  0  0  0  0  0  0  0  0  0  0  0
    3.1763   -1.6579    5.1865 H   0  0  0  0  0  0  0  0  0  0  0  0
    1.7495   -1.8227    3.2290 H   0  0  0  0  0  0  0  0  0  0  0  0
   -2.7225    2.2804   -0.0474 H   0  0  0  0  0  0  0  0  0  0  0  0
   -5.1366    2.1858   -0.7086 H   0  0  0  0  0  0  0  0  0  0  0  0
   -7.1473    1.5335    0.3470 H   0  0  0  0  0  0  0  0  0  0  0  0
   -9.5133    1.5830   -0.2504 H   0  0  0  0  0  0  0  0  0  0  0  0
  -12.2444   -0.8838   -3.1439 H   0  0  0  0  0  0  0  0  0  0  0  0
   -8.8262   -1.3396   -3.2716 H   0  0  0  0  0  0  0  0  0  0  0  0
   -6.3723   -2.6511   -2.4624 H   0  0  0  0  0  0  0  0  0  0  0  0
   -6.5977   -1.7315   -3.9524 H   0  0  0  0  0  0  0  0  0  0  0  0
   -5.1840   -1.3101   -2.9203 H   0  0  0  0  0  0  0  0  0  0  0  0
   -4.9188   -2.0489   -0.6621 H   0  0  0  0  0  0  0  0  0  0  0  0
   -2.5740   -1.9381   -0.0228 H   0  0  0  0  0  0  0  0  0  0  0  0
    2.2401    1.9348    0.4128 H   0  0  0  0  0  0  0  0  0  0  0  0
    2.2335    1.1583   -1.1762 H   0  0  0  0  0  0  0  0  0  0  0  0
    3.9560    0.3066    1.2286 H   0  0  0  0  0  0  0  0  0  0  0  0
    4.4372    1.2377   -0.2009 H   0  0  0  0  0  0  0  0  0  0  0  0
    4.3138    0.3032   -2.3683 H   0  0  0  0  0  0  0  0  0  0  0  0
    5.0097   -1.3252   -2.4146 H   0  0  0  0  0  0  0  0  0  0  0  0
    7.7646    3.0061   -1.2351 H   0  0  0  0  0  0  0  0  0  0  0  0
    9.5716    1.5861   -0.2627 H   0  0  0  0  0  0  0  0  0  0  0  0
    9.1424   -0.8257    0.0035 H   0  0  0  0  0  0  0  0  0  0  0  0
    7.7279   -2.7044   -0.2501 H   0  0  0  0  0  0  0  0  0  0  0  0
    6.6266   -2.5919   -1.6420 H   0  0  0  0  0  0  0  0  0  0  0  0
    6.0266   -2.2885    0.0711 H   0  0  0  0  0  0  0  0  0  0  0  0
    2.3245   -0.7264   -1.9461 H   0  0  0  0  0  0  0  0  0  0  0  0
    3.0103   -2.3163   -1.5471 H   0  0  0  0  0  0  0  0  0  0  0  0
    2.2903   -1.8771    0.8972 H   0  0  0  0  0  0  0  0  0  0  0  0
    0.9639   -2.1092   -0.2988 H   0  0  0  0  0  0  0  0  0  0  0  0
  1  2  1  0
  2  3  2  0
  3  4  1  0
  4  5  2  0
  5  6  1  0
  6  7  1  0
  7  8  1  0
  8  9  2  0
  8 10  1  0
 10 11  1  0
 11 12  2  0
 12 13  1  0
 13 14  2  0
 14 15  1  0
 15 16  2  0
 16 17  1  0
 17 18  2  0
 18 19  1  0
 19 20  2  0
 19 21  1  0
 18 22  1  0
 22 23  2  0
 23 24  1  0
 14 25  1  0
 25 26  2  0
 10 27  1  0
 27 28  2  0
 27 29  1  0
 29 30  1  0
 30 31  1  0
 31 32  1  0
 32 33  1  0
 33 34  1  0
 34 35  2  0
 35 36  1  0
 36 37  2  0
 37 38  1  0
 38 39  2  0
 39 40  1  0
 32 41  1  0
 41 42  1  0
  6 43  2  0
 43  2  1  0
 29  7  1  0
 39 34  1  0
 26 11  1  0
 42 29  1  0
 23 15  1  0
  1 44  1  0
  1 45  1  0
  1 46  1  0
  4 47  1  0
  5 48  1  0
 12 49  1  0
 13 50  1  0
 16 51  1  0
 17 52  1  0
 21 53  1  0
 22 54  1  0
 24 55  1  0
 24 56  1  0
 24 57  1  0
 25 58  1  0
 26 59  1  0
 30 60  1  0
 30 61  1  0
 31 62  1  0
 31 63  1  0
 33 64  1  0
 33 65  1  0
 36 66  1  0
 37 67  1  0
 38 68  1  0
 40 69  1  0
 40 70  1  0
 40 71  1  0
 41 72  1  0
 41 73  1  0
 42 74  1  0
 42 75  1  0
M  END
$$$$
