@<TRIPOS>MOLECULE
*****
 75 80 0 0 0
SMALL
GASTEIGER

@<TRIPOS>ATOM
      1 C           3.4480    2.9126    4.8518 C.3     1  UNL1       -0.0046
      2 C           2.9585    1.5715    4.3804 C.ar    1  UNL1        0.1280
      3 N           3.3017    0.4524    5.0318 N.ar    1  UNL1       -0.2405
      4 C           2.8916   -0.7662    4.6515 C.ar    1  UNL1        0.0329
      5 C           2.0673   -0.8497    3.5184 C.ar    1  UNL1       -0.0031
      6 C           1.7076    0.2916    2.8404 C.ar    1  UNL1        0.1331
      7 N           0.8630    0.1499    1.6840 N.am    1  UNL1       -0.2240
      8 C          -0.5552    0.1583    1.6990 C.2     1  UNL1        0.3219
      9 O          -1.2268    0.1478    2.7826 O.2     1  UNL1       -0.2512
     10 N          -1.1077    0.1794    0.3887 N.am    1  UNL1       -0.1920
     11 C          -2.4818    0.1925    0.0104 C.ar    1  UNL1        0.0455
     12 C          -3.2235    1.3347   -0.1882 C.ar    1  UNL1       -0.0392
     13 C          -4.5642    1.2765   -0.5554 C.ar    1  UNL1       -0.0523
     14 C          -5.1882    0.0535   -0.7310 C.ar    1  UNL1       -0.0175
     15 C          -6.5951    0.0663   -1.1121 C.ar    1  UNL1       -0.0149
     16 C          -7.5066    0.8969   -0.4508 C.ar    1  UNL1       -0.0530
     17 C          -8.8402    0.9232   -0.7893 C.ar    1  UNL1       -0.0472
     18 C          -9.3250    0.1266   -1.7980 C.ar    1  UNL1        0.0591
     19 C         -10.7340    0.1398   -2.1711 C.2     1  UNL1        0.3368
     20 O         -11.5033    0.9062   -1.5420 O.2     1  UNL1       -0.2451
     21 O         -11.2499   -0.6491   -3.1785 O.3     1  UNL1       -0.4771
     22 C          -8.4457   -0.7098   -2.4747 C.ar    1  UNL1       -0.0443
     23 C          -7.1136   -0.7196   -2.1187 C.ar    1  UNL1       -0.0420
     24 C          -6.2248   -1.6370   -2.8885 C.3     1  UNL1       -0.0391
     25 C          -4.4614   -1.0822   -0.5363 C.ar    1  UNL1       -0.0523
     26 C          -3.1321   -1.0114   -0.1722 C.ar    1  UNL1       -0.0392
     27 C           0.0342    0.1841   -0.4592 C.2     1  UNL1        0.2516
     28 O           0.0091    0.3452   -1.7226 O.2     1  UNL1       -0.2724
     29 C           1.2744   -0.0239    0.3145 C.3     1  UNL1        0.1240
     30 C           2.3452    0.9647   -0.0898 C.3     1  UNL1       -0.0095
     31 C           3.7353    0.4504    0.1433 C.3     1  UNL1        0.0017
     32 N           4.0127   -0.7511   -0.6222 N.3     1  UNL1       -0.2965
     33 C           4.8792   -0.4550   -1.7506 C.3     1  UNL1        0.0415
     34 C           6.1677    0.1057   -1.3426 C.ar    1  UNL1        0.0581
     35 N           6.4381    1.4113   -1.4717 N.ar    1  UNL1       -0.2583
     36 C           7.6359    1.9347   -1.0923 C.ar    1  UNL1        0.0279
     37 C           8.6294    1.1418   -0.5554 C.ar    1  UNL1       -0.0433
     38 C           8.3728   -0.2027   -0.4138 C.ar    1  UNL1       -0.0557
     39 C           7.1470   -0.6995   -0.8092 C.ar    1  UNL1       -0.0279
     40 C           6.8677   -2.1432   -0.6587 C.3     1  UNL1       -0.0380
     41 C           2.7638   -1.3072   -1.1345 C.3     1  UNL1        0.0017
     42 C           1.7775   -1.4214    0.0214 C.3     1  UNL1       -0.0095
     43 N           2.1688    1.4581    3.2999 N.ar    1  UNL1       -0.2172
     44 H           3.7954    2.8186    5.8905 H       1  UNL1        0.0308
     45 H           2.6035    3.6174    4.7218 H       1  UNL1        0.0308
     46 H           4.2559    3.2500    4.1620 H       1  UNL1        0.0308
     47 H           3.1763   -1.6579    5.1865 H       1  UNL1        0.0831
     48 H           1.7495   -1.8227    3.2290 H       1  UNL1        0.0667
     49 H          -2.7225    2.2804   -0.0474 H       1  UNL1        0.0636
     50 H          -5.1366    2.1858   -0.7086 H       1  UNL1        0.0624
     51 H          -7.1473    1.5335    0.3470 H       1  UNL1        0.0624
     52 H          -9.5133    1.5830   -0.2504 H       1  UNL1        0.0626
     53 H         -12.2444   -0.8838   -3.1439 H       1  UNL1        0.2954
     54 H          -8.8262   -1.3396   -3.2716 H       1  UNL1        0.0628
     55 H          -6.3723   -2.6511   -2.4624 H       1  UNL1        0.0278
     56 H          -6.5977   -1.7315   -3.9524 H       1  UNL1        0.0278
     57 H          -5.1840   -1.3101   -2.9203 H       1  UNL1        0.0278
     58 H          -4.9188   -2.0489   -0.6621 H       1  UNL1        0.0624
     59 H          -2.5740   -1.9381   -0.0228 H       1  UNL1        0.0636
     60 H           2.2401    1.9348    0.4128 H       1  UNL1        0.0303
     61 H           2.2335    1.1583   -1.1762 H       1  UNL1        0.0303
     62 H           3.9560    0.3066    1.2286 H       1  UNL1        0.0427
     63 H           4.4372    1.2377   -0.2009 H       1  UNL1        0.0427
     64 H           4.3138    0.3032   -2.3683 H       1  UNL1        0.0491
     65 H           5.0097   -1.3252   -2.4146 H       1  UNL1        0.0491
     66 H           7.7646    3.0061   -1.2351 H       1  UNL1        0.0829
     67 H           9.5716    1.5861   -0.2627 H       1  UNL1        0.0633
     68 H           9.1424   -0.8257    0.0035 H       1  UNL1        0.0621
     69 H           7.7279   -2.7044   -0.2501 H       1  UNL1        0.0278
     70 H           6.6266   -2.5919   -1.6420 H       1  UNL1        0.0278
     71 H           6.0266   -2.2885    0.0711 H       1  UNL1        0.0278
     72 H           2.3245   -0.7264   -1.9461 H       1  UNL1        0.0427
     73 H           3.0103   -2.3163   -1.5471 H       1  UNL1        0.0427
     74 H           2.2903   -1.8771    0.8972 H       1  UNL1        0.0303
     75 H           0.9639   -2.1092   -0.2988 H       1  UNL1        0.0303
@<TRIPOS>BOND
     1     1     2    1
     2     2     3   ar
     3     3     4   ar
     4     4     5   ar
     5     5     6   ar
     6     6     7    1
     7     7     8   am
     8     8     9    2
     9     8    10   am
    10    10    11    1
    11    11    12   ar
    12    12    13   ar
    13    13    14   ar
    14    14    15    1
    15    15    16   ar
    16    16    17   ar
    17    17    18   ar
    18    18    19    1
    19    19    20    2
    20    19    21    1
    21    18    22   ar
    22    22    23   ar
    23    23    24    1
    24    14    25   ar
    25    25    26   ar
    26    10    27   am
    27    27    28    2
    28    27    29    1
    29    29    30    1
    30    30    31    1
    31    31    32    1
    32    32    33    1
    33    33    34    1
    34    34    35   ar
    35    35    36   ar
    36    36    37   ar
    37    37    38   ar
    38    38    39   ar
    39    39    40    1
    40    32    41    1
    41    41    42    1
    42     6    43   ar
    43    43     2   ar
    44    29     7    1
    45    39    34   ar
    46    26    11   ar
    47    42    29    1
    48    23    15   ar
    49     1    44    1
    50     1    45    1
    51     1    46    1
    52     4    47    1
    53     5    48    1
    54    12    49    1
    55    13    50    1
    56    16    51    1
    57    17    52    1
    58    21    53    1
    59    22    54    1
    60    24    55    1
    61    24    56    1
    62    24    57    1
    63    25    58    1
    64    26    59    1
    65    30    60    1
    66    30    61    1
    67    31    62    1
    68    31    63    1
    69    33    64    1
    70    33    65    1
    71    36    66    1
    72    37    67    1
    73    38    68    1
    74    40    69    1
    75    40    70    1
    76    40    71    1
    77    41    72    1
    78    41    73    1
    79    42    74    1
    80    42    75    1
