@<TRIPOS>MOLECULE
*****
 29 28 0 0 0
SMALL
GASTEIGER

@<TRIPOS>ATOM
      1 C           5.1870    0.4288    0.7118 C.3     1  UNL1       -0.0416
      2 C           3.6795    0.3426    1.0168 C.3     1  UNL1        0.0449
      3 O           3.1438   -0.3929    0.0112 O.3     1  UNL1       -0.3778
      4 C           1.8084   -0.6586    0.0228 C.3     1  UNL1        0.0710
      5 C           1.0218    0.6183   -0.0183 C.3     1  UNL1        0.0711
      6 O          -0.3421    0.4781   -0.0083 O.3     1  UNL1       -0.3752
      7 C          -0.7580   -0.2462   -1.1043 C.3     1  UNL1        0.0711
      8 C          -2.2789   -0.3365   -1.0659 C.3     1  UNL1        0.0710
      9 O          -2.6602   -0.9742    0.1114 O.3     1  UNL1       -0.3778
     10 C          -4.0512   -1.0841    0.1985 C.3     1  UNL1        0.0449
     11 C          -4.6722    0.3115    0.1751 C.3     1  UNL1       -0.0416
     12 H           5.2663    0.8521   -0.3103 H       1  UNL1        0.0252
     13 H           5.5819   -0.6101    0.6890 H       1  UNL1        0.0252
     14 H           5.7114    1.0178    1.4822 H       1  UNL1        0.0252
     15 H           3.5038   -0.0220    2.0404 H       1  UNL1        0.0557
     16 H           3.3494    1.4233    1.0393 H       1  UNL1        0.0557
     17 H           1.4696   -1.2915    0.8645 H       1  UNL1        0.0583
     18 H           1.5929   -1.2893   -0.8871 H       1  UNL1        0.0583
     19 H           1.3851    1.1620   -0.9404 H       1  UNL1        0.0583
     20 H           1.3823    1.2804    0.8206 H       1  UNL1        0.0583
     21 H          -0.3695    0.1407   -2.0414 H       1  UNL1        0.0583
     22 H          -0.3753   -1.3013   -0.9440 H       1  UNL1        0.0583
     23 H          -2.6926    0.6773   -1.0494 H       1  UNL1        0.0583
     24 H          -2.6798   -0.9406   -1.9043 H       1  UNL1        0.0583
     25 H          -4.2725   -1.6045    1.1494 H       1  UNL1        0.0557
     26 H          -4.4703   -1.6351   -0.6629 H       1  UNL1        0.0557
     27 H          -5.6123    0.2363    0.7662 H       1  UNL1        0.0252
     28 H          -4.8804    0.6474   -0.8492 H       1  UNL1        0.0252
     29 H          -3.9681    1.0286    0.6863 H       1  UNL1        0.0252
@<TRIPOS>BOND
     1     1     2    1
     2     2     3    1
     3     3     4    1
     4     4     5    1
     5     5     6    1
     6     6     7    1
     7     7     8    1
     8     8     9    1
     9     9    10    1
    10    10    11    1
    11     1    12    1
    12     1    13    1
    13     1    14    1
    14     2    15    1
    15     2    16    1
    16     4    17    1
    17     4    18    1
    18     5    19    1
    19     5    20    1
    20     7    21    1
    21     7    22    1
    22     8    23    1
    23     8    24    1
    24    10    25    1
    25    10    26    1
    26    11    27    1
    27    11    28    1
    28    11    29    1
