@<TRIPOS>MOLECULE
*****
 50 50 0 0 0
SMALL
GASTEIGER

@<TRIPOS>ATOM
      1 CD1         5.7547   -1.4042    0.3000 C.3     1  LEU1       -0.0626
      2 CG          5.0129   -0.5013   -0.7173 C.3     1  LEU1       -0.0447
      3 CD2         5.8142    0.8070   -0.6784 C.3     1  LEU1       -0.0626
      4 CB          3.6263   -0.2700   -0.2423 C.3     1  LEU1       -0.0255
      5 CA          2.7272    0.5537   -1.0989 C.3     1  LEU1        0.0787
      6 C           3.1153    1.9193   -1.3851 C.2     1  LEU1        0.1404
      7 O           2.3586    2.8223   -0.9998 O.2     1  LEU1       -0.2991
      8 N           1.3992    0.4892   -0.4454 N.am    1  LEU1       -0.3046
      9 C           0.3035   -0.1626   -1.0469 C.2     0  UNK0        0.2325
     10 O           0.4861   -0.6917   -2.1628 O.2     0  UNK0       -0.2740
     11 C          -1.0538   -0.2569   -0.4329 C.3     0  UNK0        0.1070
     12 N          -2.0020   -0.9434   -1.1988 N.3     0  UNK0       -0.1778
     13 S          -3.3062   -0.1564   -1.8636 S.O2    0  UNK0        0.0591
     14 O          -2.9708    0.9620   -2.8030 O.2     0  UNK0       -0.1530
     15 O          -4.2153   -1.1187   -2.6049 O.2     0  UNK0       -0.1530
     16 C          -4.2903    0.5318   -0.5945 C.ar    0  UNK0        0.1054
     17 C          -5.2916   -0.2402   -0.0468 C.ar    0  UNK0       -0.0326
     18 C          -6.1221    0.2142    0.9526 C.ar    0  UNK0       -0.0246
     19 C          -5.9388    1.4961    1.4202 C.ar    0  UNK0        0.1235
     20 F          -6.7179    2.0050    2.3989 F       0  UNK0       -0.2055
     21 C          -4.9362    2.2704    0.8725 C.ar    0  UNK0       -0.0246
     22 C          -4.1069    1.8158   -0.1258 C.ar    0  UNK0       -0.0326
     23 C          -0.8674   -0.6821    0.9887 C.3     0  UNK0       -0.0212
     24 C          -0.1787   -2.0047    1.1496 C.3     0  UNK0       -0.0607
     25 C          -2.2227   -0.7433    1.6587 C.3     0  UNK0       -0.0607
     26 HD11        5.4038   -2.4375    0.2250 H       1  LEU1        0.0232
     27 HD12        5.5224   -0.9908    1.2876 H       1  LEU1        0.0232
     28 HD13        6.8295   -1.3026    0.0900 H       1  LEU1        0.0232
     29 HG          5.0864   -0.9997   -1.6839 H       1  LEU1        0.0296
     30 HD21        6.8110    0.6542   -0.1728 H       1  LEU1        0.0232
     31 HD22        6.0192    1.1440   -1.7074 H       1  LEU1        0.0232
     32 HD23        5.2787    1.5594   -0.0829 H       1  LEU1        0.0232
     33 HB1         3.1547   -1.2946   -0.1116 H       1  LEU1        0.0290
     34 HB2         3.6538    0.1656    0.7956 H       1  LEU1        0.0290
     35 HA          2.6602    0.0129   -2.0905 H       1  LEU1        0.0574
     36 H           3.9902    2.2736   -1.9006 H       1  LEU1        0.1046
     37 H           1.2484    0.9319    0.4854 H       1  LEU1        0.1494
     38 H          -1.4211    0.8165   -0.3725 H       0  UNK0        0.0575
     39 H          -2.0875   -1.9692   -1.0550 H       0  UNK0        0.1489
     40 H          -5.4794   -1.2680   -0.3838 H       0  UNK0        0.0638
     41 H          -6.9150   -0.3879    1.3909 H       0  UNK0        0.0647
     42 H          -4.7666    3.2953    1.2250 H       0  UNK0        0.0647
     43 H          -3.3232    2.4022   -0.5634 H       0  UNK0        0.0638
     44 H          -0.2902    0.0963    1.5199 H       0  UNK0        0.0316
     45 H          -0.9357   -2.8185    1.2879 H       0  UNK0        0.0233
     46 H           0.5027   -2.2638    0.3449 H       0  UNK0        0.0233
     47 H           0.4044   -1.9705    2.0938 H       0  UNK0        0.0233
     48 H          -2.6810    0.2484    1.8264 H       0  UNK0        0.0233
     49 H          -2.1294   -1.2179    2.6810 H       0  UNK0        0.0233
     50 H          -2.9138   -1.3906    1.1033 H       0  UNK0        0.0233
@<TRIPOS>BOND
     1     1     2    1
     2     2     3    1
     3     2     4    1
     4     4     5    1
     5     5     6    1
     6     6     7    2
     7     5     8    1
     8     8     9   am
     9     9    10    2
    10     9    11    1
    11    11    12    1
    12    12    13    1
    13    13    14    2
    14    13    15    2
    15    13    16    1
    16    16    17   ar
    17    17    18   ar
    18    18    19   ar
    19    19    20    1
    20    19    21   ar
    21    21    22   ar
    22    11    23    1
    23    23    24    1
    24    23    25    1
    25    22    16   ar
    26     1    26    1
    27     1    27    1
    28     1    28    1
    29     2    29    1
    30     3    30    1
    31     3    31    1
    32     3    32    1
    33     4    33    1
    34     4    34    1
    35     5    35    1
    36     6    36    1
    37     8    37    1
    38    11    38    1
    39    12    39    1
    40    17    40    1
    41    18    41    1
    42    21    42    1
    43    22    43    1
    44    23    44    1
    45    24    45    1
    46    24    46    1
    47    24    47    1
    48    25    48    1
    49    25    49    1
    50    25    50    1
