
     RDKit          3D

 70 73  0  0  0  0  0  0  0  0999 V2000
   -8.6968    1.5830    2.5305 C   0  0  0  0  0  0  0  0  0  0  0  0
   -8.2047    1.2497    1.2531 O   0  0  0  0  0  0  0  0  0  0  0  0
   -7.0560    0.4936    1.0708 C   0  0  0  0  0  0  0  0  0  0  0  0
   -6.6487    0.2159   -0.2402 C   0  0  0  0  0  0  0  0  0  0  0  0
   -7.4191    0.7128   -1.2697 O   0  0  0  0  0  0  0  0  0  0  0  0
   -6.9683    0.4062   -2.5982 C   0  0  0  0  0  0  0  0  0  0  0  0
   -5.5020   -0.5380   -0.3750 C   0  0  0  0  0  0  0  0  0  0  0  0
   -4.8285   -0.9715    0.7481 C   0  0  0  0  0  0  0  0  0  0  0  0
   -3.6600   -1.7315    1.1831 C   0  0  1  0  0  0  0  0  0  0  0  0
   -2.3312   -1.0435    0.8283 C   0  0  0  0  0  0  0  0  0  0  0  0
   -2.2945   -0.9073   -0.5870 N   0  0  0  0  0  0  0  0  0  0  0  0
   -2.1803   -2.0998   -1.3487 C   0  0  0  0  0  0  0  0  0  0  0  0
   -1.7294    0.2750   -1.1174 C   0  0  0  0  0  0  0  0  0  0  0  0
   -0.2474    0.4452   -0.9233 C   0  0  0  0  0  0  0  0  0  0  0  0
    0.5691   -0.6551   -1.5597 C   0  0  0  0  0  0  0  0  0  0  0  0
    1.9832   -0.3558   -1.2898 N   0  0  0  0  0  0  0  0  0  0  0  0
    2.8587    0.4314   -2.1209 C   0  0  0  0  0  0  0  0  0  0  0  0
    3.5168    1.5454   -1.3151 C   0  0  0  0  0  0  0  0  0  0  0  0
    4.6974    0.9498   -0.6376 C   0  0  0  0  0  0  0  0  0  0  0  0
    5.8645    1.7023   -0.7644 C   0  0  0  0  0  0  0  0  0  0  0  0
    7.0736    1.3339   -0.2122 C   0  0  0  0  0  0  0  0  0  0  0  0
    8.2282    2.0774   -0.3369 O   0  0  0  0  0  0  0  0  0  0  0  0
    8.2678    3.3019   -1.0546 C   0  0  0  0  0  0  0  0  0  0  0  0
    7.1496    0.1516    0.5126 C   0  0  0  0  0  0  0  0  0  0  0  0
    8.3601   -0.2316    1.0739 O   0  0  0  0  0  0  0  0  0  0  0  0
    8.3807   -1.4481    1.8037 C   0  0  0  0  0  0  0  0  0  0  0  0
    5.9964   -0.6021    0.6439 C   0  0  0  0  0  0  0  0  0  0  0  0
    4.7965   -0.2075    0.0788 C   0  0  0  0  0  0  0  0  0  0  0  0
    3.8199   -1.2420    0.4255 C   0  0  0  0  0  0  0  0  0  0  0  0
    2.4443   -0.9474   -0.0592 C   0  0  0  0  0  0  0  0  0  0  0  0
    1.5161   -1.2753    0.7549 O   0  0  0  0  0  0  0  0  0  0  0  0
   -4.0504   -1.4708    2.5840 C   0  0  0  0  0  0  0  0  0  0  0  0
   -5.1908   -0.7239    2.0335 C   0  0  0  0  0  0  0  0  0  0  0  0
   -6.3517    0.0397    2.1650 C   0  0  0  0  0  0  0  0  0  0  0  0
   -9.7702    1.9021    2.4766 H   0  0  0  0  0  0  0  0  0  0  0  0
   -8.6902    0.6751    3.1613 H   0  0  0  0  0  0  0  0  0  0  0  0
   -8.0700    2.3565    3.0162 H   0  0  0  0  0  0  0  0  0  0  0  0
   -7.8184    0.6679   -3.2519 H   0  0  0  0  0  0  0  0  0  0  0  0
   -6.0489    0.9504   -2.8450 H   0  0  0  0  0  0  0  0  0  0  0  0
   -6.8354   -0.7039   -2.6139 H   0  0  0  0  0  0  0  0  0  0  0  0
   -5.2015   -0.7434   -1.3939 H   0  0  0  0  0  0  0  0  0  0  0  0
   -3.7050   -2.7827    0.8304 H   0  0  0  0  0  0  0  0  0  0  0  0
   -2.4339   -0.0137    1.2656 H   0  0  0  0  0  0  0  0  0  0  0  0
   -1.4965   -1.6127    1.2743 H   0  0  0  0  0  0  0  0  0  0  0  0
   -1.6505   -2.9305   -0.8189 H   0  0  0  0  0  0  0  0  0  0  0  0
   -1.7266   -1.8726   -2.3286 H   0  0  0  0  0  0  0  0  0  0  0  0
   -3.2356   -2.4332   -1.5809 H   0  0  0  0  0  0  0  0  0  0  0  0
   -1.9677    0.2917   -2.2147 H   0  0  0  0  0  0  0  0  0  0  0  0
   -2.2792    1.1370   -0.6864 H   0  0  0  0  0  0  0  0  0  0  0  0
    0.0487    0.5235    0.1232 H   0  0  0  0  0  0  0  0  0  0  0  0
    0.0081    1.4231   -1.4220 H   0  0  0  0  0  0  0  0  0  0  0  0
    0.4751   -0.6368   -2.6787 H   0  0  0  0  0  0  0  0  0  0  0  0
    0.3344   -1.6285   -1.1330 H   0  0  0  0  0  0  0  0  0  0  0  0
    3.6442   -0.2532   -2.5135 H   0  0  0  0  0  0  0  0  0  0  0  0
    2.3354    0.8620   -3.0012 H   0  0  0  0  0  0  0  0  0  0  0  0
    3.8313    2.3825   -1.9849 H   0  0  0  0  0  0  0  0  0  0  0  0
    2.8446    1.8968   -0.4897 H   0  0  0  0  0  0  0  0  0  0  0  0
    5.8270    2.6260   -1.3255 H   0  0  0  0  0  0  0  0  0  0  0  0
    9.2986    3.5805   -1.3361 H   0  0  0  0  0  0  0  0  0  0  0  0
    7.6897    3.1241   -1.9926 H   0  0  0  0  0  0  0  0  0  0  0  0
    7.7108    4.0801   -0.5073 H   0  0  0  0  0  0  0  0  0  0  0  0
    7.6271   -1.4056    2.6354 H   0  0  0  0  0  0  0  0  0  0  0  0
    8.0589   -2.3102    1.1701 H   0  0  0  0  0  0  0  0  0  0  0  0
    9.3534   -1.6572    2.2674 H   0  0  0  0  0  0  0  0  0  0  0  0
    6.1140   -1.5124    1.2179 H   0  0  0  0  0  0  0  0  0  0  0  0
    3.7916   -1.2964    1.5501 H   0  0  0  0  0  0  0  0  0  0  0  0
    4.1166   -2.2639    0.0883 H   0  0  0  0  0  0  0  0  0  0  0  0
   -4.3185   -2.3603    3.1982 H   0  0  0  0  0  0  0  0  0  0  0  0
   -3.3334   -0.7961    3.1226 H   0  0  0  0  0  0  0  0  0  0  0  0
   -6.6910    0.2705    3.1806 H   0  0  0  0  0  0  0  0  0  0  0  0
  1  2  1  0
  2  3  1  0
  3  4  2  0
  4  5  1  0
  5  6  1  0
  4  7  1  0
  7  8  2  0
  8  9  1  0
  9 10  1  0
 10 11  1  0
 11 12  1  0
 11 13  1  0
 13 14  1  0
 14 15  1  0
 15 16  1  0
 16 17  1  0
 17 18  1  0
 18 19  1  0
 19 20  2  0
 20 21  1  0
 21 22  1  0
 22 23  1  0
 21 24  2  0
 24 25  1  0
 25 26  1  0
 24 27  1  0
 27 28  2  0
 28 29  1  0
 29 30  1  0
 30 31  2  0
  9 32  1  0
 32 33  1  0
 33 34  2  0
 34  3  1  0
 33  8  1  0
 30 16  1  0
 28 19  1  0
  1 35  1  0
  1 36  1  0
  1 37  1  0
  6 38  1  0
  6 39  1  0
  6 40  1  0
  7 41  1  0
  9 42  1  1
 10 43  1  0
 10 44  1  0
 12 45  1  0
 12 46  1  0
 12 47  1  0
 13 48  1  0
 13 49  1  0
 14 50  1  0
 14 51  1  0
 15 52  1  0
 15 53  1  0
 17 54  1  0
 17 55  1  0
 18 56  1  0
 18 57  1  0
 20 58  1  0
 23 59  1  0
 23 60  1  0
 23 61  1  0
 26 62  1  0
 26 63  1  0
 26 64  1  0
 27 65  1  0
 29 66  1  0
 29 67  1  0
 32 68  1  0
 32 69  1  0
 34 70  1  0
M  END
$$$$
