
     RDKit          3D

 59 63  0  0  0  0  0  0  0  0999 V2000
    1.5886    0.5114   -0.4095 O   0  0  0  0  0  0  0  0  0  0  0  0
    1.9236   -0.6542   -0.6734 C   0  0  0  0  0  0  0  0  0  0  0  0
    3.3118   -0.8297   -0.9684 N   0  0  0  0  0  0  0  0  0  0  0  0
    4.3494    0.1437   -0.9570 C   0  0  0  0  0  0  0  0  0  0  0  0
    4.7842    0.6798    0.3444 C   0  0  0  0  0  0  0  0  0  0  0  0
    3.8189    1.3704    1.2108 C   0  0  0  0  0  0  0  0  0  0  0  0
    4.4838    1.8651    2.4294 N   0  0  0  0  0  0  0  0  0  0  0  0
    4.6480    1.1287    3.6505 C   0  0  0  0  0  0  0  0  0  0  0  0
    5.8391    1.7616    4.3406 C   0  0  0  0  0  0  0  0  0  0  0  0
    5.9696    3.1274    3.7439 C   0  0  0  0  0  0  0  0  0  0  0  0
    5.0611    3.1379    2.5410 C   0  0  0  0  0  0  0  0  0  0  0  0
    4.9175    4.1619    1.8295 O   0  0  0  0  0  0  0  0  0  0  0  0
    0.9500   -1.7215   -0.6741 C   0  0  0  0  0  0  0  0  0  0  0  0
    1.4500   -3.0400   -0.5817 C   0  0  0  0  0  0  0  0  0  0  0  0
    0.5991   -4.0734   -0.5099 N   0  0  0  0  0  0  0  0  0  0  0  0
   -0.7226   -3.9088   -0.5211 C   0  0  0  0  0  0  0  0  0  0  0  0
   -1.2151   -2.6138   -0.6120 C   0  0  0  0  0  0  0  0  0  0  0  0
   -0.4040   -1.5015   -0.6917 C   0  0  0  0  0  0  0  0  0  0  0  0
   -0.9320   -0.2154   -0.8534 N   0  0  0  0  0  0  0  0  0  0  0  0
   -2.3053    0.0596   -1.0397 C   0  0  0  0  0  0  0  0  0  0  0  0
   -3.2673   -0.8419   -1.3151 N   0  0  0  0  0  0  0  0  0  0  0  0
   -4.5509   -0.5178   -1.4740 C   0  0  0  0  0  0  0  0  0  0  0  0
   -5.5736   -1.5337   -1.7780 C   0  0  0  0  0  0  0  0  0  0  0  0
   -5.2891   -2.8755   -1.8536 C   0  0  0  0  0  0  0  0  0  0  0  0
   -6.2950   -3.7906   -2.1611 C   0  0  0  0  0  0  0  0  0  0  0  0
   -5.8824   -5.6368   -2.2528 Br  0  0  0  0  0  0  0  0  0  0  0  0
   -7.6029   -3.3950   -2.4000 C   0  0  0  0  0  0  0  0  0  0  0  0
   -7.8818   -2.0490   -2.3226 C   0  0  0  0  0  0  0  0  0  0  0  0
   -6.8713   -1.1456   -2.0150 C   0  0  0  0  0  0  0  0  0  0  0  0
   -7.1527    0.1844   -1.9359 F   0  0  0  0  0  0  0  0  0  0  0  0
   -4.9204    0.7730   -1.3558 N   0  0  0  0  0  0  0  0  0  0  0  0
   -4.0209    1.7338   -1.0819 C   0  0  0  0  0  0  0  0  0  0  0  0
   -4.3720    3.0391   -0.9533 N   0  0  0  0  0  0  0  0  0  0  0  0
   -3.4577    3.9952   -0.6732 C   0  0  0  0  0  0  0  0  0  0  0  0
   -2.1336    3.6601   -0.5108 C   0  0  0  0  0  0  0  0  0  0  0  0
   -1.7956    2.3572   -0.6410 N   0  0  0  0  0  0  0  0  0  0  0  0
   -2.7013    1.4082   -0.9181 C   0  0  0  0  0  0  0  0  0  0  0  0
    3.5406   -1.8492   -1.2440 H   0  0  0  0  0  0  0  0  0  0  0  0
    5.2474   -0.3085   -1.5122 H   0  0  0  0  0  0  0  0  0  0  0  0
    4.0028    0.9902   -1.6531 H   0  0  0  0  0  0  0  0  0  0  0  0
    5.2214   -0.1745    0.9864 H   0  0  0  0  0  0  0  0  0  0  0  0
    5.7437    1.3058    0.2082 H   0  0  0  0  0  0  0  0  0  0  0  0
    3.0944    0.6050    1.6120 H   0  0  0  0  0  0  0  0  0  0  0  0
    3.2828    2.1965    0.7211 H   0  0  0  0  0  0  0  0  0  0  0  0
    4.9124    0.0729    3.3863 H   0  0  0  0  0  0  0  0  0  0  0  0
    3.7385    1.1281    4.2923 H   0  0  0  0  0  0  0  0  0  0  0  0
    5.5805    1.8200    5.4274 H   0  0  0  0  0  0  0  0  0  0  0  0
    6.7695    1.1778    4.2009 H   0  0  0  0  0  0  0  0  0  0  0  0
    7.0119    3.2340    3.3264 H   0  0  0  0  0  0  0  0  0  0  0  0
    5.7212    3.9533    4.4371 H   0  0  0  0  0  0  0  0  0  0  0  0
    2.5207   -3.2133   -0.5558 H   0  0  0  0  0  0  0  0  0  0  0  0
   -1.4075   -4.7695   -0.4588 H   0  0  0  0  0  0  0  0  0  0  0  0
   -2.2843   -2.5182   -0.5945 H   0  0  0  0  0  0  0  0  0  0  0  0
   -0.3101    0.6184   -0.8570 H   0  0  0  0  0  0  0  0  0  0  0  0
   -4.2852   -3.1967   -1.6716 H   0  0  0  0  0  0  0  0  0  0  0  0
   -8.3501   -4.1422   -2.6352 H   0  0  0  0  0  0  0  0  0  0  0  0
   -8.9036   -1.7016   -2.5066 H   0  0  0  0  0  0  0  0  0  0  0  0
   -3.7710    5.0425   -0.5724 H   0  0  0  0  0  0  0  0  0  0  0  0
   -1.4231    4.4342   -0.2926 H   0  0  0  0  0  0  0  0  0  0  0  0
  1  2  2  0
  2  3  1  0
  3  4  1  0
  4  5  1  0
  5  6  1  0
  6  7  1  0
  7  8  1  0
  8  9  1  0
  9 10  1  0
 10 11  1  0
 11 12  2  0
  2 13  1  0
 13 14  2  0
 14 15  1  0
 15 16  2  0
 16 17  1  0
 17 18  2  0
 18 19  1  0
 19 20  1  0
 20 21  2  0
 21 22  1  0
 22 23  1  0
 23 24  2  0
 24 25  1  0
 25 26  1  0
 25 27  2  0
 27 28  1  0
 28 29  2  0
 29 30  1  0
 22 31  2  0
 31 32  1  0
 32 33  2  0
 33 34  1  0
 34 35  2  0
 35 36  1  0
 36 37  2  0
 11  7  1  0
 18 13  1  0
 37 20  1  0
 29 23  1  0
 37 32  1  0
  3 38  1  0
  4 39  1  0
  4 40  1  0
  5 41  1  0
  5 42  1  0
  6 43  1  0
  6 44  1  0
  8 45  1  0
  8 46  1  0
  9 47  1  0
  9 48  1  0
 10 49  1  0
 10 50  1  0
 14 51  1  0
 16 52  1  0
 17 53  1  0
 19 54  1  0
 24 55  1  0
 27 56  1  0
 28 57  1  0
 34 58  1  0
 35 59  1  0
M  END
$$$$
