@<TRIPOS>MOLECULE
*****
 59 63 0 0 0
SMALL
GASTEIGER

@<TRIPOS>ATOM
      1 O           1.5886    0.5114   -0.4095 O.2     1  UNL1       -0.2701
      2 C           1.9236   -0.6542   -0.6734 C.2     1  UNL1        0.2473
      3 N           3.3118   -0.8297   -0.9684 N.am    1  UNL1       -0.3112
      4 C           4.3494    0.1437   -0.9570 C.3     1  UNL1        0.0133
      5 C           4.7842    0.6798    0.3444 C.3     1  UNL1       -0.0215
      6 C           3.8189    1.3704    1.2108 C.3     1  UNL1        0.0161
      7 N           4.4838    1.8651    2.4294 N.am    1  UNL1       -0.3014
      8 C           4.6480    1.1287    3.6505 C.3     1  UNL1        0.0151
      9 C           5.8391    1.7616    4.3406 C.3     1  UNL1       -0.0289
     10 C           5.9696    3.1274    3.7439 C.3     1  UNL1        0.0256
     11 C           5.0611    3.1379    2.5410 C.2     1  UNL1        0.2156
     12 O           4.9175    4.1619    1.8295 O.2     1  UNL1       -0.2756
     13 C           0.9500   -1.7215   -0.6741 C.ar    1  UNL1        0.0758
     14 C           1.4500   -3.0400   -0.5817 C.ar    1  UNL1        0.0415
     15 N           0.5991   -4.0734   -0.5099 N.ar    1  UNL1       -0.2624
     16 C          -0.7226   -3.9088   -0.5211 C.ar    1  UNL1        0.0293
     17 C          -1.2151   -2.6138   -0.6120 C.ar    1  UNL1       -0.0216
     18 C          -0.4040   -1.5015   -0.6917 C.ar    1  UNL1        0.0476
     19 N          -0.9320   -0.2154   -0.8534 N.pl3   1  UNL1       -0.2969
     20 C          -2.3053    0.0596   -1.0397 C.ar    1  UNL1        0.1546
     21 N          -3.2673   -0.8419   -1.3151 N.ar    1  UNL1       -0.2101
     22 C          -4.5509   -0.5178   -1.4740 C.ar    1  UNL1        0.1670
     23 C          -5.5736   -1.5337   -1.7780 C.ar    1  UNL1        0.0554
     24 C          -5.2891   -2.8755   -1.8536 C.ar    1  UNL1       -0.0343
     25 C          -6.2950   -3.7906   -2.1611 C.ar    1  UNL1        0.0187
     26 BR         -5.8824   -5.6368   -2.2528 Br      1  UNL1       -0.0503
     27 C          -7.6029   -3.3950   -2.4000 C.ar    1  UNL1       -0.0450
     28 C          -7.8818   -2.0490   -2.3226 C.ar    1  UNL1       -0.0247
     29 C          -6.8713   -1.1456   -2.0150 C.ar    1  UNL1        0.1341
     30 F          -7.1527    0.1844   -1.9359 F       1  UNL1       -0.2047
     31 N          -4.9204    0.7730   -1.3558 N.ar    1  UNL1       -0.2061
     32 C          -4.0209    1.7338   -1.0819 C.ar    1  UNL1        0.1838
     33 N          -4.3720    3.0391   -0.9533 N.ar    1  UNL1       -0.2328
     34 C          -3.4577    3.9952   -0.6732 C.ar    1  UNL1        0.0481
     35 C          -2.1336    3.6601   -0.5108 C.ar    1  UNL1        0.0466
     36 N          -1.7956    2.3572   -0.6410 N.ar    1  UNL1       -0.2469
     37 C          -2.7013    1.4082   -0.9181 C.ar    1  UNL1        0.1478
     38 H           3.5406   -1.8492   -1.2440 H       1  UNL1        0.1490
     39 H           5.2474   -0.3085   -1.5122 H       1  UNL1        0.0462
     40 H           4.0028    0.9902   -1.6531 H       1  UNL1        0.0462
     41 H           5.2214   -0.1745    0.9864 H       1  UNL1        0.0295
     42 H           5.7437    1.3058    0.2082 H       1  UNL1        0.0295
     43 H           3.0944    0.6050    1.6120 H       1  UNL1        0.0465
     44 H           3.2828    2.1965    0.7211 H       1  UNL1        0.0465
     45 H           4.9124    0.0729    3.3863 H       1  UNL1        0.0465
     46 H           3.7385    1.1281    4.2923 H       1  UNL1        0.0465
     47 H           5.5805    1.8200    5.4274 H       1  UNL1        0.0285
     48 H           6.7695    1.1778    4.2009 H       1  UNL1        0.0285
     49 H           7.0119    3.2340    3.3264 H       1  UNL1        0.0359
     50 H           5.7212    3.9533    4.4371 H       1  UNL1        0.0359
     51 H           2.5207   -3.2133   -0.5558 H       1  UNL1        0.0838
     52 H          -1.4075   -4.7695   -0.4588 H       1  UNL1        0.0830
     53 H          -2.2843   -2.5182   -0.5945 H       1  UNL1        0.0651
     54 H          -0.3101    0.6184   -0.8570 H       1  UNL1        0.1536
     55 H          -4.2852   -3.1967   -1.6716 H       1  UNL1        0.0636
     56 H          -8.3501   -4.1422   -2.6352 H       1  UNL1        0.0629
     57 H          -8.9036   -1.7016   -2.5066 H       1  UNL1        0.0647
     58 H          -3.7710    5.0425   -0.5724 H       1  UNL1        0.0846
     59 H          -1.4231    4.4342   -0.2926 H       1  UNL1        0.0845
@<TRIPOS>BOND
     1     1     2    2
     2     2     3   am
     3     3     4    1
     4     4     5    1
     5     5     6    1
     6     6     7    1
     7     7     8    1
     8     8     9    1
     9     9    10    1
    10    10    11    1
    11    11    12    2
    12     2    13    1
    13    13    14   ar
    14    14    15   ar
    15    15    16   ar
    16    16    17   ar
    17    17    18   ar
    18    18    19    1
    19    19    20    1
    20    20    21   ar
    21    21    22   ar
    22    22    23    1
    23    23    24   ar
    24    24    25   ar
    25    25    26    1
    26    25    27   ar
    27    27    28   ar
    28    28    29   ar
    29    29    30    1
    30    22    31   ar
    31    31    32   ar
    32    32    33   ar
    33    33    34   ar
    34    34    35   ar
    35    35    36   ar
    36    36    37   ar
    37    11     7   am
    38    18    13   ar
    39    37    20   ar
    40    29    23   ar
    41    37    32   ar
    42     3    38    1
    43     4    39    1
    44     4    40    1
    45     5    41    1
    46     5    42    1
    47     6    43    1
    48     6    44    1
    49     8    45    1
    50     8    46    1
    51     9    47    1
    52     9    48    1
    53    10    49    1
    54    10    50    1
    55    14    51    1
    56    16    52    1
    57    17    53    1
    58    19    54    1
    59    24    55    1
    60    27    56    1
    61    28    57    1
    62    34    58    1
    63    35    59    1
