@<TRIPOS>MOLECULE
*****
 70 75 0 0 0
SMALL
GASTEIGER

@<TRIPOS>ATOM
      1 C          -1.7903   -7.6915   -0.4105 C.3     1  UNL1        0.0804
      2 O          -1.1618   -6.4893   -0.7324 O.3     1  UNL1       -0.4795
      3 C          -1.4167   -5.3274   -0.0180 C.ar    1  UNL1        0.2191
      4 C          -0.7951   -4.1418   -0.3377 C.ar    1  UNL1        0.0404
      5 C          -1.0129   -2.9636    0.3382 C.ar    1  UNL1        0.1364
      6 N          -0.3786   -1.7404    0.0156 N.am    1  UNL1       -0.2240
      7 C           0.8743   -1.2768    0.5588 C.2     1  UNL1        0.3219
      8 O           1.3000   -1.6553    1.6728 O.2     1  UNL1       -0.2512
      9 N           1.4691   -0.3716   -0.3716 N.am    1  UNL1       -0.1920
     10 C           2.7022    0.3306   -0.2663 C.ar    1  UNL1        0.0455
     11 C           3.1395    1.1827   -1.2632 C.ar    1  UNL1       -0.0392
     12 C           4.3424    1.8617   -1.1556 C.ar    1  UNL1       -0.0518
     13 C           5.1395    1.7166   -0.0655 C.ar    1  UNL1       -0.0112
     14 C           6.4057    2.4489    0.0116 C.ar    1  UNL1        0.0201
     15 C           7.3866    2.5191    0.9401 C.ar    1  UNL1       -0.0461
     16 C           8.4538    3.3065    0.7083 C.ar    1  UNL1       -0.0400
     17 C           8.5446    4.0082   -0.4200 C.ar    1  UNL1        0.0966
     18 C           9.5359    4.9181   -0.9471 C.2     1  UNL1        0.3435
     19 O           9.4169    5.4719   -2.0417 O.2     1  UNL1       -0.2445
     20 O          10.6537    5.1603   -0.1724 O.3     1  UNL1       -0.4768
     21 S           7.0125    3.5749   -1.3047 S.2     1  UNL1       -0.0818
     22 C           4.7397    0.8821    0.9415 C.ar    1  UNL1       -0.0518
     23 C           3.5233    0.1985    0.8273 C.ar    1  UNL1       -0.0392
     24 C           0.5532   -0.3175   -1.4506 C.2     1  UNL1        0.2516
     25 O           0.7638   -0.0364   -2.6418 O.2     1  UNL1       -0.2724
     26 C          -0.7715   -0.6716   -0.8937 C.3     1  UNL1        0.1240
     27 C          -1.2801    0.5427   -0.1471 C.3     1  UNL1       -0.0095
     28 C          -2.4343    1.0885   -0.9519 C.3     1  UNL1        0.0017
     29 N          -3.5454    0.1785   -0.9264 N.3     1  UNL1       -0.2965
     30 C          -4.0627   -0.0925    0.3766 C.3     1  UNL1        0.0415
     31 C          -4.5648    1.0861    1.0972 C.ar    1  UNL1        0.0581
     32 N          -3.9146    1.6996    2.0962 N.ar    1  UNL1       -0.2583
     33 C          -4.3682    2.7778    2.7584 C.ar    1  UNL1        0.0279
     34 C          -5.5889    3.3260    2.4170 C.ar    1  UNL1       -0.0433
     35 C          -6.2947    2.7278    1.3938 C.ar    1  UNL1       -0.0557
     36 C          -5.7869    1.6062    0.7295 C.ar    1  UNL1       -0.0279
     37 C          -6.6137    1.0424   -0.3449 C.3     1  UNL1       -0.0380
     38 C          -3.1678   -1.0509   -1.5465 C.3     1  UNL1        0.0017
     39 C          -1.7236   -1.1254   -1.9484 C.3     1  UNL1       -0.0095
     40 N          -1.8942   -3.0331    1.3619 N.ar    1  UNL1       -0.2200
     41 C          -2.5131   -4.1880    1.6892 C.ar    1  UNL1        0.1219
     42 N          -2.3005   -5.3489    1.0254 N.ar    1  UNL1       -0.2013
     43 H          -1.5015   -8.4486   -1.1891 H       1  UNL1        0.0660
     44 H          -2.8993   -7.5144   -0.4349 H       1  UNL1        0.0660
     45 H          -1.4745   -8.0653    0.5782 H       1  UNL1        0.0660
     46 H          -0.1040   -4.1416   -1.1593 H       1  UNL1        0.0705
     47 H           2.5392    1.3461   -2.1738 H       1  UNL1        0.0636
     48 H           4.6272    2.5138   -1.9714 H       1  UNL1        0.0624
     49 H           7.2647    1.9019    1.8883 H       1  UNL1        0.0629
     50 H           9.2799    3.3763    1.4711 H       1  UNL1        0.0631
     51 H          11.1897    6.0171   -0.2250 H       1  UNL1        0.2954
     52 H           5.3643    0.7642    1.8035 H       1  UNL1        0.0624
     53 H           3.2186   -0.4630    1.6382 H       1  UNL1        0.0636
     54 H          -1.5353    0.3217    0.8994 H       1  UNL1        0.0303
     55 H          -0.5156    1.3650   -0.1066 H       1  UNL1        0.0303
     56 H          -2.0903    1.1503   -2.0066 H       1  UNL1        0.0427
     57 H          -2.7011    2.1221   -0.6586 H       1  UNL1        0.0427
     58 H          -4.9128   -0.7970    0.2611 H       1  UNL1        0.0491
     59 H          -3.3232   -0.6511    1.0241 H       1  UNL1        0.0491
     60 H          -3.7900    3.2394    3.5709 H       1  UNL1        0.0829
     61 H          -5.9599    4.1918    2.9440 H       1  UNL1        0.0633
     62 H          -7.2434    3.1441    1.1199 H       1  UNL1        0.0621
     63 H          -6.1544    1.2457   -1.3271 H       1  UNL1        0.0278
     64 H          -6.7432   -0.0694   -0.2338 H       1  UNL1        0.0278
     65 H          -7.6490    1.4417   -0.3323 H       1  UNL1        0.0278
     66 H          -3.4172   -1.9484   -0.9343 H       1  UNL1        0.0427
     67 H          -3.7714   -1.1520   -2.4877 H       1  UNL1        0.0427
     68 H          -1.5535   -0.5964   -2.9129 H       1  UNL1        0.0303
     69 H          -1.4993   -2.1998   -2.1628 H       1  UNL1        0.0303
     70 H          -3.2205   -4.2278    2.5161 H       1  UNL1        0.1049
@<TRIPOS>BOND
     1     1     2    1
     2     2     3    1
     3     3     4   ar
     4     4     5   ar
     5     5     6    1
     6     6     7   am
     7     7     8    2
     8     7     9   am
     9     9    10    1
    10    10    11   ar
    11    11    12   ar
    12    12    13   ar
    13    13    14    1
    14    14    15   ar
    15    15    16   ar
    16    16    17   ar
    17    17    18    1
    18    18    19    2
    19    18    20    1
    20    17    21   ar
    21    13    22   ar
    22    22    23   ar
    23     9    24   am
    24    24    25    2
    25    24    26    1
    26    26    27    1
    27    27    28    1
    28    28    29    1
    29    29    30    1
    30    30    31    1
    31    31    32   ar
    32    32    33   ar
    33    33    34   ar
    34    34    35   ar
    35    35    36   ar
    36    36    37    1
    37    29    38    1
    38    38    39    1
    39     5    40   ar
    40    40    41   ar
    41    41    42   ar
    42    42     3   ar
    43    26     6    1
    44    36    31   ar
    45    23    10   ar
    46    39    26    1
    47    21    14   ar
    48     1    43    1
    49     1    44    1
    50     1    45    1
    51     4    46    1
    52    11    47    1
    53    12    48    1
    54    15    49    1
    55    16    50    1
    56    20    51    1
    57    22    52    1
    58    23    53    1
    59    27    54    1
    60    27    55    1
    61    28    56    1
    62    28    57    1
    63    30    58    1
    64    30    59    1
    65    33    60    1
    66    34    61    1
    67    35    62    1
    68    37    63    1
    69    37    64    1
    70    37    65    1
    71    38    66    1
    72    38    67    1
    73    39    68    1
    74    39    69    1
    75    41    70    1
