@<TRIPOS>MOLECULE
*****
 39 41 0 0 0
SMALL
GASTEIGER

@<TRIPOS>ATOM
      1 C          -0.4587   -0.6572    0.0897 C.3     1  UNL1        0.1032
      2 C          -1.0851   -1.5246   -0.9475 C.3     1  UNL1        0.0546
      3 N          -2.3489   -2.1022   -0.5388 N.ar    1  UNL1       -0.3340
      4 C          -3.5382   -1.4707   -0.7584 C.ar    1  UNL1        0.0241
      5 C          -4.5227   -2.2781   -0.2624 C.ar    1  UNL1        0.0454
      6 N          -3.9785   -3.3794    0.2520 N.ar    1  UNL1       -0.2441
      7 C          -2.6651   -3.2747    0.0858 C.ar    1  UNL1        0.0960
      8 O           0.7546   -0.1057   -0.3030 O.3     1  UNL1       -0.3656
      9 C           1.8338   -0.5055    0.4660 C.3     1  UNL1        0.0736
     10 C           3.1017    0.1172   -0.0026 C.ar    1  UNL1       -0.0218
     11 C           3.8931   -0.5038   -0.9609 C.ar    1  UNL1       -0.0550
     12 C           5.0595    0.0162   -1.4269 C.ar    1  UNL1       -0.0431
     13 C           5.4734    1.2419   -0.9058 C.ar    1  UNL1        0.0410
     14 CL          6.9695    1.9404   -1.4827 Cl      1  UNL1       -0.0835
     15 C           4.7325    1.9187    0.0544 C.ar    1  UNL1       -0.0431
     16 C           3.5674    1.3304    0.4745 C.ar    1  UNL1       -0.0550
     17 C          -1.3102    0.4398    0.5559 C.ar    1  UNL1        0.0012
     18 C          -2.1405    0.4745    1.6580 C.ar    1  UNL1        0.0480
     19 CL         -2.1785   -0.9558    2.6356 Cl      1  UNL1       -0.0831
     20 C          -2.8977    1.5822    1.9766 C.ar    1  UNL1       -0.0247
     21 C          -2.8137    2.6857    1.1592 C.ar    1  UNL1        0.0424
     22 CL         -3.7931    4.0697    1.6022 Cl      1  UNL1       -0.0835
     23 C          -2.0087    2.7336    0.0391 C.ar    1  UNL1       -0.0430
     24 C          -1.2722    1.5803   -0.2226 C.ar    1  UNL1       -0.0533
     25 H          -0.2273   -1.3056    0.9613 H       1  UNL1        0.0665
     26 H          -1.2349   -0.9773   -1.9258 H       1  UNL1        0.0521
     27 H          -0.4511   -2.3881   -1.2365 H       1  UNL1        0.0521
     28 H          -3.6960   -0.5054   -1.2367 H       1  UNL1        0.0825
     29 H          -5.5873   -2.0777   -0.2731 H       1  UNL1        0.0845
     30 H          -1.8128   -3.9213    0.3421 H       1  UNL1        0.1029
     31 H           1.7006   -0.1241    1.5015 H       1  UNL1        0.0610
     32 H           1.9334   -1.5873    0.3893 H       1  UNL1        0.0610
     33 H           3.5352   -1.4686   -1.3489 H       1  UNL1        0.0621
     34 H           5.6294   -0.5207   -2.1762 H       1  UNL1        0.0632
     35 H           5.0494    2.8737    0.4643 H       1  UNL1        0.0632
     36 H           2.9195    1.7959    1.2307 H       1  UNL1        0.0621
     37 H          -3.5344    1.5634    2.8503 H       1  UNL1        0.0647
     38 H          -1.9522    3.6063   -0.5937 H       1  UNL1        0.0632
     39 H          -0.6453    1.6638   -1.1243 H       1  UNL1        0.0622
@<TRIPOS>BOND
     1     1     2    1
     2     2     3    1
     3     3     4   ar
     4     4     5   ar
     5     5     6   ar
     6     6     7   ar
     7     1     8    1
     8     8     9    1
     9     9    10    1
    10    10    11   ar
    11    11    12   ar
    12    12    13   ar
    13    13    14    1
    14    13    15   ar
    15    15    16   ar
    16     1    17    1
    17    17    18   ar
    18    18    19    1
    19    18    20   ar
    20    20    21   ar
    21    21    22    1
    22    21    23   ar
    23    23    24   ar
    24     7     3   ar
    25    16    10   ar
    26    24    17   ar
    27     1    25    1
    28     2    26    1
    29     2    27    1
    30     4    28    1
    31     5    29    1
    32     7    30    1
    33     9    31    1
    34     9    32    1
    35    11    33    1
    36    12    34    1
    37    15    35    1
    38    16    36    1
    39    20    37    1
    40    23    38    1
    41    24    39    1
