
     RDKit          3D

 88 89  0  0  0  0  0  0  0  0999 V2000
   10.2138   -3.0784   -0.0407 C   0  0  0  0  0  0  0  0  0  0  0  0
    9.4890   -3.3067    1.2580 C   0  0  0  0  0  0  0  0  0  0  0  0
    8.1698   -2.7587    1.2590 O   0  0  0  0  0  0  0  0  0  0  0  0
    7.9842   -1.3776    1.0670 C   0  0  0  0  0  0  0  0  0  0  0  0
    9.0212   -0.7168    0.9015 O   0  0  0  0  0  0  0  0  0  0  0  0
    6.6456   -0.8004    1.0719 C   0  0  0  0  0  0  0  0  0  0  0  0
    6.5154    0.4970    0.8951 C   0  0  0  0  0  0  0  0  0  0  0  0
    5.2530    1.2476    0.8738 C   0  0  2  0  0  0  0  0  0  0  0  0
    5.3093    2.2962    1.9865 C   0  0  0  0  0  0  0  0  0  0  0  0
    5.4753    1.7105    3.3199 C   0  0  0  0  0  0  0  0  0  0  0  0
    5.8157    2.4253    4.2898 O   0  0  0  0  0  0  0  0  0  0  0  0
    5.2598    0.3655    3.5320 O   0  0  0  0  0  0  0  0  0  0  0  0
    4.1105    0.3976    0.9909 N   0  0  0  0  0  0  0  0  0  0  0  0
    2.9651    0.5619    0.1391 C   0  0  0  0  0  0  0  0  0  0  0  0
    3.1024    1.5257   -0.7108 O   0  0  0  0  0  0  0  0  0  0  0  0
    1.7301   -0.2164    0.1603 C   0  0  1  0  0  0  0  0  0  0  0  0
    0.7866    0.4514   -0.7639 N   0  0  0  0  0  0  0  0  0  0  0  0
   -0.5668    0.7107   -0.4109 C   0  0  0  0  0  0  0  0  0  0  0  0
   -0.9403    0.3167    0.7246 O   0  0  0  0  0  0  0  0  0  0  0  0
   -1.5021    1.4070   -1.3179 C   0  0  1  0  0  0  0  0  0  0  0  0
   -2.8735    1.3551   -0.7924 N   0  0  0  0  0  0  0  0  0  0  0  0
   -3.9581    1.0803   -1.6713 C   0  0  0  0  0  0  0  0  0  0  0  0
   -3.6342    0.8958   -2.8946 O   0  0  0  0  0  0  0  0  0  0  0  0
   -5.3651    1.0197   -1.2142 C   0  0  2  0  0  0  0  0  0  0  0  0
   -6.0232    2.3556   -1.5253 C   0  0  0  0  0  0  0  0  0  0  0  0
   -6.0498    2.6607   -2.9538 C   0  0  0  0  0  0  0  0  0  0  0  0
   -5.6966    1.8661   -3.8546 O   0  0  0  0  0  0  0  0  0  0  0  0
   -6.4951    3.9214   -3.4217 O   0  0  0  0  0  0  0  0  0  0  0  0
   -5.4739    0.7921    0.2313 N   0  0  0  0  0  0  0  0  0  0  0  0
   -6.4691   -0.1534    0.6773 C   0  0  0  0  0  0  0  0  0  0  0  0
   -7.1837   -0.7005   -0.2016 O   0  0  0  0  0  0  0  0  0  0  0  0
   -6.6352   -0.4469    1.9982 O   0  0  0  0  0  0  0  0  0  0  0  0
   -7.5858   -1.3381    2.5154 C   0  0  0  0  0  0  0  0  0  0  0  0
   -7.4680   -2.7085    1.9897 C   0  0  0  0  0  0  0  0  0  0  0  0
   -6.5666   -3.5862    2.5466 C   0  0  0  0  0  0  0  0  0  0  0  0
   -6.4106   -4.8885    2.1235 C   0  0  0  0  0  0  0  0  0  0  0  0
   -7.2279   -5.3081    1.0705 C   0  0  0  0  0  0  0  0  0  0  0  0
   -8.1398   -4.4513    0.4942 C   0  0  0  0  0  0  0  0  0  0  0  0
   -8.2638   -3.1578    0.9475 C   0  0  0  0  0  0  0  0  0  0  0  0
   -1.1193    2.8575   -1.4545 C   0  0  0  0  0  0  0  0  0  0  0  0
    0.0415    3.3388   -0.9155 C   0  0  0  0  0  0  0  0  0  0  0  0
    0.4368    4.6766   -1.0360 C   0  0  0  0  0  0  0  0  0  0  0  0
   -0.3498    5.5680   -1.7162 C   0  0  0  0  0  0  0  0  0  0  0  0
   -1.5477    5.0760   -2.2732 C   0  0  0  0  0  0  0  0  0  0  0  0
   -1.9176    3.7574   -2.1432 C   0  0  0  0  0  0  0  0  0  0  0  0
    1.9907   -1.5739   -0.4673 C   0  0  0  0  0  0  0  0  0  0  0  0
    2.4513   -1.3097   -1.8921 C   0  0  0  0  0  0  0  0  0  0  0  0
    2.9384   -2.4317    0.3041 C   0  0  0  0  0  0  0  0  0  0  0  0
   11.2297   -2.6858    0.2265 H   0  0  0  0  0  0  0  0  0  0  0  0
   10.4000   -4.0406   -0.5578 H   0  0  0  0  0  0  0  0  0  0  0  0
    9.7117   -2.3445   -0.6667 H   0  0  0  0  0  0  0  0  0  0  0  0
    9.3765   -4.3995    1.4012 H   0  0  0  0  0  0  0  0  0  0  0  0
   10.0699   -2.9478    2.1366 H   0  0  0  0  0  0  0  0  0  0  0  0
    5.8011   -1.4453    1.2151 H   0  0  0  0  0  0  0  0  0  0  0  0
    7.4844    1.0293    0.7545 H   0  0  0  0  0  0  0  0  0  0  0  0
    5.2181    1.8730   -0.0623 H   0  0  0  0  0  0  0  0  0  0  0  0
    6.1689    2.9603    1.6792 H   0  0  0  0  0  0  0  0  0  0  0  0
    4.3994    2.9213    1.8888 H   0  0  0  0  0  0  0  0  0  0  0  0
    5.4579   -0.1459    4.3785 H   0  0  0  0  0  0  0  0  0  0  0  0
    4.0454   -0.3753    1.6844 H   0  0  0  0  0  0  0  0  0  0  0  0
    1.2648   -0.3201    1.1602 H   0  0  0  0  0  0  0  0  0  0  0  0
    1.0973    0.7483   -1.7127 H   0  0  0  0  0  0  0  0  0  0  0  0
   -1.4998    1.0153   -2.3420 H   0  0  0  0  0  0  0  0  0  0  0  0
   -3.0368    1.5224    0.2131 H   0  0  0  0  0  0  0  0  0  0  0  0
   -5.9364    0.2409   -1.7425 H   0  0  0  0  0  0  0  0  0  0  0  0
   -7.0962    2.2960   -1.1678 H   0  0  0  0  0  0  0  0  0  0  0  0
   -5.5111    3.2018   -0.9954 H   0  0  0  0  0  0  0  0  0  0  0  0
   -6.4704    4.1435   -4.3994 H   0  0  0  0  0  0  0  0  0  0  0  0
   -4.8821    1.2820    0.8813 H   0  0  0  0  0  0  0  0  0  0  0  0
   -7.5203   -1.3398    3.6369 H   0  0  0  0  0  0  0  0  0  0  0  0
   -8.5945   -0.9029    2.2479 H   0  0  0  0  0  0  0  0  0  0  0  0
   -5.9398   -3.2414    3.3656 H   0  0  0  0  0  0  0  0  0  0  0  0
   -5.6953   -5.5809    2.5615 H   0  0  0  0  0  0  0  0  0  0  0  0
   -7.1209   -6.3207    0.7279 H   0  0  0  0  0  0  0  0  0  0  0  0
   -8.7446   -4.8514   -0.3258 H   0  0  0  0  0  0  0  0  0  0  0  0
   -8.9910   -2.5290    0.4832 H   0  0  0  0  0  0  0  0  0  0  0  0
    0.7064    2.7160   -0.3585 H   0  0  0  0  0  0  0  0  0  0  0  0
    1.3579    5.0128   -0.5943 H   0  0  0  0  0  0  0  0  0  0  0  0
   -0.1166    6.6095   -1.8557 H   0  0  0  0  0  0  0  0  0  0  0  0
   -2.1521    5.7935   -2.8091 H   0  0  0  0  0  0  0  0  0  0  0  0
   -2.8382    3.4212   -2.5779 H   0  0  0  0  0  0  0  0  0  0  0  0
    0.9842   -2.0938   -0.5170 H   0  0  0  0  0  0  0  0  0  0  0  0
    2.8675   -2.2798   -2.2675 H   0  0  0  0  0  0  0  0  0  0  0  0
    1.5748   -1.0769   -2.5471 H   0  0  0  0  0  0  0  0  0  0  0  0
    3.2414   -0.5593   -1.9381 H   0  0  0  0  0  0  0  0  0  0  0  0
    2.7957   -2.3667    1.3813 H   0  0  0  0  0  0  0  0  0  0  0  0
    3.9663   -2.2641   -0.0530 H   0  0  0  0  0  0  0  0  0  0  0  0
    2.6848   -3.5001    0.0162 H   0  0  0  0  0  0  0  0  0  0  0  0
  1  2  1  0
  2  3  1  0
  3  4  1  0
  4  5  2  0
  4  6  1  0
  6  7  2  0
  7  8  1  0
  8  9  1  0
  9 10  1  0
 10 11  2  0
 10 12  1  0
  8 13  1  0
 13 14  1  0
 14 15  2  0
 14 16  1  0
 16 17  1  0
 17 18  1  0
 18 19  2  0
 18 20  1  0
 20 21  1  0
 21 22  1  0
 22 23  2  0
 22 24  1  0
 24 25  1  0
 25 26  1  0
 26 27  2  0
 26 28  1  0
 24 29  1  0
 29 30  1  0
 30 31  2  0
 30 32  1  0
 32 33  1  0
 33 34  1  0
 34 35  2  0
 35 36  1  0
 36 37  2  0
 37 38  1  0
 38 39  2  0
 20 40  1  0
 40 41  2  0
 41 42  1  0
 42 43  2  0
 43 44  1  0
 44 45  2  0
 16 46  1  0
 46 47  1  0
 46 48  1  0
 39 34  1  0
 45 40  1  0
  1 49  1  0
  1 50  1  0
  1 51  1  0
  2 52  1  0
  2 53  1  0
  6 54  1  0
  7 55  1  0
  8 56  1  6
  9 57  1  0
  9 58  1  0
 12 59  1  0
 13 60  1  0
 16 61  1  1
 17 62  1  0
 20 63  1  6
 21 64  1  0
 24 65  1  6
 25 66  1  0
 25 67  1  0
 28 68  1  0
 29 69  1  0
 33 70  1  0
 33 71  1  0
 35 72  1  0
 36 73  1  0
 37 74  1  0
 38 75  1  0
 39 76  1  0
 41 77  1  0
 42 78  1  0
 43 79  1  0
 44 80  1  0
 45 81  1  0
 46 82  1  0
 47 83  1  0
 47 84  1  0
 47 85  1  0
 48 86  1  0
 48 87  1  0
 48 88  1  0
M  END
$$$$
