@<TRIPOS>MOLECULE
*****
 88 89 0 0 0
SMALL
GASTEIGER

@<TRIPOS>ATOM
      1 C          10.2138   -3.0784   -0.0407 C.3     1  UNL1       -0.0306
      2 C           9.4890   -3.3067    1.2580 C.3     1  UNL1        0.0900
      3 O           8.1698   -2.7587    1.2590 O.3     1  UNL1       -0.4618
      4 C           7.9842   -1.3776    1.0670 C.2     1  UNL1        0.3317
      5 O           9.0212   -0.7168    0.9015 O.2     1  UNL1       -0.2456
      6 C           6.6456   -0.8004    1.0719 C.2     1  UNL1        0.0203
      7 C           6.5154    0.4970    0.8951 C.2     1  UNL1       -0.0567
      8 C           5.2530    1.2476    0.8738 C.3     1  UNL1        0.0521
      9 C           5.3093    2.2962    1.9865 C.3     1  UNL1        0.0667
     10 C           5.4753    1.7105    3.3199 C.2     1  UNL1        0.3068
     11 O           5.8157    2.4253    4.2898 O.2     1  UNL1       -0.2509
     12 O           5.2598    0.3655    3.5320 O.3     1  UNL1       -0.4806
     13 N           4.1105    0.3976    0.9909 N.am    1  UNL1       -0.3070
     14 C           2.9651    0.5619    0.1391 C.2     1  UNL1        0.2341
     15 O           3.1024    1.5257   -0.7108 O.2     1  UNL1       -0.2738
     16 C           1.7301   -0.2164    0.1603 C.3     1  UNL1        0.1017
     17 N           0.7866    0.4514   -0.7639 N.am    1  UNL1       -0.3019
     18 C          -0.5668    0.7107   -0.4109 C.2     1  UNL1        0.2385
     19 O          -0.9403    0.3167    0.7246 O.2     1  UNL1       -0.2734
     20 C          -1.5021    1.4070   -1.3179 C.3     1  UNL1        0.1250
     21 N          -2.8735    1.3551   -0.7924 N.am    1  UNL1       -0.2988
     22 C          -3.9581    1.0803   -1.6713 C.2     1  UNL1        0.2348
     23 O          -3.6342    0.8958   -2.8946 O.2     1  UNL1       -0.2737
     24 C          -5.3651    1.0197   -1.2142 C.3     1  UNL1        0.1125
     25 C          -6.0232    2.3556   -1.5253 C.3     1  UNL1        0.0717
     26 C          -6.0498    2.6607   -2.9538 C.2     1  UNL1        0.3070
     27 O          -5.6966    1.8661   -3.8546 O.2     1  UNL1       -0.2509
     28 O          -6.4951    3.9214   -3.4217 O.3     1  UNL1       -0.4806
     29 N          -5.4739    0.7921    0.2313 N.am    1  UNL1       -0.2693
     30 C          -6.4691   -0.1534    0.6773 C.2     1  UNL1        0.4012
     31 O          -7.1837   -0.7005   -0.2016 O.2     1  UNL1       -0.2265
     32 O          -6.6352   -0.4469    1.9982 O.3     1  UNL1       -0.4456
     33 C          -7.5858   -1.3381    2.5154 C.3     1  UNL1        0.1191
     34 C          -7.4680   -2.7085    1.9897 C.ar    1  UNL1       -0.0103
     35 C          -6.5666   -3.5862    2.5466 C.ar    1  UNL1       -0.0554
     36 C          -6.4106   -4.8885    2.1235 C.ar    1  UNL1       -0.0614
     37 C          -7.2279   -5.3081    1.0705 C.ar    1  UNL1       -0.0617
     38 C          -8.1398   -4.4513    0.4942 C.ar    1  UNL1       -0.0614
     39 C          -8.2638   -3.1578    0.9475 C.ar    1  UNL1       -0.0554
     40 C          -1.1193    2.8575   -1.4545 C.ar    1  UNL1       -0.0184
     41 C           0.0415    3.3388   -0.9155 C.ar    1  UNL1       -0.0563
     42 C           0.4368    4.6766   -1.0360 C.ar    1  UNL1       -0.0614
     43 C          -0.3498    5.5680   -1.7162 C.ar    1  UNL1       -0.0617
     44 C          -1.5477    5.0760   -2.2732 C.ar    1  UNL1       -0.0614
     45 C          -1.9176    3.7574   -2.1432 C.ar    1  UNL1       -0.0563
     46 C           1.9907   -1.5739   -0.4673 C.3     1  UNL1       -0.0197
     47 C           2.4513   -1.3097   -1.8921 C.3     1  UNL1       -0.0605
     48 C           2.9384   -2.4317    0.3041 C.3     1  UNL1       -0.0605
     49 H          11.2297   -2.6858    0.2265 H       1  UNL1        0.0262
     50 H          10.4000   -4.0406   -0.5578 H       1  UNL1        0.0262
     51 H           9.7117   -2.3445   -0.6667 H       1  UNL1        0.0262
     52 H           9.3765   -4.3995    1.4012 H       1  UNL1        0.0695
     53 H          10.0699   -2.9478    2.1366 H       1  UNL1        0.0695
     54 H           5.8011   -1.4453    1.2151 H       1  UNL1        0.0686
     55 H           7.4844    1.0293    0.7545 H       1  UNL1        0.0593
     56 H           5.2181    1.8730   -0.0623 H       1  UNL1        0.0548
     57 H           6.1689    2.9603    1.6792 H       1  UNL1        0.0399
     58 H           4.3994    2.9213    1.8888 H       1  UNL1        0.0399
     59 H           5.4579   -0.1459    4.3785 H       1  UNL1        0.2951
     60 H           4.0454   -0.3753    1.6844 H       1  UNL1        0.1493
     61 H           1.2648   -0.3201    1.1602 H       1  UNL1        0.0597
     62 H           1.0973    0.7483   -1.7127 H       1  UNL1        0.1495
     63 H          -1.4998    1.0153   -2.3420 H       1  UNL1        0.0646
     64 H          -3.0368    1.5224    0.2131 H       1  UNL1        0.1498
     65 H          -5.9364    0.2409   -1.7425 H       1  UNL1        0.0601
     66 H          -7.0962    2.2960   -1.1678 H       1  UNL1        0.0401
     67 H          -5.5111    3.2018   -0.9954 H       1  UNL1        0.0401
     68 H          -6.4704    4.1435   -4.3994 H       1  UNL1        0.2951
     69 H          -4.8821    1.2820    0.8813 H       1  UNL1        0.1528
     70 H          -7.5203   -1.3398    3.6369 H       1  UNL1        0.0749
     71 H          -8.5945   -0.9029    2.2479 H       1  UNL1        0.0749
     72 H          -5.9398   -3.2414    3.3656 H       1  UNL1        0.0621
     73 H          -5.6953   -5.5809    2.5615 H       1  UNL1        0.0618
     74 H          -7.1209   -6.3207    0.7279 H       1  UNL1        0.0618
     75 H          -8.7446   -4.8514   -0.3258 H       1  UNL1        0.0618
     76 H          -8.9910   -2.5290    0.4832 H       1  UNL1        0.0621
     77 H           0.7064    2.7160   -0.3585 H       1  UNL1        0.0621
     78 H           1.3579    5.0128   -0.5943 H       1  UNL1        0.0618
     79 H          -0.1166    6.6095   -1.8557 H       1  UNL1        0.0618
     80 H          -2.1521    5.7935   -2.8091 H       1  UNL1        0.0618
     81 H          -2.8382    3.4212   -2.5779 H       1  UNL1        0.0621
     82 H           0.9842   -2.0938   -0.5170 H       1  UNL1        0.0318
     83 H           2.8675   -2.2798   -2.2675 H       1  UNL1        0.0233
     84 H           1.5748   -1.0769   -2.5471 H       1  UNL1        0.0233
     85 H           3.2414   -0.5593   -1.9381 H       1  UNL1        0.0233
     86 H           2.7957   -2.3667    1.3813 H       1  UNL1        0.0233
     87 H           3.9663   -2.2641   -0.0530 H       1  UNL1        0.0233
     88 H           2.6848   -3.5001    0.0162 H       1  UNL1        0.0233
@<TRIPOS>BOND
     1     1     2    1
     2     2     3    1
     3     3     4    1
     4     4     5    2
     5     4     6    1
     6     6     7    2
     7     7     8    1
     8     8     9    1
     9     9    10    1
    10    10    11    2
    11    10    12    1
    12     8    13    1
    13    13    14   am
    14    14    15    2
    15    14    16    1
    16    16    17    1
    17    17    18   am
    18    18    19    2
    19    18    20    1
    20    20    21    1
    21    21    22   am
    22    22    23    2
    23    22    24    1
    24    24    25    1
    25    25    26    1
    26    26    27    2
    27    26    28    1
    28    24    29    1
    29    29    30   am
    30    30    31    2
    31    30    32    1
    32    32    33    1
    33    33    34    1
    34    34    35   ar
    35    35    36   ar
    36    36    37   ar
    37    37    38   ar
    38    38    39   ar
    39    20    40    1
    40    40    41   ar
    41    41    42   ar
    42    42    43   ar
    43    43    44   ar
    44    44    45   ar
    45    16    46    1
    46    46    47    1
    47    46    48    1
    48    39    34   ar
    49    45    40   ar
    50     1    49    1
    51     1    50    1
    52     1    51    1
    53     2    52    1
    54     2    53    1
    55     6    54    1
    56     7    55    1
    57     8    56    1
    58     9    57    1
    59     9    58    1
    60    12    59    1
    61    13    60    1
    62    16    61    1
    63    17    62    1
    64    20    63    1
    65    21    64    1
    66    24    65    1
    67    25    66    1
    68    25    67    1
    69    28    68    1
    70    29    69    1
    71    33    70    1
    72    33    71    1
    73    35    72    1
    74    36    73    1
    75    37    74    1
    76    38    75    1
    77    39    76    1
    78    41    77    1
    79    42    78    1
    80    43    79    1
    81    44    80    1
    82    45    81    1
    83    46    82    1
    84    47    83    1
    85    47    84    1
    86    47    85    1
    87    48    86    1
    88    48    87    1
    89    48    88    1
