@<TRIPOS>MOLECULE
*****
 58 61 0 0 0
SMALL
GASTEIGER

@<TRIPOS>ATOM
      1 C           6.5822    1.2062   -3.0275 C.3     1  UNL1        0.0365
      2 O           5.5855    0.6559   -2.2285 O.3     1  UNL1       -0.3814
      3 C           5.9969    0.6368   -0.9178 C.3     1  UNL1        0.0645
      4 C           4.8916    0.0331   -0.0747 C.3     1  UNL1        0.0552
      5 C           5.4518   -0.0839    1.3407 C.3     1  UNL1       -0.0323
      6 C           5.8799   -1.5569    1.3777 C.3     1  UNL1       -0.0370
      7 C           4.7286   -2.1809    0.5780 C.3     1  UNL1        0.0209
      8 N           4.6410   -1.2950   -0.5366 N.3     1  UNL1       -0.1713
      9 S           3.1948   -1.4488   -1.4373 S.O2    1  UNL1        0.0612
     10 O           3.0812   -2.8463   -1.9767 O.2     1  UNL1       -0.1528
     11 O           3.2543   -0.5275   -2.6227 O.2     1  UNL1       -0.1528
     12 C           1.7721   -1.0980   -0.5279 C.ar    1  UNL1        0.1063
     13 C           1.2928    0.1948   -0.4935 C.ar    1  UNL1       -0.0335
     14 C           0.1601    0.5532    0.2124 C.ar    1  UNL1       -0.0377
     15 C          -0.5083   -0.4348    0.9066 C.ar    1  UNL1        0.0481
     16 C          -0.0345   -1.7514    0.8816 C.ar    1  UNL1        0.0502
     17 C           1.0938   -2.0732    0.1704 C.ar    1  UNL1       -0.0226
     18 C          -0.9126   -2.6068    1.6927 C.2     1  UNL1        0.2496
     19 O          -0.7786   -3.8341    1.8841 O.2     1  UNL1       -0.2817
     20 C          -1.9395   -1.7105    2.2009 C.2     1  UNL1        0.2915
     21 O          -2.8922   -2.0426    2.9426 O.2     1  UNL1       -0.2661
     22 N          -1.6740   -0.4044    1.7125 N.am    1  UNL1       -0.2598
     23 C          -2.4994    0.7438    2.0241 C.3     1  UNL1        0.0452
     24 C          -3.6132    0.9319    1.0603 C.ar    1  UNL1       -0.0295
     25 C          -4.8395    0.3417    1.2521 C.ar    1  UNL1       -0.0536
     26 C          -5.8702    0.5389    0.3256 C.ar    1  UNL1       -0.0196
     27 C          -5.7253    1.3130   -0.8003 C.ar    1  UNL1        0.1206
     28 O          -6.6915    1.5427   -1.7317 O.3     1  UNL1       -0.4911
     29 C          -7.9926    1.1684   -1.8686 C.3     1  UNL1        0.0991
     30 C          -8.9002    1.7028   -0.8003 C.3     1  UNL1        0.0375
     31 BR        -10.6910    1.0588   -1.1738 Br      1  UNL1       -0.0883
     32 C          -4.4584    1.9090   -0.9775 C.ar    1  UNL1       -0.0196
     33 C          -3.4528    1.7098   -0.0638 C.ar    1  UNL1       -0.0536
     34 H           6.7529    2.2371   -2.6532 H       1  UNL1        0.0523
     35 H           6.2141    1.1792   -4.0712 H       1  UNL1        0.0523
     36 H           7.4936    0.5700   -2.8820 H       1  UNL1        0.0523
     37 H           6.2925    1.6414   -0.5290 H       1  UNL1        0.0576
     38 H           6.8569   -0.0903   -0.8533 H       1  UNL1        0.0576
     39 H           3.9827    0.6787   -0.0755 H       1  UNL1        0.0502
     40 H           6.3381    0.5292    1.5005 H       1  UNL1        0.0282
     41 H           4.6703    0.0477    2.1070 H       1  UNL1        0.0282
     42 H           5.9356   -1.9469    2.3952 H       1  UNL1        0.0279
     43 H           6.8291   -1.6600    0.8002 H       1  UNL1        0.0279
     44 H           3.8479   -2.1417    1.2538 H       1  UNL1        0.0444
     45 H           5.0422   -3.2039    0.3360 H       1  UNL1        0.0444
     46 H           1.7885    1.0189   -1.0296 H       1  UNL1        0.0638
     47 H          -0.2003    1.5737    0.2287 H       1  UNL1        0.0637
     48 H           1.4365   -3.1207    0.1744 H       1  UNL1        0.0645
     49 H          -2.9682    0.5891    3.0331 H       1  UNL1        0.0518
     50 H          -1.8772    1.6833    2.0685 H       1  UNL1        0.0518
     51 H          -4.9927   -0.2777    2.1320 H       1  UNL1        0.0622
     52 H          -6.8166    0.0296    0.5181 H       1  UNL1        0.0654
     53 H          -8.3944    1.3933   -2.8910 H       1  UNL1        0.0705
     54 H          -8.0204    0.0307   -1.8047 H       1  UNL1        0.0705
     55 H          -8.9490    2.8141   -0.9102 H       1  UNL1        0.0415
     56 H          -8.5876    1.3879    0.1840 H       1  UNL1        0.0415
     57 H          -4.3351    2.5181   -1.8591 H       1  UNL1        0.0654
     58 H          -2.4723    2.1734   -0.2027 H       1  UNL1        0.0622
@<TRIPOS>BOND
     1     1     2    1
     2     2     3    1
     3     3     4    1
     4     4     5    1
     5     5     6    1
     6     6     7    1
     7     7     8    1
     8     8     9    1
     9     9    10    2
    10     9    11    2
    11     9    12    1
    12    12    13   ar
    13    13    14   ar
    14    14    15   ar
    15    15    16   ar
    16    16    17   ar
    17    16    18    1
    18    18    19    2
    19    18    20    1
    20    20    21    2
    21    20    22   am
    22    22    23    1
    23    23    24    1
    24    24    25   ar
    25    25    26   ar
    26    26    27   ar
    27    27    28    1
    28    28    29    1
    29    29    30    1
    30    30    31    1
    31    27    32   ar
    32    32    33   ar
    33     8     4    1
    34    17    12   ar
    35    33    24   ar
    36    22    15    1
    37     1    34    1
    38     1    35    1
    39     1    36    1
    40     3    37    1
    41     3    38    1
    42     4    39    1
    43     5    40    1
    44     5    41    1
    45     6    42    1
    46     6    43    1
    47     7    44    1
    48     7    45    1
    49    13    46    1
    50    14    47    1
    51    17    48    1
    52    23    49    1
    53    23    50    1
    54    25    51    1
    55    26    52    1
    56    29    53    1
    57    29    54    1
    58    30    55    1
    59    30    56    1
    60    32    57    1
    61    33    58    1
