@<TRIPOS>MOLECULE
*****
 54 57 0 0 0
SMALL
GASTEIGER

@<TRIPOS>ATOM
      1 C          -1.7508   -1.1570    2.1701 C.3     1  UNL1       -0.0352
      2 C          -1.1601   -0.6097    0.9207 C.3     1  UNL1        0.0950
      3 C           0.1171   -1.2784    0.5741 C.ar    1  UNL1        0.0168
      4 C           1.2713   -0.5267    0.5003 C.ar    1  UNL1       -0.0323
      5 C           2.5208   -1.0865    0.1731 C.ar    1  UNL1        0.0342
      6 N           3.6426   -0.2333    0.1239 N.am    1  UNL1       -0.2802
      7 C           4.9529   -0.6339   -0.1865 C.2     1  UNL1        0.2666
      8 O           5.2027   -1.8304   -0.4487 O.2     1  UNL1       -0.2682
      9 C           6.0663    0.3356   -0.2129 C.ar    1  UNL1        0.1257
     10 C           7.3342   -0.0785   -0.5181 C.ar    1  UNL1       -0.0298
     11 C           8.3973    0.8348   -0.5453 C.ar    1  UNL1       -0.0397
     12 C           8.1410    2.1593   -0.2584 C.ar    1  UNL1        0.0591
     13 CL          9.4506    3.3557   -0.2790 Cl      1  UNL1       -0.0820
     14 C           6.8541    2.5430    0.0447 C.ar    1  UNL1        0.0467
     15 N           5.8489    1.6222    0.0600 N.ar    1  UNL1       -0.2489
     16 C           2.4962   -2.4291   -0.0643 C.ar    1  UNL1       -0.0377
     17 C           1.3418   -3.2190    0.0027 C.ar    1  UNL1       -0.0243
     18 C           0.1427   -2.6285    0.3265 C.ar    1  UNL1        0.1290
     19 F          -1.0132   -3.3151    0.4172 F       1  UNL1       -0.2051
     20 C          -2.0592   -0.6917   -0.2734 C.3     1  UNL1        0.0166
     21 C          -3.3447    0.0788   -0.1301 C.3     1  UNL1        0.1164
     22 C          -3.7815    0.7093   -1.4536 C.3     1  UNL1       -0.0073
     23 C          -5.2604    0.6209   -1.6481 C.3     1  UNL1        0.0144
     24 C          -6.0569    0.7932   -0.3879 C.3     1  UNL1        0.2492
     25 F          -7.3722    0.4175   -0.6944 F       1  UNL1       -0.2057
     26 F          -6.1308    2.1276   -0.0082 F       1  UNL1       -0.2057
     27 C          -5.6107   -0.0932    0.7362 C.3     1  UNL1        0.0144
     28 C          -4.4322   -0.9029    0.2466 C.3     1  UNL1       -0.0073
     29 O          -3.2257    1.1517    0.7875 O.2     1  UNL1       -0.4592
     30 C          -1.9502    1.6105    1.0687 C.2     1  UNL1        0.2765
     31 N          -1.7299    3.0193    1.2887 N.pl3   1  UNL1       -0.3133
     32 N          -0.9296    0.8281    1.1456 N.2     1  UNL1       -0.2257
     33 H          -2.0989   -2.1887    2.1248 H       1  UNL1        0.0256
     34 H          -2.6508   -0.5265    2.4250 H       1  UNL1        0.0256
     35 H          -1.0416   -0.9679    3.0142 H       1  UNL1        0.0256
     36 H           1.2531    0.5448    0.6967 H       1  UNL1        0.0640
     37 H           3.5196    0.8192    0.3369 H       1  UNL1        0.1552
     38 H           7.5693   -1.1196   -0.7497 H       1  UNL1        0.0641
     39 H           9.4020    0.5115   -0.7863 H       1  UNL1        0.0633
     40 H           6.6798    3.5792    0.2644 H       1  UNL1        0.0844
     41 H           3.3763   -2.9516   -0.3179 H       1  UNL1        0.0637
     42 H           1.3710   -4.2728   -0.1925 H       1  UNL1        0.0647
     43 H          -2.2480   -1.7163   -0.6226 H       1  UNL1        0.0330
     44 H          -1.5006   -0.1900   -1.1189 H       1  UNL1        0.0330
     45 H          -3.2781    0.2023   -2.3065 H       1  UNL1        0.0305
     46 H          -3.4188    1.7765   -1.5060 H       1  UNL1        0.0305
     47 H          -5.5630   -0.2954   -2.2040 H       1  UNL1        0.0324
     48 H          -5.5520    1.4738   -2.3253 H       1  UNL1        0.0324
     49 H          -5.2185    0.5757    1.5515 H       1  UNL1        0.0324
     50 H          -6.4060   -0.6930    1.1829 H       1  UNL1        0.0324
     51 H          -4.1153   -1.6914    0.9259 H       1  UNL1        0.0305
     52 H          -4.7717   -1.4235   -0.6967 H       1  UNL1        0.0305
     53 H          -2.0693    3.5150    2.1385 H       1  UNL1        0.1466
     54 H          -1.2111    3.5452    0.5619 H       1  UNL1        0.1466
@<TRIPOS>BOND
     1     2     1    1
     2     2     3    1
     3     3     4   ar
     4     4     5   ar
     5     5     6    1
     6     6     7   am
     7     7     8    2
     8     7     9    1
     9     9    10   ar
    10    10    11   ar
    11    11    12   ar
    12    12    13    1
    13    12    14   ar
    14    14    15   ar
    15     5    16   ar
    16    16    17   ar
    17    17    18   ar
    18    18    19    1
    19     2    20    1
    20    20    21    1
    21    21    22    1
    22    22    23    1
    23    23    24    1
    24    24    25    1
    25    24    26    1
    26    24    27    1
    27    27    28    1
    28    21    29    1
    29    29    30    1
    30    30    31    1
    31    30    32    2
    32    32     2    1
    33    18     3   ar
    34    28    21    1
    35    15     9   ar
    36     1    33    1
    37     1    34    1
    38     1    35    1
    39     4    36    1
    40     6    37    1
    41    10    38    1
    42    11    39    1
    43    14    40    1
    44    16    41    1
    45    17    42    1
    46    20    43    1
    47    20    44    1
    48    22    45    1
    49    22    46    1
    50    23    47    1
    51    23    48    1
    52    27    49    1
    53    27    50    1
    54    28    51    1
    55    28    52    1
    56    31    53    1
    57    31    54    1
