
     RDKit          3D

 52 55  0  0  0  0  0  0  0  0999 V2000
   -2.1047   -3.6931    1.3999 C   0  0  0  0  0  0  0  0  0  0  0  0
   -2.0544   -2.3599    0.8787 N   0  0  0  0  0  0  0  0  0  0  0  0
   -3.2913   -1.9101    0.2948 C   0  0  0  0  0  0  0  0  0  0  0  0
   -3.2809   -2.4075   -1.1351 C   0  0  0  0  0  0  0  0  0  0  0  0
   -1.8368   -2.7277   -1.3870 C   0  0  0  0  0  0  0  0  0  0  0  0
   -1.1157   -2.1899   -0.1902 C   0  0  0  0  0  0  0  0  0  0  0  0
   -0.8618   -0.7143   -0.3763 C   0  0  0  0  0  0  0  0  0  0  0  0
    0.5058   -0.4430    0.1659 C   0  0  0  0  0  0  0  0  0  0  0  0
    1.5556    0.0852   -0.5279 C   0  0  0  0  0  0  0  0  0  0  0  0
    2.6001    0.1507    0.3777 C   0  0  0  0  0  0  0  0  0  0  0  0
    3.9744    0.6384    0.1764 C   0  0  0  0  0  0  0  0  0  0  0  0
    4.7606    0.5155    1.4557 C   0  0  0  0  0  0  0  0  0  0  0  0
    4.6726   -0.1273   -0.9245 C   0  0  0  0  0  0  0  0  0  0  0  0
    4.0094    2.1090   -0.2337 C   0  0  0  0  0  0  0  0  0  0  0  0
    2.1089   -0.3321    1.5193 N   0  0  0  0  0  0  0  0  0  0  0  0
    0.8855   -0.6777    1.3917 O   0  0  0  0  0  0  0  0  0  0  0  0
   -1.8440    0.0995    0.4572 C   0  0  0  0  0  0  0  0  0  0  0  0
   -1.7176    1.5233    0.1680 C   0  0  0  0  0  0  0  0  0  0  0  0
   -1.3443    2.4002    1.1628 C   0  0  0  0  0  0  0  0  0  0  0  0
   -1.2163    3.7618    0.9142 C   0  0  0  0  0  0  0  0  0  0  0  0
   -1.4783    4.2183   -0.3794 C   0  0  0  0  0  0  0  0  0  0  0  0
   -1.3112    5.9389   -0.6718 Cl  0  0  0  0  0  0  0  0  0  0  0  0
   -1.8525    3.3659   -1.3914 C   0  0  0  0  0  0  0  0  0  0  0  0
   -1.9648    2.0161   -1.0872 C   0  0  0  0  0  0  0  0  0  0  0  0
   -3.2735   -0.3971    0.2348 C   0  0  0  0  0  0  0  0  0  0  0  0
   -3.0284   -4.2366    1.2011 H   0  0  0  0  0  0  0  0  0  0  0  0
   -1.1884   -4.2571    1.0681 H   0  0  0  0  0  0  0  0  0  0  0  0
   -1.9841   -3.6180    2.5170 H   0  0  0  0  0  0  0  0  0  0  0  0
   -4.1907   -2.3080    0.7870 H   0  0  0  0  0  0  0  0  0  0  0  0
   -3.9511   -3.2813   -1.2763 H   0  0  0  0  0  0  0  0  0  0  0  0
   -3.6133   -1.6317   -1.8549 H   0  0  0  0  0  0  0  0  0  0  0  0
   -1.5020   -2.2578   -2.3407 H   0  0  0  0  0  0  0  0  0  0  0  0
   -1.7605   -3.8443   -1.4582 H   0  0  0  0  0  0  0  0  0  0  0  0
   -0.1805   -2.7731   -0.0695 H   0  0  0  0  0  0  0  0  0  0  0  0
   -0.9307   -0.4306   -1.4341 H   0  0  0  0  0  0  0  0  0  0  0  0
    1.6214    0.4020   -1.5551 H   0  0  0  0  0  0  0  0  0  0  0  0
    5.8310    0.6242    1.2009 H   0  0  0  0  0  0  0  0  0  0  0  0
    4.5002    1.4181    2.0761 H   0  0  0  0  0  0  0  0  0  0  0  0
    4.5662   -0.4240    2.0030 H   0  0  0  0  0  0  0  0  0  0  0  0
    5.7593    0.0411   -0.8022 H   0  0  0  0  0  0  0  0  0  0  0  0
    4.5126   -1.2208   -0.8412 H   0  0  0  0  0  0  0  0  0  0  0  0
    4.3747    0.2930   -1.8969 H   0  0  0  0  0  0  0  0  0  0  0  0
    3.3061    2.7082    0.3614 H   0  0  0  0  0  0  0  0  0  0  0  0
    5.0717    2.4328   -0.1250 H   0  0  0  0  0  0  0  0  0  0  0  0
    3.7733    2.1532   -1.3315 H   0  0  0  0  0  0  0  0  0  0  0  0
   -1.6107   -0.1374    1.5156 H   0  0  0  0  0  0  0  0  0  0  0  0
   -1.1451    2.0230    2.1630 H   0  0  0  0  0  0  0  0  0  0  0  0
   -0.9251    4.4215    1.7037 H   0  0  0  0  0  0  0  0  0  0  0  0
   -2.0419    3.7759   -2.3707 H   0  0  0  0  0  0  0  0  0  0  0  0
   -2.2566    1.3393   -1.8695 H   0  0  0  0  0  0  0  0  0  0  0  0
   -3.6335   -0.0291   -0.7340 H   0  0  0  0  0  0  0  0  0  0  0  0
   -3.8987   -0.0256    1.0705 H   0  0  0  0  0  0  0  0  0  0  0  0
  1  2  1  0
  2  3  1  0
  3  4  1  0
  4  5  1  0
  5  6  1  0
  6  7  1  0
  7  8  1  0
  8  9  2  0
  9 10  1  0
 10 11  1  0
 11 12  1  0
 11 13  1  0
 11 14  1  0
 10 15  2  0
 15 16  1  0
  7 17  1  0
 17 18  1  0
 18 19  2  0
 19 20  1  0
 20 21  2  0
 21 22  1  0
 21 23  1  0
 23 24  2  0
 17 25  1  0
  6  2  1  0
 16  8  1  0
 24 18  1  0
 25  3  1  0
  1 26  1  0
  1 27  1  0
  1 28  1  0
  3 29  1  0
  4 30  1  0
  4 31  1  0
  5 32  1  0
  5 33  1  0
  6 34  1  0
  7 35  1  0
  9 36  1  0
 12 37  1  0
 12 38  1  0
 12 39  1  0
 13 40  1  0
 13 41  1  0
 13 42  1  0
 14 43  1  0
 14 44  1  0
 14 45  1  0
 17 46  1  0
 19 47  1  0
 20 48  1  0
 23 49  1  0
 24 50  1  0
 25 51  1  0
 25 52  1  0
M  END
$$$$
