@<TRIPOS>MOLECULE
*****
 52 55 0 0 0
SMALL
GASTEIGER

@<TRIPOS>ATOM
      1 C          -2.1047   -3.6931    1.3999 C.3     1  UNL1       -0.0122
      2 N          -2.0544   -2.3599    0.8787 N.3     1  UNL1       -0.2988
      3 C          -3.2913   -1.9101    0.2948 C.3     1  UNL1        0.0110
      4 C          -3.2809   -2.4075   -1.1351 C.3     1  UNL1       -0.0359
      5 C          -1.8368   -2.7277   -1.3870 C.3     1  UNL1       -0.0352
      6 C          -1.1157   -2.1899   -0.1902 C.3     1  UNL1        0.0208
      7 C          -0.8618   -0.7143   -0.3763 C.3     1  UNL1        0.0422
      8 C           0.5058   -0.4430    0.1659 C.ar    1  UNL1        0.1427
      9 C           1.5556    0.0852   -0.5279 C.ar    1  UNL1        0.0043
     10 C           2.6001    0.1507    0.3777 C.ar    1  UNL1        0.0892
     11 C           3.9744    0.6384    0.1764 C.3     1  UNL1        0.0077
     12 C           4.7606    0.5155    1.4557 C.3     1  UNL1       -0.0545
     13 C           4.6726   -0.1273   -0.9245 C.3     1  UNL1       -0.0545
     14 C           4.0094    2.1090   -0.2337 C.3     1  UNL1       -0.0545
     15 N           2.1089   -0.3321    1.5193 N.ar    1  UNL1       -0.0825
     16 O           0.8855   -0.6777    1.3917 O.2     1  UNL1       -0.3590
     17 C          -1.8440    0.0995    0.4572 C.3     1  UNL1       -0.0032
     18 C          -1.7176    1.5233    0.1680 C.ar    1  UNL1       -0.0434
     19 C          -1.3443    2.4002    1.1628 C.ar    1  UNL1       -0.0569
     20 C          -1.2163    3.7618    0.9142 C.ar    1  UNL1       -0.0431
     21 C          -1.4783    4.2183   -0.3794 C.ar    1  UNL1        0.0410
     22 CL         -1.3112    5.9389   -0.6718 Cl      1  UNL1       -0.0835
     23 C          -1.8525    3.3659   -1.3914 C.ar    1  UNL1       -0.0431
     24 C          -1.9648    2.0161   -1.0872 C.ar    1  UNL1       -0.0569
     25 C          -3.2735   -0.3971    0.2348 C.3     1  UNL1       -0.0298
     26 H          -3.0284   -4.2366    1.2011 H       1  UNL1        0.0391
     27 H          -1.1884   -4.2571    1.0681 H       1  UNL1        0.0391
     28 H          -1.9841   -3.6180    2.5170 H       1  UNL1        0.0391
     29 H          -4.1907   -2.3080    0.7870 H       1  UNL1        0.0463
     30 H          -3.9511   -3.2813   -1.2763 H       1  UNL1        0.0281
     31 H          -3.6133   -1.6317   -1.8549 H       1  UNL1        0.0281
     32 H          -1.5020   -2.2578   -2.3407 H       1  UNL1        0.0281
     33 H          -1.7605   -3.8443   -1.4582 H       1  UNL1        0.0281
     34 H          -0.1805   -2.7731   -0.0695 H       1  UNL1        0.0470
     35 H          -0.9307   -0.4306   -1.4341 H       1  UNL1        0.0401
     36 H           1.6214    0.4020   -1.5551 H       1  UNL1        0.0671
     37 H           5.8310    0.6242    1.2009 H       1  UNL1        0.0239
     38 H           4.5002    1.4181    2.0761 H       1  UNL1        0.0239
     39 H           4.5662   -0.4240    2.0030 H       1  UNL1        0.0239
     40 H           5.7593    0.0411   -0.8022 H       1  UNL1        0.0239
     41 H           4.5126   -1.2208   -0.8412 H       1  UNL1        0.0239
     42 H           4.3747    0.2930   -1.8969 H       1  UNL1        0.0239
     43 H           3.3061    2.7082    0.3614 H       1  UNL1        0.0239
     44 H           5.0717    2.4328   -0.1250 H       1  UNL1        0.0239
     45 H           3.7733    2.1532   -1.3315 H       1  UNL1        0.0239
     46 H          -1.6107   -0.1374    1.5156 H       1  UNL1        0.0357
     47 H          -1.1451    2.0230    2.1630 H       1  UNL1        0.0621
     48 H          -0.9251    4.4215    1.7037 H       1  UNL1        0.0632
     49 H          -2.0419    3.7759   -2.3707 H       1  UNL1        0.0632
     50 H          -2.2566    1.3393   -1.8695 H       1  UNL1        0.0621
     51 H          -3.6335   -0.0291   -0.7340 H       1  UNL1        0.0286
     52 H          -3.8987   -0.0256    1.0705 H       1  UNL1        0.0286
@<TRIPOS>BOND
     1     1     2    1
     2     2     3    1
     3     3     4    1
     4     4     5    1
     5     5     6    1
     6     6     7    1
     7     7     8    1
     8     8     9   ar
     9     9    10   ar
    10    10    11    1
    11    11    12    1
    12    11    13    1
    13    11    14    1
    14    10    15   ar
    15    15    16   ar
    16     7    17    1
    17    17    18    1
    18    18    19   ar
    19    19    20   ar
    20    20    21   ar
    21    21    22    1
    22    21    23   ar
    23    23    24   ar
    24    17    25    1
    25     6     2    1
    26    16     8   ar
    27    24    18   ar
    28    25     3    1
    29     1    26    1
    30     1    27    1
    31     1    28    1
    32     3    29    1
    33     4    30    1
    34     4    31    1
    35     5    32    1
    36     5    33    1
    37     6    34    1
    38     7    35    1
    39     9    36    1
    40    12    37    1
    41    12    38    1
    42    12    39    1
    43    13    40    1
    44    13    41    1
    45    13    42    1
    46    14    43    1
    47    14    44    1
    48    14    45    1
    49    17    46    1
    50    19    47    1
    51    20    48    1
    52    23    49    1
    53    24    50    1
    54    25    51    1
    55    25    52    1
