@<TRIPOS>MOLECULE
*****
 31 33 0 0 0
SMALL
GASTEIGER

@<TRIPOS>ATOM
      1 C          -0.4743   -0.1218   -0.6564 C.3     1  UNL1       -0.0217
      2 C          -1.1106    0.9212    0.1581 C.3     1  UNL1       -0.0235
      3 C          -2.5579    0.5222    0.3708 C.ar    1  UNL1       -0.0442
      4 C          -2.9680   -0.2281    1.4615 C.ar    1  UNL1       -0.0404
      5 C          -4.3071   -0.5848    1.6161 C.ar    1  UNL1        0.0278
      6 N          -5.2121   -0.2016    0.7056 N.ar    1  UNL1       -0.2632
      7 C          -4.8737    0.5221   -0.3639 C.ar    1  UNL1        0.0278
      8 C          -3.5408    0.8881   -0.5361 C.ar    1  UNL1       -0.0404
      9 C           0.9346   -0.0037   -1.0074 C.ar    1  UNL1       -0.0220
     10 C           1.4681    0.4067   -2.2398 C.ar    1  UNL1        0.0059
     11 N           2.7892    0.3839   -2.1746 N.ar    1  UNL1       -0.3604
     12 C           3.1639   -0.0241   -0.9524 C.ar    1  UNL1        0.0467
     13 C           4.3737   -0.2341   -0.3396 C.ar    1  UNL1       -0.0378
     14 C           4.4671   -0.6777    0.9758 C.ar    1  UNL1       -0.0598
     15 C           3.3176   -0.9231    1.7147 C.ar    1  UNL1       -0.0611
     16 C           2.0762   -0.7207    1.1230 C.ar    1  UNL1       -0.0523
     17 C           2.0328   -0.2797   -0.1847 C.ar    1  UNL1        0.0028
     18 H          -0.7042   -1.1145   -0.1526 H       1  UNL1        0.0317
     19 H          -1.0508   -0.1905   -1.6289 H       1  UNL1        0.0317
     20 H          -1.2114    1.9083   -0.3337 H       1  UNL1        0.0316
     21 H          -0.6953    0.9297    1.1668 H       1  UNL1        0.0316
     22 H          -2.1560   -0.4936    2.1530 H       1  UNL1        0.0635
     23 H          -4.4446   -1.1586    2.5039 H       1  UNL1        0.0829
     24 H          -5.6542    0.7912   -1.0508 H       1  UNL1        0.0829
     25 H          -3.3171    1.4638   -1.3976 H       1  UNL1        0.0635
     26 H           0.8510    0.6832   -3.0661 H       1  UNL1        0.0810
     27 H           3.4878    0.6348   -2.9275 H       1  UNL1        0.1653
     28 H           5.3197   -0.0612   -0.8665 H       1  UNL1        0.0638
     29 H           5.4210   -0.8537    1.4859 H       1  UNL1        0.0618
     30 H           3.3786   -1.2699    2.7402 H       1  UNL1        0.0618
     31 H           1.1968   -0.9139    1.7033 H       1  UNL1        0.0624
@<TRIPOS>BOND
     1     1     2    1
     2     2     3    1
     3     3     4   ar
     4     4     5   ar
     5     5     6   ar
     6     6     7   ar
     7     7     8   ar
     8     1     9    1
     9     9    10   ar
    10    10    11   ar
    11    11    12   ar
    12    12    13   ar
    13    13    14   ar
    14    14    15   ar
    15    15    16   ar
    16    16    17   ar
    17     8     3   ar
    18    17     9   ar
    19    17    12   ar
    20     1    18    1
    21     1    19    1
    22     2    20    1
    23     2    21    1
    24     4    22    1
    25     5    23    1
    26     7    24    1
    27     8    25    1
    28    10    26    1
    29    11    27    1
    30    13    28    1
    31    14    29    1
    32    15    30    1
    33    16    31    1
