
     RDKit          3D

 61 65  0  0  0  0  0  0  0  0999 V2000
    9.6547    0.0489    1.7241 C   0  0  0  0  0  0  0  0  0  0  0  0
    8.3824    0.0682    2.3393 O   0  0  0  0  0  0  0  0  0  0  0  0
    7.2445    0.5036    1.6737 C   0  0  0  0  0  0  0  0  0  0  0  0
    7.2808    0.9504    0.3559 C   0  0  0  0  0  0  0  0  0  0  0  0
    6.1479    1.3818   -0.3009 C   0  0  0  0  0  0  0  0  0  0  0  0
    4.9151    1.3811    0.3510 C   0  0  0  0  0  0  0  0  0  0  0  0
    3.7683    1.8654   -0.4501 C   0  0  0  0  0  0  0  0  0  0  0  0
    3.0957    0.8542   -1.1889 N   0  0  0  0  0  0  0  0  0  0  0  0
    3.3802    0.4101   -2.5046 C   0  0  0  0  0  0  0  0  0  0  0  0
    4.2934    0.8237   -3.2915 O   0  0  0  0  0  0  0  0  0  0  0  0
    2.4127   -0.6351   -2.8058 C   0  0  0  0  0  0  0  0  0  0  0  0
    2.3227   -1.2915   -3.8789 O   0  0  0  0  0  0  0  0  0  0  0  0
    1.5520   -0.7866   -1.6191 C   0  0  0  0  0  0  0  0  0  0  0  0
    0.4724   -1.6290   -1.3519 C   0  0  0  0  0  0  0  0  0  0  0  0
   -0.1957   -1.5947   -0.1493 C   0  0  0  0  0  0  0  0  0  0  0  0
   -1.5359   -2.6618    0.1430 S   0  0  0  0  0  6  0  0  0  0  0  0
   -1.3516   -3.9483   -0.5949 O   0  0  0  0  0  0  0  0  0  0  0  0
   -1.6489   -3.0097    1.6174 O   0  0  0  0  0  0  0  0  0  0  0  0
   -3.0417   -1.9897   -0.3263 N   0  0  0  0  0  0  0  0  0  0  0  0
   -3.1055   -1.6986   -1.7404 C   0  0  0  0  0  0  0  0  0  0  0  0
   -2.7940   -0.2533   -1.9329 C   0  0  0  0  0  0  0  0  0  0  0  0
   -2.9283    0.3623   -0.5665 C   0  0  0  0  0  0  0  0  0  0  0  0
   -3.3527   -0.7568    0.3627 C   0  0  1  0  0  0  0  0  0  0  0  0
   -4.8470   -0.6884    0.5300 C   0  0  0  0  0  0  0  0  0  0  0  0
   -5.2716    0.4691    1.1881 O   0  0  0  0  0  0  0  0  0  0  0  0
   -6.5740    0.7760    1.4666 C   0  0  0  0  0  0  0  0  0  0  0  0
   -7.6027   -0.0946    1.0894 C   0  0  0  0  0  0  0  0  0  0  0  0
   -8.9186    0.2101    1.3679 C   0  0  0  0  0  0  0  0  0  0  0  0
   -9.2417    1.3771    2.0223 C   0  0  0  0  0  0  0  0  0  0  0  0
   -8.2629    2.2101    2.3837 N   0  0  0  0  0  0  0  0  0  0  0  0
   -6.9772    1.9212    2.1164 C   0  0  0  0  0  0  0  0  0  0  0  0
    0.2534   -0.6859    0.7817 C   0  0  0  0  0  0  0  0  0  0  0  0
    1.3182    0.1588    0.5441 C   0  0  0  0  0  0  0  0  0  0  0  0
    1.9829    0.1044   -0.6900 C   0  0  0  0  0  0  0  0  0  0  0  0
    4.8629    0.9472    1.6396 C   0  0  0  0  0  0  0  0  0  0  0  0
    6.0049    0.5212    2.2757 C   0  0  0  0  0  0  0  0  0  0  0  0
   10.0741    1.0462    1.5533 H   0  0  0  0  0  0  0  0  0  0  0  0
   10.3524   -0.6396    2.2424 H   0  0  0  0  0  0  0  0  0  0  0  0
    9.5048   -0.4171    0.7062 H   0  0  0  0  0  0  0  0  0  0  0  0
    8.2449    0.9454   -0.1372 H   0  0  0  0  0  0  0  0  0  0  0  0
    6.2413    1.7210   -1.3357 H   0  0  0  0  0  0  0  0  0  0  0  0
    4.1198    2.6367   -1.1957 H   0  0  0  0  0  0  0  0  0  0  0  0
    3.0549    2.3331    0.2594 H   0  0  0  0  0  0  0  0  0  0  0  0
    0.1922   -2.3174   -2.1592 H   0  0  0  0  0  0  0  0  0  0  0  0
   -4.1556   -1.8737   -2.0588 H   0  0  0  0  0  0  0  0  0  0  0  0
   -2.4818   -2.3793   -2.3456 H   0  0  0  0  0  0  0  0  0  0  0  0
   -1.7695   -0.0520   -2.2972 H   0  0  0  0  0  0  0  0  0  0  0  0
   -3.5585    0.2353   -2.5925 H   0  0  0  0  0  0  0  0  0  0  0  0
   -1.9900    0.8488   -0.2287 H   0  0  0  0  0  0  0  0  0  0  0  0
   -3.6988    1.1859   -0.5526 H   0  0  0  0  0  0  0  0  0  0  0  0
   -2.8910   -0.6983    1.3544 H   0  0  0  0  0  0  0  0  0  0  0  0
   -5.2312   -1.5582    1.1217 H   0  0  0  0  0  0  0  0  0  0  0  0
   -5.3694   -0.7575   -0.4645 H   0  0  0  0  0  0  0  0  0  0  0  0
   -7.3552   -1.0242    0.5690 H   0  0  0  0  0  0  0  0  0  0  0  0
   -9.7308   -0.4637    1.0773 H   0  0  0  0  0  0  0  0  0  0  0  0
  -10.2855    1.6305    2.2495 H   0  0  0  0  0  0  0  0  0  0  0  0
   -6.1773    2.6139    2.4182 H   0  0  0  0  0  0  0  0  0  0  0  0
   -0.2541   -0.6388    1.7344 H   0  0  0  0  0  0  0  0  0  0  0  0
    1.6494    0.8643    1.2932 H   0  0  0  0  0  0  0  0  0  0  0  0
    3.8874    0.9555    2.1313 H   0  0  0  0  0  0  0  0  0  0  0  0
    5.9327    0.1820    3.2997 H   0  0  0  0  0  0  0  0  0  0  0  0
  1  2  1  0
  2  3  1  0
  3  4  2  0
  4  5  1  0
  5  6  2  0
  6  7  1  0
  7  8  1  0
  8  9  1  0
  9 10  2  0
  9 11  1  0
 11 12  2  0
 11 13  1  0
 13 14  2  0
 14 15  1  0
 15 16  1  0
 16 17  2  0
 16 18  2  0
 16 19  1  0
 19 20  1  0
 20 21  1  0
 21 22  1  0
 22 23  1  0
 23 24  1  0
 24 25  1  0
 25 26  1  0
 26 27  2  0
 27 28  1  0
 28 29  2  0
 29 30  1  0
 30 31  2  0
 15 32  2  0
 32 33  1  0
 33 34  2  0
  6 35  1  0
 35 36  2  0
 36  3  1  0
 34  8  1  0
 34 13  1  0
 23 19  1  0
 31 26  1  0
  1 37  1  0
  1 38  1  0
  1 39  1  0
  4 40  1  0
  5 41  1  0
  7 42  1  0
  7 43  1  0
 14 44  1  0
 20 45  1  0
 20 46  1  0
 21 47  1  0
 21 48  1  0
 22 49  1  0
 22 50  1  0
 23 51  1  1
 24 52  1  0
 24 53  1  0
 27 54  1  0
 28 55  1  0
 29 56  1  0
 31 57  1  0
 32 58  1  0
 33 59  1  0
 35 60  1  0
 36 61  1  0
M  END
$$$$
