@<TRIPOS>MOLECULE
*****
 61 65 0 0 0
SMALL
GASTEIGER

@<TRIPOS>ATOM
      1 C           9.6547    0.0489    1.7241 C.3     1  UNL1        0.0788
      2 O           8.3824    0.0682    2.3393 O.3     1  UNL1       -0.4951
      3 C           7.2445    0.5036    1.6737 C.ar    1  UNL1        0.1201
      4 C           7.2808    0.9504    0.3559 C.ar    1  UNL1       -0.0196
      5 C           6.1479    1.3818   -0.3009 C.ar    1  UNL1       -0.0536
      6 C           4.9151    1.3811    0.3510 C.ar    1  UNL1       -0.0295
      7 C           3.7683    1.8654   -0.4501 C.3     1  UNL1        0.0452
      8 N           3.0957    0.8542   -1.1889 N.am    1  UNL1       -0.2598
      9 C           3.3802    0.4101   -2.5046 C.2     1  UNL1        0.2915
     10 O           4.2934    0.8237   -3.2915 O.2     1  UNL1       -0.2661
     11 C           2.4127   -0.6351   -2.8058 C.2     1  UNL1        0.2496
     12 O           2.3227   -1.2915   -3.8789 O.2     1  UNL1       -0.2817
     13 C           1.5520   -0.7866   -1.6191 C.ar    1  UNL1        0.0502
     14 C           0.4724   -1.6290   -1.3519 C.ar    1  UNL1       -0.0226
     15 C          -0.1957   -1.5947   -0.1493 C.ar    1  UNL1        0.1063
     16 S          -1.5359   -2.6618    0.1430 S.O2    1  UNL1        0.0612
     17 O          -1.3516   -3.9483   -0.5949 O.2     1  UNL1       -0.1528
     18 O          -1.6489   -3.0097    1.6174 O.2     1  UNL1       -0.1528
     19 N          -3.0417   -1.9897   -0.3263 N.3     1  UNL1       -0.1703
     20 C          -3.1055   -1.6986   -1.7404 C.3     1  UNL1        0.0210
     21 C          -2.7940   -0.2533   -1.9329 C.3     1  UNL1       -0.0370
     22 C          -2.9283    0.3623   -0.5665 C.3     1  UNL1       -0.0313
     23 C          -3.3527   -0.7568    0.3627 C.3     1  UNL1        0.0659
     24 C          -4.8470   -0.6884    0.5300 C.3     1  UNL1        0.1068
     25 O          -5.2716    0.4691    1.1881 O.3     1  UNL1       -0.4888
     26 C          -6.5740    0.7760    1.4666 C.ar    1  UNL1        0.1386
     27 C          -7.6027   -0.0946    1.0894 C.ar    1  UNL1       -0.0170
     28 C          -8.9186    0.2101    1.3679 C.ar    1  UNL1       -0.0401
     29 C          -9.2417    1.3771    2.0223 C.ar    1  UNL1        0.0278
     30 N          -8.2629    2.2101    2.3837 N.ar    1  UNL1       -0.2596
     31 C          -6.9772    1.9212    2.1164 C.ar    1  UNL1        0.0692
     32 C           0.2534   -0.6859    0.7817 C.ar    1  UNL1       -0.0335
     33 C           1.3182    0.1588    0.5441 C.ar    1  UNL1       -0.0377
     34 C           1.9829    0.1044   -0.6900 C.ar    1  UNL1        0.0481
     35 C           4.8629    0.9472    1.6396 C.ar    1  UNL1       -0.0536
     36 C           6.0049    0.5212    2.2757 C.ar    1  UNL1       -0.0196
     37 H          10.0741    1.0462    1.5533 H       1  UNL1        0.0660
     38 H          10.3524   -0.6396    2.2424 H       1  UNL1        0.0660
     39 H           9.5048   -0.4171    0.7062 H       1  UNL1        0.0660
     40 H           8.2449    0.9454   -0.1372 H       1  UNL1        0.0654
     41 H           6.2413    1.7210   -1.3357 H       1  UNL1        0.0622
     42 H           4.1198    2.6367   -1.1957 H       1  UNL1        0.0518
     43 H           3.0549    2.3331    0.2594 H       1  UNL1        0.0518
     44 H           0.1922   -2.3174   -2.1592 H       1  UNL1        0.0645
     45 H          -4.1556   -1.8737   -2.0588 H       1  UNL1        0.0444
     46 H          -2.4818   -2.3793   -2.3456 H       1  UNL1        0.0444
     47 H          -1.7695   -0.0520   -2.2972 H       1  UNL1        0.0279
     48 H          -3.5585    0.2353   -2.5925 H       1  UNL1        0.0279
     49 H          -1.9900    0.8488   -0.2287 H       1  UNL1        0.0282
     50 H          -3.6988    1.1859   -0.5526 H       1  UNL1        0.0282
     51 H          -2.8910   -0.6983    1.3544 H       1  UNL1        0.0513
     52 H          -5.2312   -1.5582    1.1217 H       1  UNL1        0.0713
     53 H          -5.3694   -0.7575   -0.4645 H       1  UNL1        0.0713
     54 H          -7.3552   -1.0242    0.5690 H       1  UNL1        0.0655
     55 H          -9.7308   -0.4637    1.0773 H       1  UNL1        0.0634
     56 H         -10.2855    1.6305    2.2495 H       1  UNL1        0.0829
     57 H          -6.1773    2.6139    2.4182 H       1  UNL1        0.0867
     58 H          -0.2541   -0.6388    1.7344 H       1  UNL1        0.0638
     59 H           1.6494    0.8643    1.2932 H       1  UNL1        0.0637
     60 H           3.8874    0.9555    2.1313 H       1  UNL1        0.0622
     61 H           5.9327    0.1820    3.2997 H       1  UNL1        0.0654
@<TRIPOS>BOND
     1     1     2    1
     2     2     3    1
     3     3     4   ar
     4     4     5   ar
     5     5     6   ar
     6     6     7    1
     7     7     8    1
     8     8     9   am
     9     9    10    2
    10     9    11    1
    11    11    12    2
    12    11    13    1
    13    13    14   ar
    14    14    15   ar
    15    15    16    1
    16    16    17    2
    17    16    18    2
    18    16    19    1
    19    19    20    1
    20    20    21    1
    21    21    22    1
    22    22    23    1
    23    23    24    1
    24    24    25    1
    25    25    26    1
    26    26    27   ar
    27    27    28   ar
    28    28    29   ar
    29    29    30   ar
    30    30    31   ar
    31    15    32   ar
    32    32    33   ar
    33    33    34   ar
    34     6    35   ar
    35    35    36   ar
    36    36     3   ar
    37    34     8    1
    38    34    13   ar
    39    23    19    1
    40    31    26   ar
    41     1    37    1
    42     1    38    1
    43     1    39    1
    44     4    40    1
    45     5    41    1
    46     7    42    1
    47     7    43    1
    48    14    44    1
    49    20    45    1
    50    20    46    1
    51    21    47    1
    52    21    48    1
    53    22    49    1
    54    22    50    1
    55    23    51    1
    56    24    52    1
    57    24    53    1
    58    27    54    1
    59    28    55    1
    60    29    56    1
    61    31    57    1
    62    32    58    1
    63    33    59    1
    64    35    60    1
    65    36    61    1
