@<TRIPOS>MOLECULE
*****
 49 52 0 0 0
SMALL
GASTEIGER

@<TRIPOS>ATOM
      1 O          -1.9688   -1.9022   -0.0718 O.2     1  UNL1       -0.2755
      2 C          -1.6729   -0.7202    0.1651 C.2     1  UNL1        0.2173
      3 C          -0.2966   -0.4548    0.6321 C.3     1  UNL1        0.0284
      4 C           0.5339   -1.6982    0.7562 C.3     1  UNL1       -0.0159
      5 C           1.9114   -1.4007    1.2275 C.ar    1  UNL1       -0.0018
      6 C           2.4481   -1.5934    2.4876 C.ar    1  UNL1        0.0536
      7 N           3.7108   -1.1775    2.4315 N.ar    1  UNL1       -0.1740
      8 N           3.9974   -0.7381    1.2199 N.ar    1  UNL1       -0.2319
      9 C           2.9100   -0.8605    0.4489 C.ar    1  UNL1        0.0707
     10 C           2.9100   -0.4760   -0.8866 C.ar    1  UNL1       -0.0353
     11 C           4.0850    0.0400   -1.3857 C.ar    1  UNL1       -0.0504
     12 C           5.2029    0.1664   -0.5947 C.ar    1  UNL1        0.0039
     13 C           6.3978    0.6905   -1.0947 C.ar    1  UNL1       -0.0110
     14 C           7.5205    0.8206   -0.3060 C.ar    1  UNL1        0.1176
     15 O           8.7181    1.3421   -0.7938 O.3     1  UNL1       -0.5067
     16 C           7.4616    0.4231    1.0100 C.ar    1  UNL1       -0.0181
     17 C           6.2797   -0.0982    1.5143 C.ar    1  UNL1       -0.0322
     18 C           5.1534   -0.2293    0.7248 C.ar    1  UNL1        0.0734
     19 N          -2.6210    0.3162   -0.0085 N.am    1  UNL1       -0.2886
     20 C          -3.9447    0.1810   -0.4424 C.2     1  UNL1        0.0204
     21 C          -4.7483    1.2240   -0.5703 C.2     1  UNL1        0.0534
     22 C          -4.3718    2.5699   -0.2889 C.2     1  UNL1        0.3342
     23 O          -3.2828    2.9705    0.1034 O.2     1  UNL1       -0.2454
     24 O          -5.3474    3.5794   -0.4754 O.3     1  UNL1       -0.4773
     25 C          -6.1794    0.9448   -1.0582 C.3     1  UNL1       -0.0194
     26 C          -6.8189   -0.1339   -0.2425 C.3     1  UNL1       -0.0485
     27 C          -5.8399   -1.2477    0.0805 C.3     1  UNL1       -0.0476
     28 C          -4.5967   -1.1172   -0.8024 C.3     1  UNL1       -0.0140
     29 H          -0.3702    0.0039    1.6398 H       1  UNL1        0.0362
     30 H           0.1914    0.2962   -0.0205 H       1  UNL1        0.0362
     31 H           0.6306   -2.1530   -0.2537 H       1  UNL1        0.0319
     32 H           0.1203   -2.4514    1.4200 H       1  UNL1        0.0319
     33 H           1.8850   -2.0099    3.3158 H       1  UNL1        0.0851
     34 H           2.0040   -0.5887   -1.4920 H       1  UNL1        0.0639
     35 H           4.1174    0.3458   -2.4128 H       1  UNL1        0.0625
     36 H           6.4582    1.0018   -2.1092 H       1  UNL1        0.0661
     37 H           8.7582    2.2482   -1.2572 H       1  UNL1        0.2921
     38 H           8.3259    0.5127    1.6549 H       1  UNL1        0.0655
     39 H           6.2681   -0.3966    2.5387 H       1  UNL1        0.0640
     40 H          -2.2100    1.2620    0.2359 H       1  UNL1        0.1545
     41 H          -5.0947    4.5453   -0.4141 H       1  UNL1        0.2954
     42 H          -6.1201    0.6576   -2.1183 H       1  UNL1        0.0316
     43 H          -6.7354    1.8815   -0.9857 H       1  UNL1        0.0316
     44 H          -7.6872   -0.5121   -0.8217 H       1  UNL1        0.0269
     45 H          -7.2153    0.3248    0.6867 H       1  UNL1        0.0269
     46 H          -5.5591   -1.1614    1.1479 H       1  UNL1        0.0269
     47 H          -6.3049   -2.2318   -0.1171 H       1  UNL1        0.0269
     48 H          -4.9945   -0.9887   -1.8427 H       1  UNL1        0.0326
     49 H          -4.0192   -2.0069   -0.6695 H       1  UNL1        0.0326
@<TRIPOS>BOND
     1     1     2    2
     2     2     3    1
     3     3     4    1
     4     4     5    1
     5     5     6   ar
     6     6     7   ar
     7     7     8   ar
     8     8     9   ar
     9     9    10   ar
    10    10    11   ar
    11    11    12   ar
    12    12    13   ar
    13    13    14   ar
    14    14    15    1
    15    14    16   ar
    16    16    17   ar
    17    17    18   ar
    18     2    19   am
    19    19    20    1
    20    20    21    2
    21    21    22    1
    22    22    23    2
    23    22    24    1
    24    21    25    1
    25    25    26    1
    26    26    27    1
    27    27    28    1
    28     9     5   ar
    29    18    12   ar
    30    28    20    1
    31    18     8   ar
    32     3    29    1
    33     3    30    1
    34     4    31    1
    35     4    32    1
    36     6    33    1
    37    10    34    1
    38    11    35    1
    39    13    36    1
    40    15    37    1
    41    16    38    1
    42    17    39    1
    43    19    40    1
    44    24    41    1
    45    25    42    1
    46    25    43    1
    47    26    44    1
    48    26    45    1
    49    27    46    1
    50    27    47    1
    51    28    48    1
    52    28    49    1
