
     RDKit          3D

 38 37  0  0  0  0  0  0  0  0999 V2000
   -4.5581    0.5441    2.1010 C   0  0  0  0  0  0  0  0  0  0  0  0
   -4.6245    0.6625    0.6142 C   0  0  0  0  0  0  0  0  0  0  0  0
   -3.4954   -0.0205   -0.1030 C   0  0  0  0  0  0  0  0  0  0  0  0
   -2.1486    0.5192    0.2729 C   0  0  0  0  0  0  0  0  0  0  0  0
   -1.1148   -0.2749   -0.5371 C   0  0  2  0  0  0  0  0  0  0  0  0
    0.2211    0.1606   -0.2550 N   0  0  0  0  0  0  0  0  0  0  0  0
    1.1866   -0.6607    0.3981 C   0  0  0  0  0  0  0  0  0  0  0  0
    0.8077   -1.8167    0.7263 O   0  0  0  0  0  0  0  0  0  0  0  0
    2.5511   -0.1701    0.6680 C   0  0  1  0  0  0  0  0  0  0  0  0
    3.2840   -1.2271    1.3352 N   0  0  0  0  0  0  0  0  0  0  0  0
    3.2215    0.1890   -0.6480 C   0  0  0  0  0  0  0  0  0  0  0  0
    4.6312    0.6983   -0.3985 C   0  0  0  0  0  0  0  0  0  0  0  0
    5.3966   -0.3268    0.2575 N   0  0  0  0  0  0  0  0  0  0  0  0
   -1.4656   -0.2621   -2.0738 B   0  0  0  0  0  0  0  0  0  0  0  0
   -1.2760    0.9386   -2.8845 O   0  0  0  0  0  0  0  0  0  0  0  0
   -1.6703   -1.5101   -2.8067 O   0  0  0  0  0  0  0  0  0  0  0  0
   -3.6303    0.1352    2.4988 H   0  0  0  0  0  0  0  0  0  0  0  0
   -4.6765    1.5651    2.5371 H   0  0  0  0  0  0  0  0  0  0  0  0
   -5.3984   -0.0824    2.5136 H   0  0  0  0  0  0  0  0  0  0  0  0
   -4.6947    1.7141    0.2690 H   0  0  0  0  0  0  0  0  0  0  0  0
   -5.5686    0.1581    0.2750 H   0  0  0  0  0  0  0  0  0  0  0  0
   -3.4935   -1.1067    0.1047 H   0  0  0  0  0  0  0  0  0  0  0  0
   -3.6643    0.1004   -1.1883 H   0  0  0  0  0  0  0  0  0  0  0  0
   -1.9606    0.2418    1.3318 H   0  0  0  0  0  0  0  0  0  0  0  0
   -2.0420    1.6047    0.0972 H   0  0  0  0  0  0  0  0  0  0  0  0
   -1.2048   -1.3181   -0.1551 H   0  0  0  0  0  0  0  0  0  0  0  0
    0.4977    1.1385   -0.5476 H   0  0  0  0  0  0  0  0  0  0  0  0
    2.5473    0.6993    1.3320 H   0  0  0  0  0  0  0  0  0  0  0  0
    2.5917   -1.7186    1.9512 H   0  0  0  0  0  0  0  0  0  0  0  0
    3.5967   -1.9338    0.6308 H   0  0  0  0  0  0  0  0  0  0  0  0
    2.5906    0.9749   -1.1100 H   0  0  0  0  0  0  0  0  0  0  0  0
    3.2367   -0.6783   -1.3299 H   0  0  0  0  0  0  0  0  0  0  0  0
    5.0713    0.9172   -1.3973 H   0  0  0  0  0  0  0  0  0  0  0  0
    4.6093    1.6414    0.1576 H   0  0  0  0  0  0  0  0  0  0  0  0
    6.2628    0.0465    0.7106 H   0  0  0  0  0  0  0  0  0  0  0  0
    5.6487   -1.0477   -0.4525 H   0  0  0  0  0  0  0  0  0  0  0  0
   -0.3685    1.3002   -2.8448 H   0  0  0  0  0  0  0  0  0  0  0  0
   -0.8972   -1.7950   -3.3246 H   0  0  0  0  0  0  0  0  0  0  0  0
  1  2  1  0
  2  3  1  0
  3  4  1  0
  4  5  1  0
  5  6  1  0
  6  7  1  0
  7  8  2  0
  7  9  1  0
  9 10  1  0
  9 11  1  0
 11 12  1  0
 12 13  1  0
  5 14  1  0
 14 15  1  0
 14 16  1  0
  1 17  1  0
  1 18  1  0
  1 19  1  0
  2 20  1  0
  2 21  1  0
  3 22  1  0
  3 23  1  0
  4 24  1  0
  4 25  1  0
  5 26  1  1
  6 27  1  0
  9 28  1  1
 10 29  1  0
 10 30  1  0
 11 31  1  0
 11 32  1  0
 12 33  1  0
 12 34  1  0
 13 35  1  0
 13 36  1  0
 15 37  1  0
 16 38  1  0
M  END
$$$$
