@<TRIPOS>MOLECULE
*****
 38 37 0 0 0
SMALL
GASTEIGER

@<TRIPOS>ATOM
      1 C          -4.5581    0.5441    2.1010 C.3     1  UNL1        0.0000
      2 C          -4.6245    0.6625    0.6142 C.3     1  UNL1        0.0000
      3 C          -3.4954   -0.0205   -0.1030 C.3     1  UNL1        0.0000
      4 C          -2.1486    0.5192    0.2729 C.3     1  UNL1        0.0000
      5 C          -1.1148   -0.2749   -0.5371 C.3     1  UNL1        0.0000
      6 N           0.2211    0.1606   -0.2550 N.am    1  UNL1        0.0000
      7 C           1.1866   -0.6607    0.3981 C.2     1  UNL1        0.0000
      8 O           0.8077   -1.8167    0.7263 O.2     1  UNL1        0.0000
      9 C           2.5511   -0.1701    0.6680 C.3     1  UNL1        0.0000
     10 N           3.2840   -1.2271    1.3352 N.3     1  UNL1        0.0000
     11 C           3.2215    0.1890   -0.6480 C.3     1  UNL1        0.0000
     12 C           4.6312    0.6983   -0.3985 C.3     1  UNL1        0.0000
     13 N           5.3966   -0.3268    0.2575 N.3     1  UNL1        0.0000
     14 B          -1.4656   -0.2621   -2.0738 B       1  UNL1        0.0000
     15 O          -1.2760    0.9386   -2.8845 O.3     1  UNL1        0.0000
     16 O          -1.6703   -1.5101   -2.8067 O.3     1  UNL1        0.0000
     17 H          -3.6303    0.1352    2.4988 H       1  UNL1        0.0000
     18 H          -4.6765    1.5651    2.5371 H       1  UNL1        0.0000
     19 H          -5.3984   -0.0824    2.5136 H       1  UNL1        0.0000
     20 H          -4.6947    1.7141    0.2690 H       1  UNL1        0.0000
     21 H          -5.5686    0.1581    0.2750 H       1  UNL1        0.0000
     22 H          -3.4935   -1.1067    0.1047 H       1  UNL1        0.0000
     23 H          -3.6643    0.1004   -1.1883 H       1  UNL1        0.0000
     24 H          -1.9606    0.2418    1.3318 H       1  UNL1        0.0000
     25 H          -2.0420    1.6047    0.0972 H       1  UNL1        0.0000
     26 H          -1.2048   -1.3181   -0.1551 H       1  UNL1        0.0000
     27 H           0.4977    1.1385   -0.5476 H       1  UNL1        0.0000
     28 H           2.5473    0.6993    1.3320 H       1  UNL1        0.0000
     29 H           2.5917   -1.7186    1.9512 H       1  UNL1        0.0000
     30 H           3.5967   -1.9338    0.6308 H       1  UNL1        0.0000
     31 H           2.5906    0.9749   -1.1100 H       1  UNL1        0.0000
     32 H           3.2367   -0.6783   -1.3299 H       1  UNL1        0.0000
     33 H           5.0713    0.9172   -1.3973 H       1  UNL1        0.0000
     34 H           4.6093    1.6414    0.1576 H       1  UNL1        0.0000
     35 H           6.2628    0.0465    0.7106 H       1  UNL1        0.0000
     36 H           5.6487   -1.0477   -0.4525 H       1  UNL1        0.0000
     37 H          -0.3685    1.3002   -2.8448 H       1  UNL1        0.0000
     38 H          -0.8972   -1.7950   -3.3246 H       1  UNL1        0.0000
@<TRIPOS>BOND
     1     1     2    1
     2     2     3    1
     3     3     4    1
     4     4     5    1
     5     5     6    1
     6     6     7   am
     7     7     8    2
     8     7     9    1
     9     9    10    1
    10     9    11    1
    11    11    12    1
    12    12    13    1
    13     5    14    1
    14    14    15    1
    15    14    16    1
    16     1    17    1
    17     1    18    1
    18     1    19    1
    19     2    20    1
    20     2    21    1
    21     3    22    1
    22     3    23    1
    23     4    24    1
    24     4    25    1
    25     5    26    1
    26     6    27    1
    27     9    28    1
    28    10    29    1
    29    10    30    1
    30    11    31    1
    31    11    32    1
    32    12    33    1
    33    12    34    1
    34    13    35    1
    35    13    36    1
    36    15    37    1
    37    16    38    1
