@<TRIPOS>MOLECULE
*****
 49 52 0 0 0
SMALL
GASTEIGER

@<TRIPOS>ATOM
      1 N           2.2561   -4.0308    1.3626 N.am    1  UNL1       -0.3239
      2 C           2.2495   -2.5835    1.2803 C.2     1  UNL1        0.2651
      3 O           3.3117   -1.9793    1.4112 O.2     1  UNL1       -0.2686
      4 C           0.9713   -1.9246    1.0387 C.ar    1  UNL1        0.1873
      5 N          -0.1418   -2.5804    1.5038 N.ar    1  UNL1       -0.1378
      6 N          -1.3540   -2.1442    1.5308 N.ar    1  UNL1       -0.1124
      7 C          -1.5928   -0.8805    1.0490 C.ar    1  UNL1        0.2370
      8 N          -2.9082   -0.3565    1.1145 N.pl3   1  UNL1       -0.3079
      9 C          -3.1362    0.9629    0.5706 C.3     1  UNL1        0.0385
     10 C          -4.5417    1.4444    0.9423 C.3     1  UNL1       -0.0331
     11 C          -5.5853    0.9783   -0.0110 C.3     1  UNL1       -0.0513
     12 C          -5.3069   -0.3374   -0.6662 C.3     1  UNL1       -0.0515
     13 C          -3.9178   -0.4660   -1.2252 C.3     1  UNL1       -0.0360
     14 C          -3.1448    0.8190   -0.9539 C.3     1  UNL1        0.0234
     15 N          -1.8175    0.7183   -1.4393 N.3     1  UNL1       -0.3257
     16 N          -0.5549   -0.2381    0.5980 N.ar    1  UNL1       -0.1958
     17 C           0.7753   -0.6936    0.5535 C.ar    1  UNL1        0.1592
     18 N           1.6475    0.2082   -0.0436 N.pl3   1  UNL1       -0.2959
     19 C           2.8829    0.7974    0.1452 C.ar    1  UNL1        0.0567
     20 C           2.8921    2.0902    0.7651 C.ar    1  UNL1       -0.0385
     21 C           4.0350    2.8043    0.8833 C.ar    1  UNL1       -0.0593
     22 C           5.2161    2.2924    0.4076 C.ar    1  UNL1       -0.0525
     23 C           5.2199    1.0304   -0.2011 C.ar    1  UNL1        0.0015
     24 C           6.2529    0.2985   -0.7851 C.ar    1  UNL1       -0.0366
     25 C           5.7111   -0.8638   -1.2665 C.ar    1  UNL1        0.0028
     26 N           4.4106   -0.8462   -0.9875 N.ar    1  UNL1       -0.3592
     27 C           4.0752    0.2866   -0.3381 C.ar    1  UNL1        0.0679
     28 H           1.3782   -4.5495    1.5502 H       1  UNL1        0.1453
     29 H           3.1643   -4.5257    1.2194 H       1  UNL1        0.1453
     30 H          -3.6527   -0.9206    1.5453 H       1  UNL1        0.1493
     31 H          -2.4089    1.7183    0.9000 H       1  UNL1        0.0513
     32 H          -4.5198    2.5716    0.9402 H       1  UNL1        0.0284
     33 H          -4.7621    1.1856    2.0045 H       1  UNL1        0.0284
     34 H          -5.7493    1.7589   -0.7899 H       1  UNL1        0.0266
     35 H          -6.5269    0.8412    0.5927 H       1  UNL1        0.0266
     36 H          -6.0173   -0.4204   -1.5428 H       1  UNL1        0.0266
     37 H          -5.5406   -1.1823    0.0136 H       1  UNL1        0.0266
     38 H          -3.9128   -0.6843   -2.3141 H       1  UNL1        0.0281
     39 H          -3.3797   -1.2937   -0.6998 H       1  UNL1        0.0281
     40 H          -3.6717    1.6819   -1.4041 H       1  UNL1        0.0476
     41 H          -1.6843    0.3764   -2.3970 H       1  UNL1        0.1185
     42 H          -1.2877    1.6002   -1.3176 H       1  UNL1        0.1185
     43 H           1.2263    0.5451   -1.0381 H       1  UNL1        0.1537
     44 H           1.9258    2.4667    1.1255 H       1  UNL1        0.0637
     45 H           4.0664    3.7948    1.3476 H       1  UNL1        0.0618
     46 H           6.1523    2.8281    0.4844 H       1  UNL1        0.0624
     47 H           7.2963    0.6483   -0.8142 H       1  UNL1        0.0638
     48 H           6.2740   -1.6627   -1.7849 H       1  UNL1        0.0807
     49 H           3.7249   -1.5838   -1.2306 H       1  UNL1        0.1654
@<TRIPOS>BOND
     1     1     2   am
     2     2     3    2
     3     2     4    1
     4     4     5   ar
     5     5     6   ar
     6     6     7   ar
     7     7     8    1
     8     8     9    1
     9     9    10    1
    10    10    11    1
    11    11    12    1
    12    12    13    1
    13    13    14    1
    14    14    15    1
    15     7    16   ar
    16    16    17   ar
    17    17    18    1
    18    18    19    1
    19    19    20   ar
    20    20    21   ar
    21    21    22   ar
    22    22    23   ar
    23    23    24   ar
    24    24    25   ar
    25    25    26   ar
    26    26    27   ar
    27    17     4   ar
    28    27    19   ar
    29    14     9    1
    30    27    23   ar
    31     1    28    1
    32     1    29    1
    33     8    30    1
    34     9    31    1
    35    10    32    1
    36    10    33    1
    37    11    34    1
    38    11    35    1
    39    12    36    1
    40    12    37    1
    41    13    38    1
    42    13    39    1
    43    14    40    1
    44    15    41    1
    45    15    42    1
    46    18    43    1
    47    20    44    1
    48    21    45    1
    49    22    46    1
    50    24    47    1
    51    25    48    1
    52    26    49    1
