
     RDKit          3D

 49 52  0  0  0  0  0  0  0  0999 V2000
    2.2561   -4.0308    1.3626 N   0  0  0  0  0  0  0  0  0  0  0  0
    2.2495   -2.5835    1.2803 C   0  0  0  0  0  0  0  0  0  0  0  0
    3.3117   -1.9793    1.4112 O   0  0  0  0  0  0  0  0  0  0  0  0
    0.9713   -1.9246    1.0387 C   0  0  0  0  0  0  0  0  0  0  0  0
   -0.1418   -2.5804    1.5038 N   0  0  0  0  0  0  0  0  0  0  0  0
   -1.3540   -2.1442    1.5308 N   0  0  0  0  0  0  0  0  0  0  0  0
   -1.5928   -0.8805    1.0490 C   0  0  0  0  0  0  0  0  0  0  0  0
   -2.9082   -0.3565    1.1145 N   0  0  0  0  0  0  0  0  0  0  0  0
   -3.1362    0.9629    0.5706 C   0  0  2  0  0  0  0  0  0  0  0  0
   -4.5417    1.4444    0.9423 C   0  0  0  0  0  0  0  0  0  0  0  0
   -5.5853    0.9783   -0.0110 C   0  0  0  0  0  0  0  0  0  0  0  0
   -5.3069   -0.3374   -0.6662 C   0  0  0  0  0  0  0  0  0  0  0  0
   -3.9178   -0.4660   -1.2252 C   0  0  0  0  0  0  0  0  0  0  0  0
   -3.1448    0.8190   -0.9539 C   0  0  2  0  0  0  0  0  0  0  0  0
   -1.8175    0.7183   -1.4393 N   0  0  0  0  0  0  0  0  0  0  0  0
   -0.5549   -0.2381    0.5980 N   0  0  0  0  0  0  0  0  0  0  0  0
    0.7753   -0.6936    0.5535 C   0  0  0  0  0  0  0  0  0  0  0  0
    1.6475    0.2082   -0.0436 N   0  0  0  0  0  0  0  0  0  0  0  0
    2.8829    0.7974    0.1452 C   0  0  0  0  0  0  0  0  0  0  0  0
    2.8921    2.0902    0.7651 C   0  0  0  0  0  0  0  0  0  0  0  0
    4.0350    2.8043    0.8833 C   0  0  0  0  0  0  0  0  0  0  0  0
    5.2161    2.2924    0.4076 C   0  0  0  0  0  0  0  0  0  0  0  0
    5.2199    1.0304   -0.2011 C   0  0  0  0  0  0  0  0  0  0  0  0
    6.2529    0.2985   -0.7851 C   0  0  0  0  0  0  0  0  0  0  0  0
    5.7111   -0.8638   -1.2665 C   0  0  0  0  0  0  0  0  0  0  0  0
    4.4106   -0.8462   -0.9875 N   0  0  0  0  0  0  0  0  0  0  0  0
    4.0752    0.2866   -0.3381 C   0  0  0  0  0  0  0  0  0  0  0  0
    1.3782   -4.5495    1.5502 H   0  0  0  0  0  0  0  0  0  0  0  0
    3.1643   -4.5257    1.2194 H   0  0  0  0  0  0  0  0  0  0  0  0
   -3.6527   -0.9206    1.5453 H   0  0  0  0  0  0  0  0  0  0  0  0
   -2.4089    1.7183    0.9000 H   0  0  0  0  0  0  0  0  0  0  0  0
   -4.5198    2.5716    0.9402 H   0  0  0  0  0  0  0  0  0  0  0  0
   -4.7621    1.1856    2.0045 H   0  0  0  0  0  0  0  0  0  0  0  0
   -5.7493    1.7589   -0.7899 H   0  0  0  0  0  0  0  0  0  0  0  0
   -6.5269    0.8412    0.5927 H   0  0  0  0  0  0  0  0  0  0  0  0
   -6.0173   -0.4204   -1.5428 H   0  0  0  0  0  0  0  0  0  0  0  0
   -5.5406   -1.1823    0.0136 H   0  0  0  0  0  0  0  0  0  0  0  0
   -3.9128   -0.6843   -2.3141 H   0  0  0  0  0  0  0  0  0  0  0  0
   -3.3797   -1.2937   -0.6998 H   0  0  0  0  0  0  0  0  0  0  0  0
   -3.6717    1.6819   -1.4041 H   0  0  0  0  0  0  0  0  0  0  0  0
   -1.6843    0.3764   -2.3970 H   0  0  0  0  0  0  0  0  0  0  0  0
   -1.2877    1.6002   -1.3176 H   0  0  0  0  0  0  0  0  0  0  0  0
    1.2263    0.5451   -1.0381 H   0  0  0  0  0  0  0  0  0  0  0  0
    1.9258    2.4667    1.1255 H   0  0  0  0  0  0  0  0  0  0  0  0
    4.0664    3.7948    1.3476 H   0  0  0  0  0  0  0  0  0  0  0  0
    6.1523    2.8281    0.4844 H   0  0  0  0  0  0  0  0  0  0  0  0
    7.2963    0.6483   -0.8142 H   0  0  0  0  0  0  0  0  0  0  0  0
    6.2740   -1.6627   -1.7849 H   0  0  0  0  0  0  0  0  0  0  0  0
    3.7249   -1.5838   -1.2306 H   0  0  0  0  0  0  0  0  0  0  0  0
  1  2  1  0
  2  3  2  0
  2  4  1  0
  4  5  2  0
  5  6  1  0
  6  7  2  0
  7  8  1  0
  8  9  1  0
  9 10  1  0
 10 11  1  0
 11 12  1  0
 12 13  1  0
 13 14  1  0
 14 15  1  0
  7 16  1  0
 16 17  2  0
 17 18  1  0
 18 19  1  0
 19 20  2  0
 20 21  1  0
 21 22  2  0
 22 23  1  0
 23 24  1  0
 24 25  2  0
 25 26  1  0
 26 27  1  0
 17  4  1  0
 27 19  1  0
 14  9  1  0
 27 23  2  0
  1 28  1  0
  1 29  1  0
  8 30  1  0
  9 31  1  6
 10 32  1  0
 10 33  1  0
 11 34  1  0
 11 35  1  0
 12 36  1  0
 12 37  1  0
 13 38  1  0
 13 39  1  0
 14 40  1  6
 15 41  1  0
 15 42  1  0
 18 43  1  0
 20 44  1  0
 21 45  1  0
 22 46  1  0
 24 47  1  0
 25 48  1  0
 26 49  1  0
M  END
$$$$
