@<TRIPOS>MOLECULE
*****
 47 48 0 0 0
SMALL
GASTEIGER

@<TRIPOS>ATOM
      1 C          -2.1785    3.2132   -0.8475 C.3     1  UNL1       -0.0277
      2 C          -1.6199    2.3020    0.1820 C.3     1  UNL1        0.1006
      3 C          -2.5294    1.1201    0.5241 C.3     1  UNL1       -0.0155
      4 C          -2.8475    0.2635   -0.6480 C.3     1  UNL1       -0.0430
      5 C          -3.5739   -1.0251   -0.2595 C.3     1  UNL1        0.0059
      6 C          -2.7121   -1.8538    0.5981 C.2     1  UNL1        0.1334
      7 O          -2.6157   -1.6203    1.7775 O.2     1  UNL1       -0.2974
      8 C          -1.9376   -2.9870    0.0353 C.3     1  UNL1        0.0058
      9 C          -0.5819   -3.0827    0.7470 C.3     1  UNL1       -0.0464
     10 C           0.2044   -1.8067    0.4719 C.3     1  UNL1       -0.0524
     11 C           0.5871   -1.7058   -0.9857 C.3     1  UNL1       -0.0490
     12 C           1.1533   -0.4039   -1.4057 C.3     1  UNL1       -0.0267
     13 C           2.2527    0.1512   -0.6353 C.ar    1  UNL1       -0.0264
     14 C           3.5294   -0.3185   -0.8145 C.ar    1  UNL1       -0.0160
     15 C           4.6235    0.1652   -0.1314 C.ar    1  UNL1        0.1206
     16 O           5.9120   -0.3268   -0.3294 O.3     1  UNL1       -0.5066
     17 C           4.4268    1.1800    0.7856 C.ar    1  UNL1        0.0221
     18 C           3.1576    1.6754    0.9910 C.ar    1  UNL1        0.1345
     19 O           3.0320    2.6926    1.9258 O.3     1  UNL1       -0.5058
     20 C           2.0543    1.1643    0.2806 C.ar    1  UNL1        0.1036
     21 C           0.7739    1.7750    0.6067 C.2     1  UNL1        0.3433
     22 O           0.6654    2.4481    1.7001 O.2     1  UNL1       -0.2448
     23 O          -0.3746    1.7237   -0.1249 O.3     1  UNL1       -0.4581
     24 H          -2.1951    2.8062   -1.8644 H       1  UNL1        0.0265
     25 H          -1.5271    4.1151   -0.8839 H       1  UNL1        0.0265
     26 H          -3.1714    3.5604   -0.4986 H       1  UNL1        0.0265
     27 H          -1.5606    2.8723    1.1586 H       1  UNL1        0.0731
     28 H          -2.0470    0.5357    1.3130 H       1  UNL1        0.0301
     29 H          -3.4640    1.5346    1.0045 H       1  UNL1        0.0301
     30 H          -1.9872    0.0339   -1.2642 H       1  UNL1        0.0270
     31 H          -3.5756    0.8381   -1.2935 H       1  UNL1        0.0270
     32 H          -3.8744   -1.5059   -1.2123 H       1  UNL1        0.0342
     33 H          -4.5160   -0.7441    0.2649 H       1  UNL1        0.0342
     34 H          -2.4859   -3.9172    0.3697 H       1  UNL1        0.0342
     35 H          -1.8802   -3.0039   -1.0392 H       1  UNL1        0.0342
     36 H          -0.0368   -3.9107    0.2616 H       1  UNL1        0.0269
     37 H          -0.7206   -3.2960    1.8105 H       1  UNL1        0.0269
     38 H          -0.2585   -0.9138    0.8902 H       1  UNL1        0.0265
     39 H           1.1646   -1.9469    1.0512 H       1  UNL1        0.0265
     40 H          -0.3568   -1.8410   -1.5761 H       1  UNL1        0.0268
     41 H           1.2019   -2.5861   -1.2825 H       1  UNL1        0.0268
     42 H           0.3310    0.2872   -1.6602 H       1  UNL1        0.0313
     43 H           1.5924   -0.6170   -2.4615 H       1  UNL1        0.0313
     44 H           3.6770   -1.1084   -1.5317 H       1  UNL1        0.0657
     45 H           6.1827   -1.1538    0.2061 H       1  UNL1        0.2921
     46 H           5.2871    1.5777    1.3382 H       1  UNL1        0.0691
     47 H           2.8192    3.6397    1.5995 H       1  UNL1        0.2922
@<TRIPOS>BOND
     1     1     2    1
     2     2     3    1
     3     3     4    1
     4     4     5    1
     5     5     6    1
     6     6     7    2
     7     6     8    1
     8     8     9    1
     9     9    10    1
    10    10    11    1
    11    11    12    1
    12    12    13    1
    13    13    14   ar
    14    14    15   ar
    15    15    16    1
    16    15    17   ar
    17    17    18   ar
    18    18    19    1
    19    18    20   ar
    20    20    21    1
    21    21    22    2
    22    21    23    1
    23    23     2    1
    24    20    13   ar
    25     1    24    1
    26     1    25    1
    27     1    26    1
    28     2    27    1
    29     3    28    1
    30     3    29    1
    31     4    30    1
    32     4    31    1
    33     5    32    1
    34     5    33    1
    35     8    34    1
    36     8    35    1
    37     9    36    1
    38     9    37    1
    39    10    38    1
    40    10    39    1
    41    11    40    1
    42    11    41    1
    43    12    42    1
    44    12    43    1
    45    14    44    1
    46    16    45    1
    47    17    46    1
    48    19    47    1
