
     RDKit          3D

 47 48  0  0  0  0  0  0  0  0999 V2000
   -2.1785    3.2132   -0.8475 C   0  0  0  0  0  0  0  0  0  0  0  0
   -1.6199    2.3020    0.1820 C   0  0  1  0  0  0  0  0  0  0  0  0
   -2.5294    1.1201    0.5241 C   0  0  0  0  0  0  0  0  0  0  0  0
   -2.8475    0.2635   -0.6480 C   0  0  0  0  0  0  0  0  0  0  0  0
   -3.5739   -1.0251   -0.2595 C   0  0  0  0  0  0  0  0  0  0  0  0
   -2.7121   -1.8538    0.5981 C   0  0  0  0  0  0  0  0  0  0  0  0
   -2.6157   -1.6203    1.7775 O   0  0  0  0  0  0  0  0  0  0  0  0
   -1.9376   -2.9870    0.0353 C   0  0  0  0  0  0  0  0  0  0  0  0
   -0.5819   -3.0827    0.7470 C   0  0  0  0  0  0  0  0  0  0  0  0
    0.2044   -1.8067    0.4719 C   0  0  0  0  0  0  0  0  0  0  0  0
    0.5871   -1.7058   -0.9857 C   0  0  0  0  0  0  0  0  0  0  0  0
    1.1533   -0.4039   -1.4057 C   0  0  0  0  0  0  0  0  0  0  0  0
    2.2527    0.1512   -0.6353 C   0  0  0  0  0  0  0  0  0  0  0  0
    3.5294   -0.3185   -0.8145 C   0  0  0  0  0  0  0  0  0  0  0  0
    4.6235    0.1652   -0.1314 C   0  0  0  0  0  0  0  0  0  0  0  0
    5.9120   -0.3268   -0.3294 O   0  0  0  0  0  0  0  0  0  0  0  0
    4.4268    1.1800    0.7856 C   0  0  0  0  0  0  0  0  0  0  0  0
    3.1576    1.6754    0.9910 C   0  0  0  0  0  0  0  0  0  0  0  0
    3.0320    2.6926    1.9258 O   0  0  0  0  0  0  0  0  0  0  0  0
    2.0543    1.1643    0.2806 C   0  0  0  0  0  0  0  0  0  0  0  0
    0.7739    1.7750    0.6067 C   0  0  0  0  0  0  0  0  0  0  0  0
    0.6654    2.4481    1.7001 O   0  0  0  0  0  0  0  0  0  0  0  0
   -0.3746    1.7237   -0.1249 O   0  0  0  0  0  0  0  0  0  0  0  0
   -2.1951    2.8062   -1.8644 H   0  0  0  0  0  0  0  0  0  0  0  0
   -1.5271    4.1151   -0.8839 H   0  0  0  0  0  0  0  0  0  0  0  0
   -3.1714    3.5604   -0.4986 H   0  0  0  0  0  0  0  0  0  0  0  0
   -1.5606    2.8723    1.1586 H   0  0  0  0  0  0  0  0  0  0  0  0
   -2.0470    0.5357    1.3130 H   0  0  0  0  0  0  0  0  0  0  0  0
   -3.4640    1.5346    1.0045 H   0  0  0  0  0  0  0  0  0  0  0  0
   -1.9872    0.0339   -1.2642 H   0  0  0  0  0  0  0  0  0  0  0  0
   -3.5756    0.8381   -1.2935 H   0  0  0  0  0  0  0  0  0  0  0  0
   -3.8744   -1.5059   -1.2123 H   0  0  0  0  0  0  0  0  0  0  0  0
   -4.5160   -0.7441    0.2649 H   0  0  0  0  0  0  0  0  0  0  0  0
   -2.4859   -3.9172    0.3697 H   0  0  0  0  0  0  0  0  0  0  0  0
   -1.8802   -3.0039   -1.0392 H   0  0  0  0  0  0  0  0  0  0  0  0
   -0.0368   -3.9107    0.2616 H   0  0  0  0  0  0  0  0  0  0  0  0
   -0.7206   -3.2960    1.8105 H   0  0  0  0  0  0  0  0  0  0  0  0
   -0.2585   -0.9138    0.8902 H   0  0  0  0  0  0  0  0  0  0  0  0
    1.1646   -1.9469    1.0512 H   0  0  0  0  0  0  0  0  0  0  0  0
   -0.3568   -1.8410   -1.5761 H   0  0  0  0  0  0  0  0  0  0  0  0
    1.2019   -2.5861   -1.2825 H   0  0  0  0  0  0  0  0  0  0  0  0
    0.3310    0.2872   -1.6602 H   0  0  0  0  0  0  0  0  0  0  0  0
    1.5924   -0.6170   -2.4615 H   0  0  0  0  0  0  0  0  0  0  0  0
    3.6770   -1.1084   -1.5317 H   0  0  0  0  0  0  0  0  0  0  0  0
    6.1827   -1.1538    0.2061 H   0  0  0  0  0  0  0  0  0  0  0  0
    5.2871    1.5777    1.3382 H   0  0  0  0  0  0  0  0  0  0  0  0
    2.8192    3.6397    1.5995 H   0  0  0  0  0  0  0  0  0  0  0  0
  1  2  1  0
  2  3  1  0
  3  4  1  0
  4  5  1  0
  5  6  1  0
  6  7  2  0
  6  8  1  0
  8  9  1  0
  9 10  1  0
 10 11  1  0
 11 12  1  0
 12 13  1  0
 13 14  2  0
 14 15  1  0
 15 16  1  0
 15 17  2  0
 17 18  1  0
 18 19  1  0
 18 20  2  0
 20 21  1  0
 21 22  2  0
 21 23  1  0
 23  2  1  0
 20 13  1  0
  1 24  1  0
  1 25  1  0
  1 26  1  0
  2 27  1  1
  3 28  1  0
  3 29  1  0
  4 30  1  0
  4 31  1  0
  5 32  1  0
  5 33  1  0
  8 34  1  0
  8 35  1  0
  9 36  1  0
  9 37  1  0
 10 38  1  0
 10 39  1  0
 11 40  1  0
 11 41  1  0
 12 42  1  0
 12 43  1  0
 14 44  1  0
 16 45  1  0
 17 46  1  0
 19 47  1  0
M  END
$$$$
