@<TRIPOS>MOLECULE
*****
 51 54 0 0 0
SMALL
GASTEIGER

@<TRIPOS>ATOM
      1 O           3.3493    0.4428   -2.6188 O.2     1  UNL1       -0.2524
      2 C           2.9939    0.0277   -1.4482 C.2     1  UNL1        0.3049
      3 N           3.9648   -0.5813   -0.6089 N.am    1  UNL1       -0.2855
      4 C           5.3135   -0.7239   -1.1464 C.3     1  UNL1        0.0161
      5 C           6.3526   -0.5038   -0.1004 C.3     1  UNL1       -0.0371
      6 C           6.0595   -1.3991    1.0853 C.3     1  UNL1       -0.0502
      7 C           4.7222   -1.1281    1.6875 C.3     1  UNL1       -0.0371
      8 C           3.5912   -1.0117    0.7026 C.3     1  UNL1        0.0161
      9 N           1.6379    0.2314   -1.1207 N.am    1  UNL1       -0.2804
     10 C           0.5188    0.8486   -1.8160 C.3     1  UNL1        0.0440
     11 C          -0.4075   -0.0031   -1.0107 C.3     1  UNL1        0.0913
     12 O          -1.4833    0.6388   -0.4303 O.3     1  UNL1       -0.3609
     13 C          -2.6735   -0.0851   -0.4946 C.3     1  UNL1        0.1119
     14 C          -3.1740   -0.2321    0.8996 C.ar    1  UNL1       -0.0143
     15 C          -4.5130    0.0070    1.1942 C.ar    1  UNL1       -0.0544
     16 C          -5.0582   -0.1049    2.4418 C.ar    1  UNL1       -0.0430
     17 C          -4.2437   -0.4784    3.4919 C.ar    1  UNL1        0.0410
     18 CL         -4.8872   -0.6359    5.1014 Cl      1  UNL1       -0.0835
     19 C          -2.9120   -0.7271    3.2577 C.ar    1  UNL1       -0.0430
     20 C          -2.3850   -0.6032    1.9664 C.ar    1  UNL1       -0.0544
     21 C          -3.6143    0.7995   -1.2791 C.ar    1  UNL1        0.0223
     22 C          -3.9062    2.0755   -0.8446 C.ar    1  UNL1       -0.0515
     23 C          -4.7594    2.8358   -1.5853 C.ar    1  UNL1       -0.0431
     24 C          -5.2910    2.2912   -2.7363 C.ar    1  UNL1        0.0293
     25 N          -4.9888    1.0432   -3.1365 N.ar    1  UNL1       -0.2432
     26 C          -4.1503    0.2640   -2.4303 C.ar    1  UNL1        0.1351
     27 CL         -3.7375   -1.3773   -2.9326 Cl      1  UNL1       -0.0616
     28 C           0.7511   -0.0537   -0.0360 C.3     1  UNL1        0.0440
     29 H           5.4538   -1.7196   -1.6310 H       1  UNL1        0.0465
     30 H           5.4588    0.0387   -1.9369 H       1  UNL1        0.0465
     31 H           6.3781    0.5498    0.2257 H       1  UNL1        0.0280
     32 H           7.3345   -0.8436   -0.5093 H       1  UNL1        0.0280
     33 H           6.2446   -2.4529    0.8300 H       1  UNL1        0.0266
     34 H           6.8288   -1.1380    1.8603 H       1  UNL1        0.0266
     35 H           4.4672   -2.0079    2.3490 H       1  UNL1        0.0280
     36 H           4.7639   -0.2633    2.3757 H       1  UNL1        0.0280
     37 H           2.9186   -0.2082    1.1184 H       1  UNL1        0.0465
     38 H           3.0072   -1.9274    0.6012 H       1  UNL1        0.0465
     39 H           0.4473    1.9154   -1.5017 H       1  UNL1        0.0491
     40 H           0.4977    0.6811   -2.9089 H       1  UNL1        0.0491
     41 H          -0.6284   -1.0060   -1.4380 H       1  UNL1        0.0628
     42 H          -2.5426   -1.0489   -0.9856 H       1  UNL1        0.0698
     43 H          -5.1365    0.3006    0.3480 H       1  UNL1        0.0622
     44 H          -6.1183    0.0992    2.5952 H       1  UNL1        0.0632
     45 H          -2.2706   -1.0212    4.0854 H       1  UNL1        0.0632
     46 H          -1.3357   -0.8034    1.7963 H       1  UNL1        0.0622
     47 H          -3.4494    2.4503    0.0812 H       1  UNL1        0.0623
     48 H          -5.0021    3.8389   -1.2628 H       1  UNL1        0.0633
     49 H          -5.9684    2.9341   -3.2979 H       1  UNL1        0.0830
     50 H           0.8313   -1.0375    0.4706 H       1  UNL1        0.0491
     51 H           0.7504    0.8131    0.6825 H       1  UNL1        0.0491
@<TRIPOS>BOND
     1     1     2    2
     2     2     3   am
     3     3     4    1
     4     4     5    1
     5     5     6    1
     6     6     7    1
     7     7     8    1
     8     2     9   am
     9     9    10    1
    10    10    11    1
    11    11    12    1
    12    12    13    1
    13    13    14    1
    14    14    15   ar
    15    15    16   ar
    16    16    17   ar
    17    17    18    1
    18    17    19   ar
    19    19    20   ar
    20    13    21    1
    21    21    22   ar
    22    22    23   ar
    23    23    24   ar
    24    24    25   ar
    25    25    26   ar
    26    26    27    1
    27    11    28    1
    28     8     3    1
    29    28     9    1
    30    20    14   ar
    31    26    21   ar
    32     4    29    1
    33     4    30    1
    34     5    31    1
    35     5    32    1
    36     6    33    1
    37     6    34    1
    38     7    35    1
    39     7    36    1
    40     8    37    1
    41     8    38    1
    42    10    39    1
    43    10    40    1
    44    11    41    1
    45    13    42    1
    46    15    43    1
    47    16    44    1
    48    19    45    1
    49    20    46    1
    50    22    47    1
    51    23    48    1
    52    24    49    1
    53    28    50    1
    54    28    51    1
