
     RDKit          3D

 51 54  0  0  0  0  0  0  0  0999 V2000
    3.3493    0.4428   -2.6188 O   0  0  0  0  0  0  0  0  0  0  0  0
    2.9939    0.0277   -1.4482 C   0  0  0  0  0  0  0  0  0  0  0  0
    3.9648   -0.5813   -0.6089 N   0  0  0  0  0  0  0  0  0  0  0  0
    5.3135   -0.7239   -1.1464 C   0  0  0  0  0  0  0  0  0  0  0  0
    6.3526   -0.5038   -0.1004 C   0  0  0  0  0  0  0  0  0  0  0  0
    6.0595   -1.3991    1.0853 C   0  0  0  0  0  0  0  0  0  0  0  0
    4.7222   -1.1281    1.6875 C   0  0  0  0  0  0  0  0  0  0  0  0
    3.5912   -1.0117    0.7026 C   0  0  0  0  0  0  0  0  0  0  0  0
    1.6379    0.2314   -1.1207 N   0  0  0  0  0  0  0  0  0  0  0  0
    0.5188    0.8486   -1.8160 C   0  0  0  0  0  0  0  0  0  0  0  0
   -0.4075   -0.0031   -1.0107 C   0  0  0  0  0  0  0  0  0  0  0  0
   -1.4833    0.6388   -0.4303 O   0  0  0  0  0  0  0  0  0  0  0  0
   -2.6735   -0.0851   -0.4946 C   0  0  1  0  0  0  0  0  0  0  0  0
   -3.1740   -0.2321    0.8996 C   0  0  0  0  0  0  0  0  0  0  0  0
   -4.5130    0.0070    1.1942 C   0  0  0  0  0  0  0  0  0  0  0  0
   -5.0582   -0.1049    2.4418 C   0  0  0  0  0  0  0  0  0  0  0  0
   -4.2437   -0.4784    3.4919 C   0  0  0  0  0  0  0  0  0  0  0  0
   -4.8872   -0.6359    5.1014 Cl  0  0  0  0  0  0  0  0  0  0  0  0
   -2.9120   -0.7271    3.2577 C   0  0  0  0  0  0  0  0  0  0  0  0
   -2.3850   -0.6032    1.9664 C   0  0  0  0  0  0  0  0  0  0  0  0
   -3.6143    0.7995   -1.2791 C   0  0  0  0  0  0  0  0  0  0  0  0
   -3.9062    2.0755   -0.8446 C   0  0  0  0  0  0  0  0  0  0  0  0
   -4.7594    2.8358   -1.5853 C   0  0  0  0  0  0  0  0  0  0  0  0
   -5.2910    2.2912   -2.7363 C   0  0  0  0  0  0  0  0  0  0  0  0
   -4.9888    1.0432   -3.1365 N   0  0  0  0  0  0  0  0  0  0  0  0
   -4.1503    0.2640   -2.4303 C   0  0  0  0  0  0  0  0  0  0  0  0
   -3.7375   -1.3773   -2.9326 Cl  0  0  0  0  0  0  0  0  0  0  0  0
    0.7511   -0.0537   -0.0360 C   0  0  0  0  0  0  0  0  0  0  0  0
    5.4538   -1.7196   -1.6310 H   0  0  0  0  0  0  0  0  0  0  0  0
    5.4588    0.0387   -1.9369 H   0  0  0  0  0  0  0  0  0  0  0  0
    6.3781    0.5498    0.2257 H   0  0  0  0  0  0  0  0  0  0  0  0
    7.3345   -0.8436   -0.5093 H   0  0  0  0  0  0  0  0  0  0  0  0
    6.2446   -2.4529    0.8300 H   0  0  0  0  0  0  0  0  0  0  0  0
    6.8288   -1.1380    1.8603 H   0  0  0  0  0  0  0  0  0  0  0  0
    4.4672   -2.0079    2.3490 H   0  0  0  0  0  0  0  0  0  0  0  0
    4.7639   -0.2633    2.3757 H   0  0  0  0  0  0  0  0  0  0  0  0
    2.9186   -0.2082    1.1184 H   0  0  0  0  0  0  0  0  0  0  0  0
    3.0072   -1.9274    0.6012 H   0  0  0  0  0  0  0  0  0  0  0  0
    0.4473    1.9154   -1.5017 H   0  0  0  0  0  0  0  0  0  0  0  0
    0.4977    0.6811   -2.9089 H   0  0  0  0  0  0  0  0  0  0  0  0
   -0.6284   -1.0060   -1.4380 H   0  0  0  0  0  0  0  0  0  0  0  0
   -2.5426   -1.0489   -0.9856 H   0  0  0  0  0  0  0  0  0  0  0  0
   -5.1365    0.3006    0.3480 H   0  0  0  0  0  0  0  0  0  0  0  0
   -6.1183    0.0992    2.5952 H   0  0  0  0  0  0  0  0  0  0  0  0
   -2.2706   -1.0212    4.0854 H   0  0  0  0  0  0  0  0  0  0  0  0
   -1.3357   -0.8034    1.7963 H   0  0  0  0  0  0  0  0  0  0  0  0
   -3.4494    2.4503    0.0812 H   0  0  0  0  0  0  0  0  0  0  0  0
   -5.0021    3.8389   -1.2628 H   0  0  0  0  0  0  0  0  0  0  0  0
   -5.9684    2.9341   -3.2979 H   0  0  0  0  0  0  0  0  0  0  0  0
    0.8313   -1.0375    0.4706 H   0  0  0  0  0  0  0  0  0  0  0  0
    0.7504    0.8131    0.6825 H   0  0  0  0  0  0  0  0  0  0  0  0
  1  2  2  0
  2  3  1  0
  3  4  1  0
  4  5  1  0
  5  6  1  0
  6  7  1  0
  7  8  1  0
  2  9  1  0
  9 10  1  0
 10 11  1  0
 11 12  1  0
 12 13  1  0
 13 14  1  0
 14 15  2  0
 15 16  1  0
 16 17  2  0
 17 18  1  0
 17 19  1  0
 19 20  2  0
 13 21  1  0
 21 22  2  0
 22 23  1  0
 23 24  2  0
 24 25  1  0
 25 26  2  0
 26 27  1  0
 11 28  1  0
  8  3  1  0
 28  9  1  0
 20 14  1  0
 26 21  1  0
  4 29  1  0
  4 30  1  0
  5 31  1  0
  5 32  1  0
  6 33  1  0
  6 34  1  0
  7 35  1  0
  7 36  1  0
  8 37  1  0
  8 38  1  0
 10 39  1  0
 10 40  1  0
 11 41  1  0
 13 42  1  6
 15 43  1  0
 16 44  1  0
 19 45  1  0
 20 46  1  0
 22 47  1  0
 23 48  1  0
 24 49  1  0
 28 50  1  0
 28 51  1  0
M  END
$$$$
