@<TRIPOS>MOLECULE
*****
 52 55 0 0 0
SMALL
GASTEIGER

@<TRIPOS>ATOM
      1 O           3.2815   -1.0833    1.5040 O.3     1  UNL1       -0.3872
      2 C           3.1408   -0.2540    0.3905 C.3     1  UNL1        0.0813
      3 C           4.4934    0.1829   -0.0424 C.3     1  UNL1        0.0251
      4 N           5.3164   -0.9304   -0.3670 N.3     1  UNL1       -0.3105
      5 C           6.6555   -0.5487   -0.7815 C.3     1  UNL1        0.0078
      6 C           7.5098    0.2012    0.1486 C.3     1  UNL1       -0.0361
      7 C           6.9856    0.8524   -1.1146 C.3     1  UNL1       -0.0361
      8 C           2.2940    0.9288    0.8461 C.3     1  UNL1       -0.0069
      9 C           0.9611    0.4724    1.3216 C.3     1  UNL1        0.0175
     10 N           0.3830   -0.5868    0.5451 N.pl3   1  UNL1       -0.2994
     11 C          -0.9997   -0.6128    0.2198 C.ar    1  UNL1        0.2214
     12 N          -1.7662    0.4007    0.6623 N.ar    1  UNL1       -0.1790
     13 C          -3.0835    0.4529    0.3995 C.ar    1  UNL1        0.2254
     14 O          -3.8623    1.5092    0.8653 O.3     1  UNL1       -0.4378
     15 C          -5.2149    1.5874    0.6109 C.ar    1  UNL1        0.1331
     16 C          -6.1119    1.0127    1.4977 C.ar    1  UNL1       -0.0191
     17 C          -7.4748    1.0606    1.2932 C.ar    1  UNL1       -0.0556
     18 C          -7.9344    1.7123    0.1534 C.ar    1  UNL1       -0.0262
     19 C          -7.0488    2.2881   -0.7362 C.ar    1  UNL1        0.1269
     20 F          -7.4566    2.9335   -1.8607 F       1  UNL1       -0.2054
     21 C          -5.6806    2.2369   -0.5257 C.ar    1  UNL1        0.0160
     22 C          -3.6547   -0.5470   -0.3338 C.ar    1  UNL1        0.0305
     23 C          -2.8582   -1.5805   -0.7818 C.ar    1  UNL1        0.1522
     24 C          -3.4683   -2.6722   -1.5793 C.3     1  UNL1        0.4345
     25 F          -2.5933   -3.1073   -2.5391 F       1  UNL1       -0.1644
     26 F          -4.5793   -2.1545   -2.2452 F       1  UNL1       -0.1644
     27 F          -3.8580   -3.6574   -0.7031 F       1  UNL1       -0.1644
     28 N          -1.5362   -1.6070   -0.5024 N.ar    1  UNL1       -0.2101
     29 C           1.2195   -1.6898    0.0586 C.3     1  UNL1        0.0175
     30 C           2.3879   -1.0055   -0.6730 C.3     1  UNL1       -0.0069
     31 H           2.6393   -0.8854    2.2161 H       1  UNL1        0.2102
     32 H           4.9696    0.9092    0.6397 H       1  UNL1        0.0452
     33 H           4.3549    0.7610   -1.0065 H       1  UNL1        0.0452
     34 H           4.9240   -1.6468   -0.9718 H       1  UNL1        0.1223
     35 H           7.1533   -1.3382   -1.3828 H       1  UNL1        0.0460
     36 H           7.1258    0.6128    1.1100 H       1  UNL1        0.0281
     37 H           8.6121   -0.0178    0.2094 H       1  UNL1        0.0281
     38 H           6.2334    1.6745   -1.0059 H       1  UNL1        0.0281
     39 H           7.7544    1.0296   -1.8971 H       1  UNL1        0.0281
     40 H           2.2536    1.7340    0.1105 H       1  UNL1        0.0308
     41 H           2.8410    1.3479    1.7412 H       1  UNL1        0.0308
     42 H           0.9440    0.2387    2.4217 H       1  UNL1        0.0465
     43 H           0.2577    1.3514    1.2259 H       1  UNL1        0.0465
     44 H          -5.7682    0.5004    2.3919 H       1  UNL1        0.0654
     45 H          -8.1943    0.6174    1.9746 H       1  UNL1        0.0620
     46 H          -9.0073    1.7728   -0.0458 H       1  UNL1        0.0646
     47 H          -4.9884    2.6876   -1.2220 H       1  UNL1        0.0683
     48 H          -4.7276   -0.5601   -0.5816 H       1  UNL1        0.0692
     49 H           0.6618   -2.3466   -0.6062 H       1  UNL1        0.0465
     50 H           1.6825   -2.2265    0.9196 H       1  UNL1        0.0465
     51 H           2.9685   -1.7298   -1.2340 H       1  UNL1        0.0308
     52 H           1.8634   -0.2809   -1.3671 H       1  UNL1        0.0308
@<TRIPOS>BOND
     1     1     2    1
     2     2     3    1
     3     3     4    1
     4     4     5    1
     5     5     6    1
     6     6     7    1
     7     2     8    1
     8     8     9    1
     9     9    10    1
    10    10    11    1
    11    11    12   ar
    12    12    13   ar
    13    13    14    1
    14    14    15    1
    15    15    16   ar
    16    16    17   ar
    17    17    18   ar
    18    18    19   ar
    19    19    20    1
    20    19    21   ar
    21    13    22   ar
    22    22    23   ar
    23    23    24    1
    24    24    25    1
    25    24    26    1
    26    24    27    1
    27    23    28   ar
    28    10    29    1
    29    29    30    1
    30    30     2    1
    31     7     5    1
    32    28    11   ar
    33    21    15   ar
    34     1    31    1
    35     3    32    1
    36     3    33    1
    37     4    34    1
    38     5    35    1
    39     6    36    1
    40     6    37    1
    41     7    38    1
    42     7    39    1
    43     8    40    1
    44     8    41    1
    45     9    42    1
    46     9    43    1
    47    16    44    1
    48    17    45    1
    49    18    46    1
    50    21    47    1
    51    22    48    1
    52    29    49    1
    53    29    50    1
    54    30    51    1
    55    30    52    1
