
     RDKit          3D

 52 55  0  0  0  0  0  0  0  0999 V2000
    3.2815   -1.0833    1.5040 O   0  0  0  0  0  0  0  0  0  0  0  0
    3.1408   -0.2540    0.3905 C   0  0  0  0  0  0  0  0  0  0  0  0
    4.4934    0.1829   -0.0424 C   0  0  0  0  0  0  0  0  0  0  0  0
    5.3164   -0.9304   -0.3670 N   0  0  0  0  0  0  0  0  0  0  0  0
    6.6555   -0.5487   -0.7815 C   0  0  0  0  0  0  0  0  0  0  0  0
    7.5098    0.2012    0.1486 C   0  0  0  0  0  0  0  0  0  0  0  0
    6.9856    0.8524   -1.1146 C   0  0  0  0  0  0  0  0  0  0  0  0
    2.2940    0.9288    0.8461 C   0  0  0  0  0  0  0  0  0  0  0  0
    0.9611    0.4724    1.3216 C   0  0  0  0  0  0  0  0  0  0  0  0
    0.3830   -0.5868    0.5451 N   0  0  0  0  0  0  0  0  0  0  0  0
   -0.9997   -0.6128    0.2198 C   0  0  0  0  0  0  0  0  0  0  0  0
   -1.7662    0.4007    0.6623 N   0  0  0  0  0  0  0  0  0  0  0  0
   -3.0835    0.4529    0.3995 C   0  0  0  0  0  0  0  0  0  0  0  0
   -3.8623    1.5092    0.8653 O   0  0  0  0  0  0  0  0  0  0  0  0
   -5.2149    1.5874    0.6109 C   0  0  0  0  0  0  0  0  0  0  0  0
   -6.1119    1.0127    1.4977 C   0  0  0  0  0  0  0  0  0  0  0  0
   -7.4748    1.0606    1.2932 C   0  0  0  0  0  0  0  0  0  0  0  0
   -7.9344    1.7123    0.1534 C   0  0  0  0  0  0  0  0  0  0  0  0
   -7.0488    2.2881   -0.7362 C   0  0  0  0  0  0  0  0  0  0  0  0
   -7.4566    2.9335   -1.8607 F   0  0  0  0  0  0  0  0  0  0  0  0
   -5.6806    2.2369   -0.5257 C   0  0  0  0  0  0  0  0  0  0  0  0
   -3.6547   -0.5470   -0.3338 C   0  0  0  0  0  0  0  0  0  0  0  0
   -2.8582   -1.5805   -0.7818 C   0  0  0  0  0  0  0  0  0  0  0  0
   -3.4683   -2.6722   -1.5793 C   0  0  0  0  0  0  0  0  0  0  0  0
   -2.5933   -3.1073   -2.5391 F   0  0  0  0  0  0  0  0  0  0  0  0
   -4.5793   -2.1545   -2.2452 F   0  0  0  0  0  0  0  0  0  0  0  0
   -3.8580   -3.6574   -0.7031 F   0  0  0  0  0  0  0  0  0  0  0  0
   -1.5362   -1.6070   -0.5024 N   0  0  0  0  0  0  0  0  0  0  0  0
    1.2195   -1.6898    0.0586 C   0  0  0  0  0  0  0  0  0  0  0  0
    2.3879   -1.0055   -0.6730 C   0  0  0  0  0  0  0  0  0  0  0  0
    2.6393   -0.8854    2.2161 H   0  0  0  0  0  0  0  0  0  0  0  0
    4.9696    0.9092    0.6397 H   0  0  0  0  0  0  0  0  0  0  0  0
    4.3549    0.7610   -1.0065 H   0  0  0  0  0  0  0  0  0  0  0  0
    4.9240   -1.6468   -0.9718 H   0  0  0  0  0  0  0  0  0  0  0  0
    7.1533   -1.3382   -1.3828 H   0  0  0  0  0  0  0  0  0  0  0  0
    7.1258    0.6128    1.1100 H   0  0  0  0  0  0  0  0  0  0  0  0
    8.6121   -0.0178    0.2094 H   0  0  0  0  0  0  0  0  0  0  0  0
    6.2334    1.6745   -1.0059 H   0  0  0  0  0  0  0  0  0  0  0  0
    7.7544    1.0296   -1.8971 H   0  0  0  0  0  0  0  0  0  0  0  0
    2.2536    1.7340    0.1105 H   0  0  0  0  0  0  0  0  0  0  0  0
    2.8410    1.3479    1.7412 H   0  0  0  0  0  0  0  0  0  0  0  0
    0.9440    0.2387    2.4217 H   0  0  0  0  0  0  0  0  0  0  0  0
    0.2577    1.3514    1.2259 H   0  0  0  0  0  0  0  0  0  0  0  0
   -5.7682    0.5004    2.3919 H   0  0  0  0  0  0  0  0  0  0  0  0
   -8.1943    0.6174    1.9746 H   0  0  0  0  0  0  0  0  0  0  0  0
   -9.0073    1.7728   -0.0458 H   0  0  0  0  0  0  0  0  0  0  0  0
   -4.9884    2.6876   -1.2220 H   0  0  0  0  0  0  0  0  0  0  0  0
   -4.7276   -0.5601   -0.5816 H   0  0  0  0  0  0  0  0  0  0  0  0
    0.6618   -2.3466   -0.6062 H   0  0  0  0  0  0  0  0  0  0  0  0
    1.6825   -2.2265    0.9196 H   0  0  0  0  0  0  0  0  0  0  0  0
    2.9685   -1.7298   -1.2340 H   0  0  0  0  0  0  0  0  0  0  0  0
    1.8634   -0.2809   -1.3671 H   0  0  0  0  0  0  0  0  0  0  0  0
  1  2  1  0
  2  3  1  0
  3  4  1  0
  4  5  1  0
  5  6  1  0
  6  7  1  0
  2  8  1  0
  8  9  1  0
  9 10  1  0
 10 11  1  0
 11 12  2  0
 12 13  1  0
 13 14  1  0
 14 15  1  0
 15 16  2  0
 16 17  1  0
 17 18  2  0
 18 19  1  0
 19 20  1  0
 19 21  2  0
 13 22  2  0
 22 23  1  0
 23 24  1  0
 24 25  1  0
 24 26  1  0
 24 27  1  0
 23 28  2  0
 10 29  1  0
 29 30  1  0
 30  2  1  0
  7  5  1  0
 28 11  1  0
 21 15  1  0
  1 31  1  0
  3 32  1  0
  3 33  1  0
  4 34  1  0
  5 35  1  0
  6 36  1  0
  6 37  1  0
  7 38  1  0
  7 39  1  0
  8 40  1  0
  8 41  1  0
  9 42  1  0
  9 43  1  0
 16 44  1  0
 17 45  1  0
 18 46  1  0
 21 47  1  0
 22 48  1  0
 29 49  1  0
 29 50  1  0
 30 51  1  0
 30 52  1  0
M  END
$$$$
