@<TRIPOS>MOLECULE
*****
 47 49 0 0 0
SMALL
GASTEIGER

@<TRIPOS>ATOM
      1 C          -7.0458   -0.1044    2.9902 C.3     1  UNL1        0.0788
      2 O          -6.7482    0.8305    1.9873 O.3     1  UNL1       -0.4951
      3 C          -5.8964    0.4903    0.9494 C.ar    1  UNL1        0.1202
      4 C          -5.6250    1.4448   -0.0272 C.ar    1  UNL1       -0.0182
      5 C          -4.7627    1.0893   -1.0712 C.ar    1  UNL1       -0.0367
      6 C          -4.1987   -0.1591   -1.1369 C.ar    1  UNL1        0.0393
      7 N          -3.3325   -0.5074   -2.1910 N.am    1  UNL1       -0.2400
      8 C          -3.8680   -1.0926   -3.4001 C.3     1  UNL1        0.0115
      9 C          -1.9156   -0.2823   -2.0676 C.2     1  UNL1        0.4123
     10 O          -1.1501   -0.5962   -3.0133 O.2     1  UNL1       -0.2254
     11 O          -1.4007    0.2786   -0.9092 O.3     1  UNL1       -0.4112
     12 C          -0.0483    0.5215   -0.7263 C.ar    1  UNL1        0.1335
     13 C           0.7964   -0.4074   -0.1742 C.ar    1  UNL1       -0.0157
     14 C           2.1589   -0.1349   -0.0012 C.ar    1  UNL1       -0.0158
     15 C           2.7344    1.0592   -0.3654 C.ar    1  UNL1        0.1306
     16 O           4.0474    1.4120   -0.2353 O.3     1  UNL1       -0.4380
     17 C           5.0554    0.6944    0.2652 C.ar    1  UNL1        0.2205
     18 C           6.3214    1.2962    0.2846 C.ar    1  UNL1        0.0009
     19 C           7.3757    0.6068    0.7833 C.ar    1  UNL1       -0.0436
     20 C           7.1892   -0.6737    1.2633 C.ar    1  UNL1        0.0731
     21 C           8.3755   -1.3881    1.7996 C.3     1  UNL1        0.4188
     22 F           7.9743   -2.6048    2.3185 F       1  UNL1       -0.1658
     23 F           9.2848   -1.5219    0.7851 F       1  UNL1       -0.1658
     24 F           8.9314   -0.5676    2.7680 F       1  UNL1       -0.1658
     25 C           5.9519   -1.2745    1.2494 C.ar    1  UNL1        0.0430
     26 N           4.9455   -0.5346    0.7403 N.ar    1  UNL1       -0.2204
     27 C           1.8382    1.9960   -0.9315 C.ar    1  UNL1       -0.0158
     28 C           0.5084    1.7246   -1.0981 C.ar    1  UNL1       -0.0157
     29 C          -4.4931   -1.0723   -0.1518 C.ar    1  UNL1       -0.0367
     30 C          -5.3404   -0.7665    0.9005 C.ar    1  UNL1       -0.0182
     31 H          -7.6685    0.3940    3.7586 H       1  UNL1        0.0660
     32 H          -6.1011   -0.4878    3.4447 H       1  UNL1        0.0660
     33 H          -7.5502   -0.9965    2.5601 H       1  UNL1        0.0660
     34 H          -6.0856    2.4168    0.0553 H       1  UNL1        0.0655
     35 H          -4.5760    1.8534   -1.8082 H       1  UNL1        0.0637
     36 H          -4.9192   -0.8415   -3.5686 H       1  UNL1        0.0434
     37 H          -3.2951   -0.6285   -4.2472 H       1  UNL1        0.0434
     38 H          -3.7701   -2.1989   -3.4226 H       1  UNL1        0.0434
     39 H           0.4159   -1.3668    0.1354 H       1  UNL1        0.0655
     40 H           2.7646   -0.9062    0.4373 H       1  UNL1        0.0655
     41 H           6.4542    2.3063   -0.0970 H       1  UNL1        0.0671
     42 H           8.3586    1.0866    0.7933 H       1  UNL1        0.0625
     43 H           5.8472   -2.2638    1.6285 H       1  UNL1        0.0836
     44 H           2.2728    2.9462   -1.2261 H       1  UNL1        0.0655
     45 H          -0.1612    2.4645   -1.5372 H       1  UNL1        0.0655
     46 H          -4.0711   -2.0626   -0.1667 H       1  UNL1        0.0637
     47 H          -5.5784   -1.4708    1.6762 H       1  UNL1        0.0655
@<TRIPOS>BOND
     1     1     2    1
     2     2     3    1
     3     3     4   ar
     4     4     5   ar
     5     5     6   ar
     6     6     7    1
     7     7     8    1
     8     7     9   am
     9     9    10    2
    10     9    11    1
    11    11    12    1
    12    12    13   ar
    13    13    14   ar
    14    14    15   ar
    15    15    16    1
    16    16    17    1
    17    17    18   ar
    18    18    19   ar
    19    19    20   ar
    20    20    21    1
    21    21    22    1
    22    21    23    1
    23    21    24    1
    24    20    25   ar
    25    25    26   ar
    26    15    27   ar
    27    27    28   ar
    28     6    29   ar
    29    29    30   ar
    30    30     3   ar
    31    28    12   ar
    32    26    17   ar
    33     1    31    1
    34     1    32    1
    35     1    33    1
    36     4    34    1
    37     5    35    1
    38     8    36    1
    39     8    37    1
    40     8    38    1
    41    13    39    1
    42    14    40    1
    43    18    41    1
    44    19    42    1
    45    25    43    1
    46    27    44    1
    47    28    45    1
    48    29    46    1
    49    30    47    1
