
     RDKit          3D

 47 49  0  0  0  0  0  0  0  0999 V2000
   -7.0458   -0.1044    2.9902 C   0  0  0  0  0  0  0  0  0  0  0  0
   -6.7482    0.8305    1.9873 O   0  0  0  0  0  0  0  0  0  0  0  0
   -5.8964    0.4903    0.9494 C   0  0  0  0  0  0  0  0  0  0  0  0
   -5.6250    1.4448   -0.0272 C   0  0  0  0  0  0  0  0  0  0  0  0
   -4.7627    1.0893   -1.0712 C   0  0  0  0  0  0  0  0  0  0  0  0
   -4.1987   -0.1591   -1.1369 C   0  0  0  0  0  0  0  0  0  0  0  0
   -3.3325   -0.5074   -2.1910 N   0  0  0  0  0  0  0  0  0  0  0  0
   -3.8680   -1.0926   -3.4001 C   0  0  0  0  0  0  0  0  0  0  0  0
   -1.9156   -0.2823   -2.0676 C   0  0  0  0  0  0  0  0  0  0  0  0
   -1.1501   -0.5962   -3.0133 O   0  0  0  0  0  0  0  0  0  0  0  0
   -1.4007    0.2786   -0.9092 O   0  0  0  0  0  0  0  0  0  0  0  0
   -0.0483    0.5215   -0.7263 C   0  0  0  0  0  0  0  0  0  0  0  0
    0.7964   -0.4074   -0.1742 C   0  0  0  0  0  0  0  0  0  0  0  0
    2.1589   -0.1349   -0.0012 C   0  0  0  0  0  0  0  0  0  0  0  0
    2.7344    1.0592   -0.3654 C   0  0  0  0  0  0  0  0  0  0  0  0
    4.0474    1.4120   -0.2353 O   0  0  0  0  0  0  0  0  0  0  0  0
    5.0554    0.6944    0.2652 C   0  0  0  0  0  0  0  0  0  0  0  0
    6.3214    1.2962    0.2846 C   0  0  0  0  0  0  0  0  0  0  0  0
    7.3757    0.6068    0.7833 C   0  0  0  0  0  0  0  0  0  0  0  0
    7.1892   -0.6737    1.2633 C   0  0  0  0  0  0  0  0  0  0  0  0
    8.3755   -1.3881    1.7996 C   0  0  0  0  0  0  0  0  0  0  0  0
    7.9743   -2.6048    2.3185 F   0  0  0  0  0  0  0  0  0  0  0  0
    9.2848   -1.5219    0.7851 F   0  0  0  0  0  0  0  0  0  0  0  0
    8.9314   -0.5676    2.7680 F   0  0  0  0  0  0  0  0  0  0  0  0
    5.9519   -1.2745    1.2494 C   0  0  0  0  0  0  0  0  0  0  0  0
    4.9455   -0.5346    0.7403 N   0  0  0  0  0  0  0  0  0  0  0  0
    1.8382    1.9960   -0.9315 C   0  0  0  0  0  0  0  0  0  0  0  0
    0.5084    1.7246   -1.0981 C   0  0  0  0  0  0  0  0  0  0  0  0
   -4.4931   -1.0723   -0.1518 C   0  0  0  0  0  0  0  0  0  0  0  0
   -5.3404   -0.7665    0.9005 C   0  0  0  0  0  0  0  0  0  0  0  0
   -7.6685    0.3940    3.7586 H   0  0  0  0  0  0  0  0  0  0  0  0
   -6.1011   -0.4878    3.4447 H   0  0  0  0  0  0  0  0  0  0  0  0
   -7.5502   -0.9965    2.5601 H   0  0  0  0  0  0  0  0  0  0  0  0
   -6.0856    2.4168    0.0553 H   0  0  0  0  0  0  0  0  0  0  0  0
   -4.5760    1.8534   -1.8082 H   0  0  0  0  0  0  0  0  0  0  0  0
   -4.9192   -0.8415   -3.5686 H   0  0  0  0  0  0  0  0  0  0  0  0
   -3.2951   -0.6285   -4.2472 H   0  0  0  0  0  0  0  0  0  0  0  0
   -3.7701   -2.1989   -3.4226 H   0  0  0  0  0  0  0  0  0  0  0  0
    0.4159   -1.3668    0.1354 H   0  0  0  0  0  0  0  0  0  0  0  0
    2.7646   -0.9062    0.4373 H   0  0  0  0  0  0  0  0  0  0  0  0
    6.4542    2.3063   -0.0970 H   0  0  0  0  0  0  0  0  0  0  0  0
    8.3586    1.0866    0.7933 H   0  0  0  0  0  0  0  0  0  0  0  0
    5.8472   -2.2638    1.6285 H   0  0  0  0  0  0  0  0  0  0  0  0
    2.2728    2.9462   -1.2261 H   0  0  0  0  0  0  0  0  0  0  0  0
   -0.1612    2.4645   -1.5372 H   0  0  0  0  0  0  0  0  0  0  0  0
   -4.0711   -2.0626   -0.1667 H   0  0  0  0  0  0  0  0  0  0  0  0
   -5.5784   -1.4708    1.6762 H   0  0  0  0  0  0  0  0  0  0  0  0
  1  2  1  0
  2  3  1  0
  3  4  2  0
  4  5  1  0
  5  6  2  0
  6  7  1  0
  7  8  1  0
  7  9  1  0
  9 10  2  0
  9 11  1  0
 11 12  1  0
 12 13  2  0
 13 14  1  0
 14 15  2  0
 15 16  1  0
 16 17  1  0
 17 18  2  0
 18 19  1  0
 19 20  2  0
 20 21  1  0
 21 22  1  0
 21 23  1  0
 21 24  1  0
 20 25  1  0
 25 26  2  0
 15 27  1  0
 27 28  2  0
  6 29  1  0
 29 30  2  0
 30  3  1  0
 28 12  1  0
 26 17  1  0
  1 31  1  0
  1 32  1  0
  1 33  1  0
  4 34  1  0
  5 35  1  0
  8 36  1  0
  8 37  1  0
  8 38  1  0
 13 39  1  0
 14 40  1  0
 18 41  1  0
 19 42  1  0
 25 43  1  0
 27 44  1  0
 28 45  1  0
 29 46  1  0
 30 47  1  0
M  END
$$$$
