@<TRIPOS>MOLECULE
*****
 52 56 0 0 0
SMALL
GASTEIGER

@<TRIPOS>ATOM
      1 N           2.5160    2.5074    1.2949 N.3     1  UNL1       -0.3245
      2 C           3.0125    1.3387    0.5243 C.3     1  UNL1        0.0403
      3 C           2.1705    1.2899   -0.7204 C.3     1  UNL1        0.1048
      4 O           0.8531    1.0922   -0.6457 O.3     1  UNL1       -0.4889
      5 C          -0.2085    1.6859   -0.1636 C.ar    1  UNL1        0.1392
      6 C          -0.6540    2.7980    0.5046 C.ar    1  UNL1        0.0692
      7 N          -1.9013    3.1160    0.8717 N.ar    1  UNL1       -0.2590
      8 C          -2.9070    2.2651    0.5712 C.ar    1  UNL1        0.0355
      9 C          -2.6139    1.0978   -0.1041 C.ar    1  UNL1        0.0037
     10 C          -1.2907    0.8238   -0.4588 C.ar    1  UNL1       -0.0093
     11 C          -3.7953    0.2832   -0.3577 C.ar    1  UNL1       -0.0157
     12 C          -4.8475    0.2883    0.5333 C.ar    1  UNL1       -0.0462
     13 C          -5.9714   -0.5003    0.2708 C.ar    1  UNL1       -0.0144
     14 C          -5.9365   -1.2395   -0.8890 C.ar    1  UNL1        0.0003
     15 C          -4.9236   -1.2938   -1.8222 C.ar    1  UNL1       -0.0520
     16 C          -3.8232   -0.4864   -1.5110 C.ar    1  UNL1       -0.0533
     17 C          -7.0381   -2.0457   -1.1962 C.ar    1  UNL1        0.0353
     18 N          -8.1164   -2.0911   -0.3594 N.ar    1  UNL1       -0.2626
     19 C          -8.1027   -1.3478    0.7654 C.ar    1  UNL1        0.0281
     20 C          -7.0473   -0.5275    1.1327 C.ar    1  UNL1       -0.0359
     21 C           2.9159    0.1155    1.3601 C.3     1  UNL1       -0.0228
     22 C           3.3689   -1.1816    0.8508 C.3     1  UNL1        0.0230
     23 C           2.6579   -1.6248   -0.3601 C.2     1  UNL1        0.0133
     24 N           3.4540   -1.9284   -1.3591 N.2     1  UNL1       -0.2589
     25 C           4.7742   -1.7000   -0.8882 C.ar    1  UNL1        0.0673
     26 C           6.0051   -1.8544   -1.5285 C.ar    1  UNL1       -0.0360
     27 C           7.2261   -1.5861   -0.9492 C.ar    1  UNL1       -0.0597
     28 C           7.2171   -1.1378    0.3445 C.ar    1  UNL1       -0.0614
     29 C           6.0164   -0.9706    1.0178 C.ar    1  UNL1       -0.0559
     30 C           4.7989   -1.2451    0.4204 C.ar    1  UNL1       -0.0137
     31 H           3.1195    2.6639    2.1336 H       1  UNL1        0.1186
     32 H           2.5360    3.3571    0.6928 H       1  UNL1        0.1186
     33 H           4.0506    1.5985    0.2360 H       1  UNL1        0.0492
     34 H           2.3581    2.3116   -1.2280 H       1  UNL1        0.0712
     35 H           2.6204    0.5761   -1.4654 H       1  UNL1        0.0712
     36 H           0.1385    3.4854    0.7267 H       1  UNL1        0.0867
     37 H          -3.8756    2.5966    0.9015 H       1  UNL1        0.0836
     38 H          -1.3184   -0.1355   -0.9718 H       1  UNL1        0.0661
     39 H          -4.8555    0.8693    1.4283 H       1  UNL1        0.0630
     40 H          -4.9792   -1.9028   -2.7082 H       1  UNL1        0.0624
     41 H          -2.9887   -0.4802   -2.2038 H       1  UNL1        0.0624
     42 H          -7.1339   -2.6815   -2.0881 H       1  UNL1        0.0836
     43 H          -8.9705   -1.3944    1.4225 H       1  UNL1        0.0830
     44 H          -7.0186    0.0731    2.0268 H       1  UNL1        0.0639
     45 H           1.8607    0.0621    1.7650 H       1  UNL1        0.0291
     46 H           3.5364    0.3207    2.2995 H       1  UNL1        0.0291
     47 H           3.2266   -1.9895    1.6636 H       1  UNL1        0.0407
     48 H           1.5830   -1.7273   -0.5216 H       1  UNL1        0.0789
     49 H           5.9888   -2.2088   -2.5478 H       1  UNL1        0.0639
     50 H           8.1204   -1.7445   -1.5504 H       1  UNL1        0.0618
     51 H           8.1687   -0.9276    0.8044 H       1  UNL1        0.0618
     52 H           6.0237   -0.6164    2.0356 H       1  UNL1        0.0621
@<TRIPOS>BOND
     1     1     2    1
     2     2     3    1
     3     3     4    1
     4     4     5    1
     5     5     6   ar
     6     6     7   ar
     7     7     8   ar
     8     8     9   ar
     9     9    10   ar
    10     9    11    1
    11    11    12   ar
    12    12    13   ar
    13    13    14   ar
    14    14    15   ar
    15    15    16   ar
    16    14    17   ar
    17    17    18   ar
    18    18    19   ar
    19    19    20   ar
    20     2    21    1
    21    21    22    1
    22    22    23    1
    23    23    24    2
    24    24    25    1
    25    25    26   ar
    26    26    27   ar
    27    27    28   ar
    28    28    29   ar
    29    29    30   ar
    30    10     5   ar
    31    16    11   ar
    32    30    22    1
    33    20    13   ar
    34    30    25   ar
    35     1    31    1
    36     1    32    1
    37     2    33    1
    38     3    34    1
    39     3    35    1
    40     6    36    1
    41     8    37    1
    42    10    38    1
    43    12    39    1
    44    15    40    1
    45    16    41    1
    46    17    42    1
    47    19    43    1
    48    20    44    1
    49    21    45    1
    50    21    46    1
    51    22    47    1
    52    23    48    1
    53    26    49    1
    54    27    50    1
    55    28    51    1
    56    29    52    1
