@<TRIPOS>MOLECULE
*****
 32 35 0 0 0
SMALL
GASTEIGER

@<TRIPOS>ATOM
      1 O          -1.1557    2.8692    0.9914 O.2     1  UNL1       -0.1431
      2 N          -0.7257    1.7374    1.3424 N.2     1  UNL1       -0.0279
      3 C          -1.1152    0.6501    0.4993 C.ar    1  UNL1        0.1404
      4 C          -0.3865   -0.2891   -0.1220 C.ar    1  UNL1        0.0823
      5 C           1.0307   -0.5764   -0.1566 C.ar    1  UNL1        0.0690
      6 C           1.5985   -1.8481   -0.3708 C.ar    1  UNL1        0.2006
      7 O           0.7937   -2.9910   -0.5181 O.3     1  UNL1       -0.4931
      8 N           2.9257   -1.7919   -0.4067 N.ar    1  UNL1       -0.3254
      9 C           3.2951   -0.5178   -0.2247 C.ar    1  UNL1        0.0498
     10 C           4.5517    0.0620   -0.1954 C.ar    1  UNL1       -0.0377
     11 C           4.6883    1.4136   -0.0144 C.ar    1  UNL1       -0.0598
     12 C           3.5447    2.1595    0.1338 C.ar    1  UNL1       -0.0611
     13 C           2.2748    1.6164    0.1106 C.ar    1  UNL1       -0.0518
     14 C           2.1348    0.2543   -0.0687 C.ar    1  UNL1        0.0126
     15 N          -1.2974   -1.1106   -0.7359 N.ar    1  UNL1       -0.3522
     16 C          -2.5432   -0.7081   -0.5144 C.ar    1  UNL1        0.0491
     17 C          -3.8048   -1.1780   -0.9015 C.ar    1  UNL1       -0.0377
     18 C          -4.9362   -0.5339   -0.5071 C.ar    1  UNL1       -0.0598
     19 C          -4.8505    0.5839    0.2748 C.ar    1  UNL1       -0.0610
     20 C          -3.6364    1.0845    0.6810 C.ar    1  UNL1       -0.0504
     21 C          -2.4850    0.4155    0.2704 C.ar    1  UNL1        0.0290
     22 H           0.5691   -3.6092    0.2314 H       1  UNL1        0.2937
     23 H           3.5577   -2.6112   -0.5528 H       1  UNL1        0.1688
     24 H           5.4213   -0.5794   -0.3190 H       1  UNL1        0.0638
     25 H           5.6724    1.9055    0.0144 H       1  UNL1        0.0618
     26 H           3.5888    3.2468    0.2809 H       1  UNL1        0.0618
     27 H           1.3994    2.2300    0.1987 H       1  UNL1        0.0624
     28 H          -1.0848   -1.9593   -1.3209 H       1  UNL1        0.1660
     29 H          -3.8152   -2.0647   -1.5190 H       1  UNL1        0.0638
     30 H          -5.9009   -0.9247   -0.8251 H       1  UNL1        0.0618
     31 H          -5.7607    1.0924    0.5853 H       1  UNL1        0.0618
     32 H          -3.5484    1.9725    1.3031 H       1  UNL1        0.0625
@<TRIPOS>BOND
     1     1     2    2
     2     2     3    1
     3     3     4   ar
     4     4     5    1
     5     5     6   ar
     6     6     7    1
     7     6     8   ar
     8     8     9   ar
     9     9    10   ar
    10    10    11   ar
    11    11    12   ar
    12    12    13   ar
    13    13    14   ar
    14     4    15   ar
    15    15    16   ar
    16    16    17   ar
    17    17    18   ar
    18    18    19   ar
    19    19    20   ar
    20    20    21   ar
    21    21     3   ar
    22    14     5   ar
    23    21    16   ar
    24    14     9   ar
    25     7    22    1
    26     8    23    1
    27    10    24    1
    28    11    25    1
    29    12    26    1
    30    13    27    1
    31    15    28    1
    32    17    29    1
    33    18    30    1
    34    19    31    1
    35    20    32    1
