
     RDKit          3D

 32 35  0  0  0  0  0  0  0  0999 V2000
   -1.1557    2.8692    0.9914 O   0  0  0  0  0  0  0  0  0  0  0  0
   -0.7257    1.7374    1.3424 N   0  0  0  0  0  0  0  0  0  0  0  0
   -1.1152    0.6501    0.4993 C   0  0  0  0  0  0  0  0  0  0  0  0
   -0.3865   -0.2891   -0.1220 C   0  0  0  0  0  0  0  0  0  0  0  0
    1.0307   -0.5764   -0.1566 C   0  0  0  0  0  0  0  0  0  0  0  0
    1.5985   -1.8481   -0.3708 C   0  0  0  0  0  0  0  0  0  0  0  0
    0.7937   -2.9910   -0.5181 O   0  0  0  0  0  0  0  0  0  0  0  0
    2.9257   -1.7919   -0.4067 N   0  0  0  0  0  0  0  0  0  0  0  0
    3.2951   -0.5178   -0.2247 C   0  0  0  0  0  0  0  0  0  0  0  0
    4.5517    0.0620   -0.1954 C   0  0  0  0  0  0  0  0  0  0  0  0
    4.6883    1.4136   -0.0144 C   0  0  0  0  0  0  0  0  0  0  0  0
    3.5447    2.1595    0.1338 C   0  0  0  0  0  0  0  0  0  0  0  0
    2.2748    1.6164    0.1106 C   0  0  0  0  0  0  0  0  0  0  0  0
    2.1348    0.2543   -0.0687 C   0  0  0  0  0  0  0  0  0  0  0  0
   -1.2974   -1.1106   -0.7359 N   0  0  0  0  0  0  0  0  0  0  0  0
   -2.5432   -0.7081   -0.5144 C   0  0  0  0  0  0  0  0  0  0  0  0
   -3.8048   -1.1780   -0.9015 C   0  0  0  0  0  0  0  0  0  0  0  0
   -4.9362   -0.5339   -0.5071 C   0  0  0  0  0  0  0  0  0  0  0  0
   -4.8505    0.5839    0.2748 C   0  0  0  0  0  0  0  0  0  0  0  0
   -3.6364    1.0845    0.6810 C   0  0  0  0  0  0  0  0  0  0  0  0
   -2.4850    0.4155    0.2704 C   0  0  0  0  0  0  0  0  0  0  0  0
    0.5691   -3.6092    0.2314 H   0  0  0  0  0  0  0  0  0  0  0  0
    3.5577   -2.6112   -0.5528 H   0  0  0  0  0  0  0  0  0  0  0  0
    5.4213   -0.5794   -0.3190 H   0  0  0  0  0  0  0  0  0  0  0  0
    5.6724    1.9055    0.0144 H   0  0  0  0  0  0  0  0  0  0  0  0
    3.5888    3.2468    0.2809 H   0  0  0  0  0  0  0  0  0  0  0  0
    1.3994    2.2300    0.1987 H   0  0  0  0  0  0  0  0  0  0  0  0
   -1.0848   -1.9593   -1.3209 H   0  0  0  0  0  0  0  0  0  0  0  0
   -3.8152   -2.0647   -1.5190 H   0  0  0  0  0  0  0  0  0  0  0  0
   -5.9009   -0.9247   -0.8251 H   0  0  0  0  0  0  0  0  0  0  0  0
   -5.7607    1.0924    0.5853 H   0  0  0  0  0  0  0  0  0  0  0  0
   -3.5484    1.9725    1.3031 H   0  0  0  0  0  0  0  0  0  0  0  0
  1  2  2  0
  2  3  1  0
  3  4  2  0
  4  5  1  0
  5  6  2  0
  6  7  1  0
  6  8  1  0
  8  9  1  0
  9 10  2  0
 10 11  1  0
 11 12  2  0
 12 13  1  0
 13 14  2  0
  4 15  1  0
 15 16  1  0
 16 17  2  0
 17 18  1  0
 18 19  2  0
 19 20  1  0
 20 21  2  0
 21  3  1  0
 14  5  1  0
 21 16  1  0
 14  9  1  0
  7 22  1  0
  8 23  1  0
 10 24  1  0
 11 25  1  0
 12 26  1  0
 13 27  1  0
 15 28  1  0
 17 29  1  0
 18 30  1  0
 19 31  1  0
 20 32  1  0
M  END
$$$$
