
     RDKit          3D

 40 43  0  0  0  0  0  0  0  0999 V2000
   -3.5841    3.4495   -0.7472 C   0  0  0  0  0  0  0  0  0  0  0  0
   -2.6832    2.3601   -0.2302 C   0  0  0  0  0  0  0  0  0  0  0  0
   -1.6377    2.6173    0.6197 C   0  0  0  0  0  0  0  0  0  0  0  0
   -0.8475    1.5711    1.0587 C   0  0  0  0  0  0  0  0  0  0  0  0
   -1.0924    0.2611    0.6547 C   0  0  0  0  0  0  0  0  0  0  0  0
   -0.4551   -0.9216    0.9544 C   0  0  0  0  0  0  0  0  0  0  0  0
    0.7187   -1.1777    1.8125 C   0  0  0  0  0  0  0  0  0  0  0  0
    2.0106   -0.8102    1.1908 C   0  0  0  0  0  0  0  0  0  0  0  0
    2.8167   -1.2465    0.4646 N   0  0  0  0  0  0  0  0  0  0  0  0
    3.9407   -0.7389    0.0337 C   0  0  0  0  0  0  0  0  0  0  0  0
    4.8915   -1.2809   -0.8376 C   0  0  0  0  0  0  0  0  0  0  0  0
    4.7687   -2.5072   -1.4001 F   0  0  0  0  0  0  0  0  0  0  0  0
    6.0120   -0.5567   -1.1537 C   0  0  0  0  0  0  0  0  0  0  0  0
    6.9462   -1.0915   -2.0098 F   0  0  0  0  0  0  0  0  0  0  0  0
    6.3009    0.6989   -0.6781 C   0  0  0  0  0  0  0  0  0  0  0  0
    5.3606    1.2511    0.1919 C   0  0  0  0  0  0  0  0  0  0  0  0
    5.5491    2.4908    0.7212 F   0  0  0  0  0  0  0  0  0  0  0  0
    4.2349    0.5251    0.5104 C   0  0  0  0  0  0  0  0  0  0  0  0
    2.8171    0.8666    1.5655 S   0  0  0  0  0  0  0  0  0  0  0  0
   -1.1640   -1.8962    0.2487 C   0  0  0  0  0  0  0  0  0  0  0  0
   -2.1703   -1.3353   -0.4376 N   0  0  0  0  0  0  0  0  0  0  0  0
   -3.1143   -2.0059   -1.2748 C   0  0  0  0  0  0  0  0  0  0  0  0
   -4.3237   -2.4468   -0.5441 C   0  0  0  0  0  0  0  0  0  0  0  0
   -5.2186   -3.0503   -1.1874 O   0  0  0  0  0  0  0  0  0  0  0  0
   -4.5299   -2.2374    0.7967 O   0  0  0  0  0  0  0  0  0  0  0  0
   -2.1407   -0.0143   -0.2001 C   0  0  0  0  0  0  0  0  0  0  0  0
   -2.9104    1.0638   -0.6182 C   0  0  0  0  0  0  0  0  0  0  0  0
   -3.6601    3.4174   -1.8346 H   0  0  0  0  0  0  0  0  0  0  0  0
   -3.2445    4.4044   -0.3325 H   0  0  0  0  0  0  0  0  0  0  0  0
   -4.6086    3.2053   -0.3415 H   0  0  0  0  0  0  0  0  0  0  0  0
   -1.4366    3.6476    0.9422 H   0  0  0  0  0  0  0  0  0  0  0  0
   -0.0199    1.7448    1.7307 H   0  0  0  0  0  0  0  0  0  0  0  0
    0.5977   -0.7020    2.8236 H   0  0  0  0  0  0  0  0  0  0  0  0
    0.7843   -2.2775    2.0449 H   0  0  0  0  0  0  0  0  0  0  0  0
    7.1885    1.2151   -0.9584 H   0  0  0  0  0  0  0  0  0  0  0  0
   -0.8977   -2.9557    0.2830 H   0  0  0  0  0  0  0  0  0  0  0  0
   -2.6365   -2.8910   -1.7405 H   0  0  0  0  0  0  0  0  0  0  0  0
   -3.3765   -1.3195   -2.1203 H   0  0  0  0  0  0  0  0  0  0  0  0
   -5.4573   -2.1501    1.1889 H   0  0  0  0  0  0  0  0  0  0  0  0
   -3.7283    0.8232   -1.2890 H   0  0  0  0  0  0  0  0  0  0  0  0
  1  2  1  0
  2  3  2  0
  3  4  1  0
  4  5  2  0
  5  6  1  0
  6  7  1  0
  7  8  1  0
  8  9  2  0
  9 10  1  0
 10 11  2  0
 11 12  1  0
 11 13  1  0
 13 14  1  0
 13 15  2  0
 15 16  1  0
 16 17  1  0
 16 18  2  0
 18 19  1  0
  6 20  2  0
 20 21  1  0
 21 22  1  0
 22 23  1  0
 23 24  2  0
 23 25  1  0
 21 26  1  0
 26 27  2  0
 27  2  1  0
 26  5  1  0
 19  8  1  0
 18 10  1  0
  1 28  1  0
  1 29  1  0
  1 30  1  0
  3 31  1  0
  4 32  1  0
  7 33  1  0
  7 34  1  0
 15 35  1  0
 20 36  1  0
 22 37  1  0
 22 38  1  0
 25 39  1  0
 27 40  1  0
M  END
$$$$
