@<TRIPOS>MOLECULE
*****
 40 43 0 0 0
SMALL
GASTEIGER

@<TRIPOS>ATOM
      1 C          -3.5841    3.4495   -0.7472 C.3     1  UNL1       -0.0396
      2 C          -2.6832    2.3601   -0.2302 C.ar    1  UNL1       -0.0485
      3 C          -1.6377    2.6173    0.6197 C.ar    1  UNL1       -0.0581
      4 C          -0.8475    1.5711    1.0587 C.ar    1  UNL1       -0.0521
      5 C          -1.0924    0.2611    0.6547 C.ar    1  UNL1        0.0034
      6 C          -0.4551   -0.9216    0.9544 C.ar    1  UNL1       -0.0158
      7 C           0.7187   -1.1777    1.8125 C.3     1  UNL1        0.0233
      8 C           2.0106   -0.8102    1.1908 C.ar    1  UNL1        0.0841
      9 N           2.8167   -1.2465    0.4646 N.ar    1  UNL1       -0.2406
     10 C           3.9407   -0.7389    0.0337 C.ar    1  UNL1        0.1192
     11 C           4.8915   -1.2809   -0.8376 C.ar    1  UNL1        0.1849
     12 F           4.7687   -2.5072   -1.4001 F       1  UNL1       -0.2002
     13 C           6.0120   -0.5567   -1.1537 C.ar    1  UNL1        0.1633
     14 F           6.9462   -1.0915   -2.0098 F       1  UNL1       -0.2023
     15 C           6.3009    0.6989   -0.6781 C.ar    1  UNL1        0.0129
     16 C           5.3606    1.2511    0.1919 C.ar    1  UNL1        0.1420
     17 F           5.5491    2.4908    0.7212 F       1  UNL1       -0.2042
     18 C           4.2349    0.5251    0.5104 C.ar    1  UNL1        0.0773
     19 S           2.8171    0.8666    1.5655 S.2     1  UNL1       -0.0688
     20 C          -1.1640   -1.8962    0.2487 C.ar    1  UNL1        0.0099
     21 N          -2.1703   -1.3353   -0.4376 N.ar    1  UNL1       -0.3356
     22 C          -3.1143   -2.0059   -1.2748 C.3     1  UNL1        0.1202
     23 C          -4.3237   -2.4468   -0.5441 C.2     1  UNL1        0.3247
     24 O          -5.2186   -3.0503   -1.1874 O.2     1  UNL1       -0.2490
     25 O          -4.5299   -2.2374    0.7967 O.3     1  UNL1       -0.4794
     26 C          -2.1407   -0.0143   -0.2001 C.ar    1  UNL1        0.0501
     27 C          -2.9104    1.0638   -0.6182 C.ar    1  UNL1       -0.0347
     28 H          -3.6601    3.4174   -1.8346 H       1  UNL1        0.0278
     29 H          -3.2445    4.4044   -0.3325 H       1  UNL1        0.0278
     30 H          -4.6086    3.2053   -0.3415 H       1  UNL1        0.0278
     31 H          -1.4366    3.6476    0.9422 H       1  UNL1        0.0620
     32 H          -0.0199    1.7448    1.7307 H       1  UNL1        0.0624
     33 H           0.5977   -0.7020    2.8236 H       1  UNL1        0.0383
     34 H           0.7843   -2.2775    2.0449 H       1  UNL1        0.0383
     35 H           7.1885    1.2151   -0.9584 H       1  UNL1        0.0676
     36 H          -0.8977   -2.9557    0.2830 H       1  UNL1        0.0812
     37 H          -2.6365   -2.8910   -1.7405 H       1  UNL1        0.0607
     38 H          -3.3765   -1.3195   -2.1203 H       1  UNL1        0.0607
     39 H          -5.4573   -2.1501    1.1889 H       1  UNL1        0.2951
     40 H          -3.7283    0.8232   -1.2890 H       1  UNL1        0.0641
@<TRIPOS>BOND
     1     1     2    1
     2     2     3   ar
     3     3     4   ar
     4     4     5   ar
     5     5     6   ar
     6     6     7    1
     7     7     8    1
     8     8     9   ar
     9     9    10   ar
    10    10    11   ar
    11    11    12    1
    12    11    13   ar
    13    13    14    1
    14    13    15   ar
    15    15    16   ar
    16    16    17    1
    17    16    18   ar
    18    18    19   ar
    19     6    20   ar
    20    20    21   ar
    21    21    22    1
    22    22    23    1
    23    23    24    2
    24    23    25    1
    25    21    26   ar
    26    26    27   ar
    27    27     2   ar
    28    26     5   ar
    29    19     8   ar
    30    18    10   ar
    31     1    28    1
    32     1    29    1
    33     1    30    1
    34     3    31    1
    35     4    32    1
    36     7    33    1
    37     7    34    1
    38    15    35    1
    39    20    36    1
    40    22    37    1
    41    22    38    1
    42    25    39    1
    43    27    40    1
