
     RDKit          3D

 62 66  0  0  0  0  0  0  0  0999 V2000
   -8.3439   -0.4686   -0.6691 C   0  0  0  0  0  0  0  0  0  0  0  0
   -7.5623    0.1915    0.4482 C   0  0  0  0  0  0  0  0  0  0  0  0
   -8.1868    1.5517    0.7002 C   0  0  0  0  0  0  0  0  0  0  0  0
   -6.1903    0.3098    0.1272 O   0  0  0  0  0  0  0  0  0  0  0  0
   -5.2381   -0.2842    0.9380 C   0  0  0  0  0  0  0  0  0  0  0  0
   -5.5432   -0.9877    2.0395 N   0  0  0  0  0  0  0  0  0  0  0  0
   -4.6165   -1.5632    2.8249 C   0  0  0  0  0  0  0  0  0  0  0  0
   -3.2930   -1.4221    2.4800 C   0  0  0  0  0  0  0  0  0  0  0  0
   -2.9389   -0.7070    1.3561 C   0  0  0  0  0  0  0  0  0  0  0  0
   -3.9115   -0.1367    0.5831 C   0  0  0  0  0  0  0  0  0  0  0  0
   -3.2416    0.4952   -0.4438 C   0  0  0  0  0  0  0  0  0  0  0  0
   -3.7340    1.1989   -1.4856 N   0  0  0  0  0  0  0  0  0  0  0  0
   -2.8668    1.7143   -2.3700 C   0  0  0  0  0  0  0  0  0  0  0  0
   -1.5395    1.5521   -2.2486 N   0  0  0  0  0  0  0  0  0  0  0  0
   -1.0026    0.8514   -1.2139 C   0  0  0  0  0  0  0  0  0  0  0  0
    0.3963    0.7426   -1.0961 N   0  0  0  0  0  0  0  0  0  0  0  0
    1.0430    1.5499   -0.0958 C   0  0  0  0  0  0  0  0  0  0  0  0
    2.3579    0.9109    0.2638 C   0  0  0  0  0  0  0  0  0  0  0  0
    3.1054    0.7669   -0.9706 N   0  0  0  0  0  0  0  0  0  0  0  0
    4.5044    0.6278   -0.7688 C   0  0  0  0  0  0  0  0  0  0  0  0
    4.9346   -0.6561   -0.1055 C   0  0  0  0  0  0  0  0  0  0  0  0
    6.4072   -0.6384    0.0362 C   0  0  0  0  0  0  0  0  0  0  0  0
    6.9687   -0.1094    1.1750 C   0  0  0  0  0  0  0  0  0  0  0  0
    8.3567   -0.0758    1.3464 C   0  0  0  0  0  0  0  0  0  0  0  0
    9.1880   -0.5733    0.3751 C   0  0  0  0  0  0  0  0  0  0  0  0
   10.5506   -0.5535    0.5161 F   0  0  0  0  0  0  0  0  0  0  0  0
    8.6384   -1.1024   -0.7631 C   0  0  0  0  0  0  0  0  0  0  0  0
    9.4776   -1.5870   -1.7071 F   0  0  0  0  0  0  0  0  0  0  0  0
    7.2517   -1.1337   -0.9297 C   0  0  0  0  0  0  0  0  0  0  0  0
    2.5557   -0.2254   -1.8304 C   0  0  0  0  0  0  0  0  0  0  0  0
    1.0724   -0.1521   -1.9854 C   0  0  0  0  0  0  0  0  0  0  0  0
   -1.8716    0.3148   -0.2992 C   0  0  0  0  0  0  0  0  0  0  0  0
   -1.7211   -0.4274    0.8127 N   0  0  0  0  0  0  0  0  0  0  0  0
   -0.4800   -0.8949    1.3629 C   0  0  0  0  0  0  0  0  0  0  0  0
   -8.7402    0.3502   -1.3330 H   0  0  0  0  0  0  0  0  0  0  0  0
   -9.2097   -0.9875   -0.2302 H   0  0  0  0  0  0  0  0  0  0  0  0
   -7.7410   -1.1248   -1.2979 H   0  0  0  0  0  0  0  0  0  0  0  0
   -7.6502   -0.4005    1.3822 H   0  0  0  0  0  0  0  0  0  0  0  0
   -8.7647    1.8604   -0.1963 H   0  0  0  0  0  0  0  0  0  0  0  0
   -8.9003    1.4617    1.5409 H   0  0  0  0  0  0  0  0  0  0  0  0
   -7.3837    2.3154    0.9063 H   0  0  0  0  0  0  0  0  0  0  0  0
   -4.8947   -2.1290    3.7137 H   0  0  0  0  0  0  0  0  0  0  0  0
   -2.5239   -1.8652    3.0791 H   0  0  0  0  0  0  0  0  0  0  0  0
   -3.2980    2.2780   -3.2027 H   0  0  0  0  0  0  0  0  0  0  0  0
    0.4009    1.7683    0.7751 H   0  0  0  0  0  0  0  0  0  0  0  0
    1.3252    2.5015   -0.6281 H   0  0  0  0  0  0  0  0  0  0  0  0
    2.9287    1.6136    0.9129 H   0  0  0  0  0  0  0  0  0  0  0  0
    2.2001   -0.0630    0.7253 H   0  0  0  0  0  0  0  0  0  0  0  0
    4.8247    1.4510   -0.0643 H   0  0  0  0  0  0  0  0  0  0  0  0
    5.0235    0.7167   -1.7385 H   0  0  0  0  0  0  0  0  0  0  0  0
    4.4750   -0.7105    0.9177 H   0  0  0  0  0  0  0  0  0  0  0  0
    4.6324   -1.5659   -0.6477 H   0  0  0  0  0  0  0  0  0  0  0  0
    6.3798    0.2979    1.9768 H   0  0  0  0  0  0  0  0  0  0  0  0
    8.7971    0.3401    2.2412 H   0  0  0  0  0  0  0  0  0  0  0  0
    6.8688   -1.5615   -1.8452 H   0  0  0  0  0  0  0  0  0  0  0  0
    2.8322   -1.2813   -1.5399 H   0  0  0  0  0  0  0  0  0  0  0  0
    3.0108   -0.0970   -2.8425 H   0  0  0  0  0  0  0  0  0  0  0  0
    0.7810    0.1573   -3.0303 H   0  0  0  0  0  0  0  0  0  0  0  0
    0.6126   -1.1549   -1.8561 H   0  0  0  0  0  0  0  0  0  0  0  0
   -0.7063   -1.8065    1.9983 H   0  0  0  0  0  0  0  0  0  0  0  0
    0.0335   -0.2028    2.0245 H   0  0  0  0  0  0  0  0  0  0  0  0
    0.1596   -1.2410    0.5021 H   0  0  0  0  0  0  0  0  0  0  0  0
  1  2  1  0
  2  3  1  0
  2  4  1  0
  4  5  1  0
  5  6  2  0
  6  7  1  0
  7  8  2  0
  8  9  1  0
  9 10  2  0
 10 11  1  0
 11 12  2  0
 12 13  1  0
 13 14  2  0
 14 15  1  0
 15 16  1  0
 16 17  1  0
 17 18  1  0
 18 19  1  0
 19 20  1  0
 20 21  1  0
 21 22  1  0
 22 23  2  0
 23 24  1  0
 24 25  2  0
 25 26  1  0
 25 27  1  0
 27 28  1  0
 27 29  2  0
 19 30  1  0
 30 31  1  0
 15 32  2  0
 32 33  1  0
 33 34  1  0
 10  5  1  0
 32 11  1  0
 33  9  1  0
 31 16  1  0
 29 22  1  0
  1 35  1  0
  1 36  1  0
  1 37  1  0
  2 38  1  0
  3 39  1  0
  3 40  1  0
  3 41  1  0
  7 42  1  0
  8 43  1  0
 13 44  1  0
 17 45  1  0
 17 46  1  0
 18 47  1  0
 18 48  1  0
 20 49  1  0
 20 50  1  0
 21 51  1  0
 21 52  1  0
 23 53  1  0
 24 54  1  0
 29 55  1  0
 30 56  1  0
 30 57  1  0
 31 58  1  0
 31 59  1  0
 34 60  1  0
 34 61  1  0
 34 62  1  0
M  END
$$$$
