@<TRIPOS>MOLECULE
*****
 62 66 0 0 0
SMALL
GASTEIGER

@<TRIPOS>ATOM
      1 C          -8.3439   -0.4686   -0.6691 C.3     1  UNL1       -0.0280
      2 C          -7.5623    0.1915    0.4482 C.3     1  UNL1        0.0963
      3 C          -8.1868    1.5517    0.7002 C.3     1  UNL1       -0.0280
      4 O          -6.1903    0.3098    0.1272 O.3     1  UNL1       -0.4731
      5 C          -5.2381   -0.2842    0.9380 C.ar    1  UNL1        0.2265
      6 N          -5.5432   -0.9877    2.0395 N.ar    1  UNL1       -0.2206
      7 C          -4.6165   -1.5632    2.8249 C.ar    1  UNL1        0.0334
      8 C          -3.2930   -1.4221    2.4800 C.ar    1  UNL1       -0.0191
      9 C          -2.9389   -0.7070    1.3561 C.ar    1  UNL1        0.0580
     10 C          -3.9115   -0.1367    0.5831 C.ar    1  UNL1        0.0874
     11 C          -3.2416    0.4952   -0.4438 C.ar    1  UNL1        0.1066
     12 N          -3.7340    1.1989   -1.4856 N.ar    1  UNL1       -0.2330
     13 C          -2.8668    1.7143   -2.3700 C.ar    1  UNL1        0.1189
     14 N          -1.5395    1.5521   -2.2486 N.ar    1  UNL1       -0.2186
     15 C          -1.0026    0.8514   -1.2139 C.ar    1  UNL1        0.1489
     16 N           0.3963    0.7426   -1.0961 N.pl3   1  UNL1       -0.3110
     17 C           1.0430    1.5499   -0.0958 C.3     1  UNL1        0.0264
     18 C           2.3579    0.9109    0.2638 C.3     1  UNL1        0.0147
     19 N           3.1054    0.7669   -0.9706 N.3     1  UNL1       -0.2990
     20 C           4.5044    0.6278   -0.7688 C.3     1  UNL1        0.0030
     21 C           4.9346   -0.6561   -0.1055 C.3     1  UNL1       -0.0148
     22 C           6.4072   -0.6384    0.0362 C.ar    1  UNL1       -0.0433
     23 C           6.9687   -0.1094    1.1750 C.ar    1  UNL1       -0.0556
     24 C           8.3567   -0.0758    1.3464 C.ar    1  UNL1       -0.0233
     25 C           9.1880   -0.5733    0.3751 C.ar    1  UNL1        0.1584
     26 F          10.5506   -0.5535    0.5161 F       1  UNL1       -0.2025
     27 C           8.6384   -1.1024   -0.7631 C.ar    1  UNL1        0.1587
     28 F           9.4776   -1.5870   -1.7071 F       1  UNL1       -0.2025
     29 C           7.2517   -1.1337   -0.9297 C.ar    1  UNL1       -0.0204
     30 C           2.5557   -0.2254   -1.8304 C.3     1  UNL1        0.0147
     31 C           1.0724   -0.1521   -1.9854 C.3     1  UNL1        0.0264
     32 C          -1.8716    0.3148   -0.2992 C.ar    1  UNL1        0.1090
     33 N          -1.7211   -0.4274    0.8127 N.ar    1  UNL1       -0.3388
     34 C          -0.4800   -0.8949    1.3629 C.3     1  UNL1        0.0126
     35 H          -8.7402    0.3502   -1.3330 H       1  UNL1        0.0265
     36 H          -9.2097   -0.9875   -0.2302 H       1  UNL1        0.0265
     37 H          -7.7410   -1.1248   -1.2979 H       1  UNL1        0.0265
     38 H          -7.6502   -0.4005    1.3822 H       1  UNL1        0.0728
     39 H          -8.7647    1.8604   -0.1963 H       1  UNL1        0.0265
     40 H          -8.9003    1.4617    1.5409 H       1  UNL1        0.0265
     41 H          -7.3837    2.3154    0.9063 H       1  UNL1        0.0265
     42 H          -4.8947   -2.1290    3.7137 H       1  UNL1        0.0831
     43 H          -2.5239   -1.8652    3.0791 H       1  UNL1        0.0653
     44 H          -3.2980    2.2780   -3.2027 H       1  UNL1        0.1048
     45 H           0.4009    1.7683    0.7751 H       1  UNL1        0.0477
     46 H           1.3252    2.5015   -0.6281 H       1  UNL1        0.0477
     47 H           2.9287    1.6136    0.9129 H       1  UNL1        0.0442
     48 H           2.2001   -0.0630    0.7253 H       1  UNL1        0.0442
     49 H           4.8247    1.4510   -0.0643 H       1  UNL1        0.0430
     50 H           5.0235    0.7167   -1.7385 H       1  UNL1        0.0430
     51 H           4.4750   -0.7105    0.9177 H       1  UNL1        0.0326
     52 H           4.6324   -1.5659   -0.6477 H       1  UNL1        0.0326
     53 H           6.3798    0.2979    1.9768 H       1  UNL1        0.0621
     54 H           8.7971    0.3401    2.2412 H       1  UNL1        0.0647
     55 H           6.8688   -1.5615   -1.8452 H       1  UNL1        0.0650
     56 H           2.8322   -1.2813   -1.5399 H       1  UNL1        0.0442
     57 H           3.0108   -0.0970   -2.8425 H       1  UNL1        0.0442
     58 H           0.7810    0.1573   -3.0303 H       1  UNL1        0.0477
     59 H           0.6126   -1.1549   -1.8561 H       1  UNL1        0.0477
     60 H          -0.7063   -1.8065    1.9983 H       1  UNL1        0.0456
     61 H           0.0335   -0.2028    2.0245 H       1  UNL1        0.0456
     62 H           0.1596   -1.2410    0.5021 H       1  UNL1        0.0456
@<TRIPOS>BOND
     1     1     2    1
     2     2     3    1
     3     2     4    1
     4     4     5    1
     5     5     6   ar
     6     6     7   ar
     7     7     8   ar
     8     8     9   ar
     9     9    10   ar
    10    10    11   ar
    11    11    12   ar
    12    12    13   ar
    13    13    14   ar
    14    14    15   ar
    15    15    16    1
    16    16    17    1
    17    17    18    1
    18    18    19    1
    19    19    20    1
    20    20    21    1
    21    21    22    1
    22    22    23   ar
    23    23    24   ar
    24    24    25   ar
    25    25    26    1
    26    25    27   ar
    27    27    28    1
    28    27    29   ar
    29    19    30    1
    30    30    31    1
    31    15    32   ar
    32    32    33   ar
    33    33    34    1
    34    10     5   ar
    35    32    11   ar
    36    33     9   ar
    37    31    16    1
    38    29    22   ar
    39     1    35    1
    40     1    36    1
    41     1    37    1
    42     2    38    1
    43     3    39    1
    44     3    40    1
    45     3    41    1
    46     7    42    1
    47     8    43    1
    48    13    44    1
    49    17    45    1
    50    17    46    1
    51    18    47    1
    52    18    48    1
    53    20    49    1
    54    20    50    1
    55    21    51    1
    56    21    52    1
    57    23    53    1
    58    24    54    1
    59    29    55    1
    60    30    56    1
    61    30    57    1
    62    31    58    1
    63    31    59    1
    64    34    60    1
    65    34    61    1
    66    34    62    1
