
     RDKit          3D

 58 60  0  0  0  0  0  0  0  0999 V2000
    1.9819    2.6302   -2.8365 C   0  0  0  0  0  0  0  0  0  0  0  0
    2.1610    1.9008   -1.8746 C   0  0  0  0  0  0  0  0  0  0  0  0
    2.3544    1.0372   -0.7533 C   0  0  0  0  0  0  0  0  0  0  0  0
    1.4602   -0.0562   -0.5845 N   0  0  0  0  0  0  0  0  0  0  0  0
    1.5596   -1.2235   -1.4305 C   0  0  0  0  0  0  0  0  0  0  0  0
    3.0160   -1.6038   -1.4763 C   0  0  0  0  0  0  0  0  0  0  0  0
    3.6290   -2.2186   -0.4266 C   0  0  0  0  0  0  0  0  0  0  0  0
    4.9520   -2.5886   -0.4494 C   0  0  0  0  0  0  0  0  0  0  0  0
    5.7410   -2.3409   -1.5909 C   0  0  0  0  0  0  0  0  0  0  0  0
    7.0192   -2.7253   -1.5651 N   0  0  0  0  0  0  0  0  0  0  0  0
    7.7372   -2.4740   -2.7012 C   0  0  0  0  0  0  0  0  0  0  0  0
    9.0815   -2.8747   -2.6917 N   0  0  0  0  0  0  0  0  0  0  0  0
    7.1759   -1.8812   -3.7487 N   0  0  0  0  0  0  0  0  0  0  0  0
    5.9236   -1.4973   -3.7883 C   0  0  0  0  0  0  0  0  0  0  0  0
    5.3262   -0.9374   -4.7240 O   0  0  0  0  0  0  0  0  0  0  0  0
    5.0955   -1.7255   -2.6322 C   0  0  0  0  0  0  0  0  0  0  0  0
    3.7882   -1.3518   -2.6270 C   0  0  0  0  0  0  0  0  0  0  0  0
    0.3490    0.0256    0.3036 C   0  0  0  0  0  0  0  0  0  0  0  0
   -0.3951   -1.0054    0.7589 C   0  0  0  0  0  0  0  0  0  0  0  0
   -1.5681   -0.9206    1.4998 C   0  0  0  0  0  0  0  0  0  0  0  0
   -2.0124    0.3678    1.8036 C   0  0  0  0  0  0  0  0  0  0  0  0
   -3.2767    0.5375    2.5523 C   0  0  0  0  0  0  0  0  0  0  0  0
   -3.7038   -0.4107    3.2726 O   0  0  0  0  0  0  0  0  0  0  0  0
   -4.0085    1.7392    2.4567 N   0  0  0  0  0  0  0  0  0  0  0  0
   -5.2396    2.0806    3.0829 C   0  0  1  0  0  0  0  0  0  0  0  0
   -6.3424    2.1696    2.0848 C   0  0  0  0  0  0  0  0  0  0  0  0
   -6.6429    0.9431    1.2995 C   0  0  0  0  0  0  0  0  0  0  0  0
   -7.7254    1.2663    0.2957 C   0  0  0  0  0  0  0  0  0  0  0  0
   -8.2659    2.4298    0.3132 O   0  0  0  0  0  0  0  0  0  0  0  0
   -8.1536    0.3752   -0.6358 O   0  0  0  0  0  0  0  0  0  0  0  0
   -5.5471    1.4997    4.3833 C   0  0  0  0  0  0  0  0  0  0  0  0
   -6.7169    1.4928    4.8326 O   0  0  0  0  0  0  0  0  0  0  0  0
   -4.5180    0.9305    5.1805 O   0  0  0  0  0  0  0  0  0  0  0  0
   -1.3080    1.4377    1.3790 C   0  0  0  0  0  0  0  0  0  0  0  0
   -0.1199    1.3126    0.6272 C   0  0  0  0  0  0  0  0  0  0  0  0
    1.8358    3.2638   -3.6967 H   0  0  0  0  0  0  0  0  0  0  0  0
    3.4431    0.6840   -0.6872 H   0  0  0  0  0  0  0  0  0  0  0  0
    2.2600    1.7059    0.1683 H   0  0  0  0  0  0  0  0  0  0  0  0
    1.2829   -0.9160   -2.4878 H   0  0  0  0  0  0  0  0  0  0  0  0
    0.9767   -2.0815   -1.1110 H   0  0  0  0  0  0  0  0  0  0  0  0
    2.9862   -2.4081    0.4545 H   0  0  0  0  0  0  0  0  0  0  0  0
    5.4015   -3.0772    0.3940 H   0  0  0  0  0  0  0  0  0  0  0  0
    9.7818   -2.3382   -2.0963 H   0  0  0  0  0  0  0  0  0  0  0  0
    9.4909   -3.6747   -3.2390 H   0  0  0  0  0  0  0  0  0  0  0  0
    7.7586   -1.7010   -4.6100 H   0  0  0  0  0  0  0  0  0  0  0  0
    3.3245   -0.8704   -3.4603 H   0  0  0  0  0  0  0  0  0  0  0  0
   -0.0507   -2.0416    0.5487 H   0  0  0  0  0  0  0  0  0  0  0  0
   -2.1492   -1.7401    1.8537 H   0  0  0  0  0  0  0  0  0  0  0  0
   -3.5621    2.4915    1.8304 H   0  0  0  0  0  0  0  0  0  0  0  0
   -5.0548    3.2215    3.3705 H   0  0  0  0  0  0  0  0  0  0  0  0
   -6.2051    3.0054    1.3381 H   0  0  0  0  0  0  0  0  0  0  0  0
   -7.2836    2.4186    2.6544 H   0  0  0  0  0  0  0  0  0  0  0  0
   -7.1153    0.1504    1.9513 H   0  0  0  0  0  0  0  0  0  0  0  0
   -5.8258    0.4765    0.7621 H   0  0  0  0  0  0  0  0  0  0  0  0
   -8.3040    0.7030   -1.6194 H   0  0  0  0  0  0  0  0  0  0  0  0
   -4.5897    1.0418    6.1960 H   0  0  0  0  0  0  0  0  0  0  0  0
   -1.6034    2.4824    1.5913 H   0  0  0  0  0  0  0  0  0  0  0  0
    0.3948    2.1763    0.3048 H   0  0  0  0  0  0  0  0  0  0  0  0
  1  2  3  0
  2  3  1  0
  3  4  1  0
  4  5  1  0
  5  6  1  0
  6  7  2  0
  7  8  1  0
  8  9  2  0
  9 10  1  0
 10 11  2  0
 11 12  1  0
 11 13  1  0
 13 14  1  0
 14 15  2  0
 14 16  1  0
 16 17  2  0
  4 18  1  0
 18 19  2  0
 19 20  1  0
 20 21  2  0
 21 22  1  0
 22 23  2  0
 22 24  1  0
 24 25  1  0
 25 26  1  0
 26 27  1  0
 27 28  1  0
 28 29  2  0
 28 30  1  0
 25 31  1  0
 31 32  2  0
 31 33  1  0
 21 34  1  0
 34 35  2  0
 17  6  1  0
 35 18  1  0
 16  9  1  0
  1 36  1  0
  3 37  1  0
  3 38  1  0
  5 39  1  0
  5 40  1  0
  7 41  1  0
  8 42  1  0
 12 43  1  0
 12 44  1  0
 13 45  1  0
 17 46  1  0
 19 47  1  0
 20 48  1  0
 24 49  1  0
 25 50  1  1
 26 51  1  0
 26 52  1  0
 27 53  1  0
 27 54  1  0
 30 55  1  0
 33 56  1  0
 34 57  1  0
 35 58  1  0
M  END
$$$$
