@<TRIPOS>MOLECULE
*****
 58 60 0 0 0
SMALL
GASTEIGER

@<TRIPOS>ATOM
      1 C           1.9819    2.6302   -2.8365 C.1     0  UNK0       -0.1176
      2 C           2.1610    1.9008   -1.8746 C.1     0  UNK0       -0.0865
      3 C           2.3544    1.0372   -0.7533 C.3     0  UNK0        0.0739
      4 N           1.4602   -0.0562   -0.5845 N.pl3   0  UNK0       -0.3145
      5 C           1.5596   -1.2235   -1.4305 C.3     0  UNK0        0.0382
      6 C           3.0160   -1.6038   -1.4763 C.ar    0  UNK0       -0.0293
      7 C           3.6290   -2.2186   -0.4266 C.ar    0  UNK0       -0.0550
      8 C           4.9520   -2.5886   -0.4494 C.ar    0  UNK0       -0.0351
      9 C           5.7410   -2.3409   -1.5909 C.ar    0  UNK0        0.0797
     10 N           7.0192   -2.7253   -1.5651 N.ar    0  UNK0       -0.2160
     11 C           7.7372   -2.4740   -2.7012 C.ar    0  UNK0        0.1935
     12 N           9.0815   -2.8747   -2.6917 N.pl3   0  UNK0       -0.3289
     13 N           7.1759   -1.8812   -3.7487 N.ar    0  UNK0       -0.2948
     14 C           5.9236   -1.4973   -3.7883 C.ar    0  UNK0        0.2604
     15 O           5.3262   -0.9374   -4.7240 O.2     0  UNK0       -0.2671
     16 C           5.0955   -1.7255   -2.6322 C.ar    0  UNK0        0.0651
     17 C           3.7882   -1.3518   -2.6270 C.ar    0  UNK0       -0.0427
     18 C           0.3490    0.0256    0.3036 C.ar    0  UNK0        0.0307
     19 C          -0.3951   -1.0054    0.7589 C.ar    0  UNK0       -0.0399
     20 C          -1.5681   -0.9206    1.4998 C.ar    0  UNK0       -0.0479
     21 C          -2.0124    0.3678    1.8036 C.ar    0  UNK0        0.0368
     22 C          -3.2767    0.5375    2.5523 C.2     0  UNK0        0.2447
     23 O          -3.7038   -0.4107    3.2726 O.2     0  UNK0       -0.2702
     24 N          -4.0085    1.7392    2.4567 N.am    1  GLU1       -0.2983
     25 CA         -5.2396    2.0806    3.0829 C.3     1  GLU1        0.1209
     26 CB         -6.3424    2.1696    2.0848 C.3     1  GLU1       -0.0140
     27 CG         -6.6429    0.9431    1.2995 C.3     1  GLU1        0.0470
     28 CD         -7.7254    1.2663    0.2957 C.2     1  GLU1        0.3048
     29 OE1        -8.2659    2.4298    0.3132 O.2     1  GLU1       -0.2510
     30 OE2        -8.1536    0.3752   -0.6358 O.3     1  GLU1       -0.4806
     31 C          -5.5471    1.4997    4.3833 C.2     1  GLU1        0.3253
     32 O          -6.7169    1.4928    4.8326 O.2     1  GLU1       -0.2489
     33 OXT        -4.5180    0.9305    5.1805 O.3     1  GLU1       -0.4793
     34 C          -1.3080    1.4377    1.3790 C.ar    0  UNK0       -0.0479
     35 C          -0.1199    1.3126    0.6272 C.ar    0  UNK0       -0.0399
     36 H           1.8358    3.2638   -3.6967 H       0  UNK0        0.1228
     37 H           3.4431    0.6840   -0.6872 H       0  UNK0        0.0600
     38 H           2.2600    1.7059    0.1683 H       0  UNK0        0.0600
     39 H           1.2829   -0.9160   -2.4878 H       0  UNK0        0.0513
     40 H           0.9767   -2.0815   -1.1110 H       0  UNK0        0.0513
     41 H           2.9862   -2.4081    0.4545 H       0  UNK0        0.0621
     42 H           5.4015   -3.0772    0.3940 H       0  UNK0        0.0639
     43 H           9.7818   -2.3382   -2.0963 H       0  UNK0        0.1451
     44 H           9.4909   -3.6747   -3.2390 H       0  UNK0        0.1451
     45 H           7.7586   -1.7010   -4.6100 H       0  UNK0        0.1716
     46 H           3.3245   -0.8704   -3.4603 H       0  UNK0        0.0629
     47 H          -0.0507   -2.0416    0.5487 H       0  UNK0        0.0636
     48 H          -2.1492   -1.7401    1.8537 H       0  UNK0        0.0626
     49 H          -3.5621    2.4915    1.8304 H       1  GLU1        0.1498
     50 HA         -5.0548    3.2215    3.3705 H       1  GLU1        0.0614
     51 HB1        -6.2051    3.0054    1.3381 H       1  GLU1        0.0294
     52 HB2        -7.2836    2.4186    2.6544 H       1  GLU1        0.0294
     53 HG1        -7.1153    0.1504    1.9513 H       1  GLU1        0.0378
     54 HG2        -5.8258    0.4765    0.7621 H       1  GLU1        0.0378
     55 HE2        -8.3040    0.7030   -1.6194 H       1  GLU1        0.2951
     56 HXT        -4.5897    1.0418    6.1960 H       1  GLU1        0.2951
     57 H          -1.6034    2.4824    1.5913 H       0  UNK0        0.0626
     58 H           0.3948    2.1763    0.3048 H       0  UNK0        0.0636
@<TRIPOS>BOND
     1     1     2    3
     2     2     3    1
     3     3     4    1
     4     4     5    1
     5     5     6    1
     6     6     7   ar
     7     7     8   ar
     8     8     9   ar
     9     9    10   ar
    10    10    11   ar
    11    11    12    1
    12    11    13   ar
    13    13    14   ar
    14    14    15    2
    15    14    16   ar
    16    16    17   ar
    17     4    18    1
    18    18    19   ar
    19    19    20   ar
    20    20    21   ar
    21    21    22    1
    22    22    23    2
    23    22    24   am
    24    24    25    1
    25    25    26    1
    26    26    27    1
    27    27    28    1
    28    28    29    2
    29    28    30    1
    30    25    31    1
    31    31    32    2
    32    31    33    1
    33    21    34   ar
    34    34    35   ar
    35    17     6   ar
    36    35    18   ar
    37    16     9   ar
    38     1    36    1
    39     3    37    1
    40     3    38    1
    41     5    39    1
    42     5    40    1
    43     7    41    1
    44     8    42    1
    45    12    43    1
    46    12    44    1
    47    13    45    1
    48    17    46    1
    49    19    47    1
    50    20    48    1
    51    24    49    1
    52    25    50    1
    53    26    51    1
    54    26    52    1
    55    27    53    1
    56    27    54    1
    57    30    55    1
    58    33    56    1
    59    34    57    1
    60    35    58    1
