@<TRIPOS>MOLECULE
*****
 64 68 0 0 0
SMALL
GASTEIGER

@<TRIPOS>ATOM
      1 C          10.0388    1.9291    0.8918 C.3     1  UNL1        0.0596
      2 S           9.4838    1.1382   -0.6237 S.O2    1  UNL1       -0.0058
      3 O           9.3632    2.2339   -1.6417 O.2     1  UNL1       -0.1696
      4 O          10.5012    0.1099   -1.0364 O.2     1  UNL1       -0.1696
      5 C           7.9196    0.4823   -0.2966 C.ar    1  UNL1        0.0890
      6 C           7.7863   -0.7072    0.3706 C.ar    1  UNL1       -0.0348
      7 C           6.5943   -1.2847    0.6576 C.ar    1  UNL1       -0.0333
      8 C           5.3919   -0.6701    0.2734 C.ar    1  UNL1        0.0804
      9 N           4.1650   -1.0793    0.4686 N.ar    1  UNL1       -0.2247
     10 C           3.1481   -0.5817    0.1574 C.ar    1  UNL1        0.1619
     11 N           1.7225   -0.7308    0.2365 N.pl3   1  UNL1       -0.3066
     12 C           0.9631   -0.5041   -0.9573 C.3     1  UNL1        0.0298
     13 C          -0.5341   -0.4402   -0.7463 C.3     1  UNL1        0.0305
     14 N          -0.9977   -0.7244    0.5495 N.am    1  UNL1       -0.2982
     15 C          -2.2099   -1.3058    0.9298 C.2     1  UNL1        0.2195
     16 O          -2.3943   -1.5675    2.2110 O.2     1  UNL1       -0.2753
     17 C          -3.3521   -1.6747    0.0909 C.3     1  UNL1        0.0468
     18 C          -3.0544   -2.6706   -0.9859 C.3     1  UNL1       -0.0412
     19 C          -4.4014   -3.3770   -1.3322 C.3     1  UNL1       -0.0523
     20 C          -5.4845   -2.3172   -1.2663 C.3     1  UNL1       -0.0523
     21 C          -4.9608   -0.9361   -1.6072 C.3     1  UNL1       -0.0412
     22 C          -3.9407   -0.4487   -0.5841 C.3     1  UNL1        0.0466
     23 C          -4.6049    0.4417    0.3909 C.2     1  UNL1        0.2180
     24 O          -4.8441    0.0873    1.5610 O.2     1  UNL1       -0.2755
     25 N          -4.9721    1.7545   -0.0568 N.am    1  UNL1       -0.2971
     26 C          -5.6267    2.7010    0.8014 C.3     1  UNL1        0.1214
     27 C          -4.8879    2.9939    2.0462 C.1     1  UNL1        0.0883
     28 N          -4.2972    3.2241    3.0168 N.1     1  UNL1       -0.1943
     29 C          -7.0729    2.9794    0.7447 C.3     1  UNL1       -0.0154
     30 C          -6.1352    3.9564    0.0611 C.3     1  UNL1       -0.0154
     31 C          -0.1200   -0.2985    1.6635 C.3     1  UNL1        0.0305
     32 C           1.1656   -1.0777    1.5233 C.3     1  UNL1        0.0298
     33 S           3.8288    0.9892   -0.7108 S.2     1  UNL1       -0.0522
     34 C           5.5245    0.5258   -0.3991 C.ar    1  UNL1        0.0426
     35 C           6.7522    1.1077   -0.6888 C.ar    1  UNL1       -0.0210
     36 H           9.3304    2.6899    1.1954 H       1  UNL1        0.0468
     37 H          11.0839    2.2682    0.7952 H       1  UNL1        0.0468
     38 H           9.9583    1.1005    1.6560 H       1  UNL1        0.0468
     39 H           8.7021   -1.2321    0.6956 H       1  UNL1        0.0637
     40 H           6.6081   -2.2308    1.1942 H       1  UNL1        0.0640
     41 H           1.2425   -1.3589   -1.6486 H       1  UNL1        0.0480
     42 H           1.2802    0.4169   -1.4846 H       1  UNL1        0.0480
     43 H          -0.8567    0.6256   -0.9860 H       1  UNL1        0.0480
     44 H          -0.9621   -1.0806   -1.5411 H       1  UNL1        0.0480
     45 H          -4.1871   -2.1170    0.7281 H       1  UNL1        0.0402
     46 H          -2.2763   -3.3965   -0.7677 H       1  UNL1        0.0273
     47 H          -2.8871   -2.0849   -1.9473 H       1  UNL1        0.0273
     48 H          -4.3230   -3.7438   -2.3761 H       1  UNL1        0.0265
     49 H          -4.5687   -4.1911   -0.6187 H       1  UNL1        0.0265
     50 H          -5.9633   -2.3189   -0.2663 H       1  UNL1        0.0265
     51 H          -6.2512   -2.5733   -2.0117 H       1  UNL1        0.0265
     52 H          -4.5060   -0.9445   -2.5959 H       1  UNL1        0.0273
     53 H          -5.8328   -0.2566   -1.5766 H       1  UNL1        0.0273
     54 H          -3.1316    0.0905   -1.0714 H       1  UNL1        0.0401
     55 H          -4.7516    2.0203   -1.0476 H       1  UNL1        0.1502
     56 H          -7.5403    3.4007    1.6602 H       1  UNL1        0.0297
     57 H          -7.7646    2.3721    0.1089 H       1  UNL1        0.0297
     58 H          -6.1275    3.9423   -1.0369 H       1  UNL1        0.0297
     59 H          -5.9039    4.9302    0.5684 H       1  UNL1        0.0297
     60 H           0.1451    0.7774    1.4084 H       1  UNL1        0.0480
     61 H          -0.5722   -0.4111    2.6398 H       1  UNL1        0.0480
     62 H           0.9478   -2.1669    1.5078 H       1  UNL1        0.0480
     63 H           1.8898   -0.8300    2.3222 H       1  UNL1        0.0480
     64 H           6.7599    2.0443   -1.2168 H       1  UNL1        0.0648
@<TRIPOS>BOND
     1     1     2    1
     2     2     3    2
     3     2     4    2
     4     2     5    1
     5     5     6   ar
     6     6     7   ar
     7     7     8   ar
     8     8     9   ar
     9     9    10   ar
    10    10    11    1
    11    11    12    1
    12    12    13    1
    13    13    14    1
    14    14    15   am
    15    15    16    2
    16    15    17    1
    17    17    18    1
    18    18    19    1
    19    19    20    1
    20    20    21    1
    21    21    22    1
    22    22    23    1
    23    23    24    2
    24    23    25   am
    25    25    26    1
    26    26    27    1
    27    27    28    3
    28    26    29    1
    29    29    30    1
    30    14    31    1
    31    31    32    1
    32    10    33   ar
    33    33    34   ar
    34    34    35   ar
    35    35     5   ar
    36    34     8   ar
    37    32    11    1
    38    22    17    1
    39    30    26    1
    40     1    36    1
    41     1    37    1
    42     1    38    1
    43     6    39    1
    44     7    40    1
    45    12    41    1
    46    12    42    1
    47    13    43    1
    48    13    44    1
    49    17    45    1
    50    18    46    1
    51    18    47    1
    52    19    48    1
    53    19    49    1
    54    20    50    1
    55    20    51    1
    56    21    52    1
    57    21    53    1
    58    22    54    1
    59    25    55    1
    60    29    56    1
    61    29    57    1
    62    30    58    1
    63    30    59    1
    64    31    60    1
    65    31    61    1
    66    32    62    1
    67    32    63    1
    68    35    64    1
