@<TRIPOS>MOLECULE
*****
 62 64 0 0 0
SMALL
GASTEIGER

@<TRIPOS>ATOM
      1 C           6.0249    0.7930   -1.8104 C.3     1  UNK1        0.1037
      2 N           7.0744    0.0616   -1.1261 N.3     1  UNK1       -0.3184
      3 C           4.9937    1.3086   -0.8638 C.3     1  UNK1       -0.0190
      4 C           4.2809    0.2599   -0.0642 C.3     1  UNK1        0.0249
      5 C           3.5462   -0.7294   -0.8947 C.2     1  UNK1        0.1832
      6 O           4.2221   -1.5238   -1.8095 O.2     1  UNK1       -0.4956
      7 N           2.3283   -1.0736   -0.9953 N.2     1  UNK1       -0.2411
      8 C           1.2242   -0.5058   -0.2203 C.3     1  UNK1        0.1378
      9 C           0.3688    0.3786   -1.0927 C.3     1  UNK1        0.0255
     10 S          -0.9911    1.1185   -0.2482 S.3     1  UNK1       -0.1471
     11 C          -2.3291    0.0766    0.2733 C.3     1  UNK1        0.0609
     12 C          -3.3254    0.9508    0.9874 C.ar    1  UNK1       -0.0239
     13 C          -2.7282    1.6061    2.0350 C.ar    1  UNK1       -0.0568
     14 C          -3.4605    2.4894    2.8377 C.ar    1  UNK1       -0.0614
     15 C          -4.7974    2.6953    2.5624 C.ar    1  UNK1       -0.0612
     16 C          -5.3898    2.0225    1.4954 C.ar    1  UNK1       -0.0537
     17 C          -4.6574    1.1590    0.7177 C.ar    1  UNK1       -0.0132
     18 C          -5.2399    0.4284   -0.3928 C.ar    1  UNK1       -0.0119
     19 C          -6.5634    0.6047   -0.7208 C.ar    1  UNK1       -0.0537
     20 C          -7.0674   -0.1055   -1.7970 C.ar    1  UNK1       -0.0612
     21 C          -6.2411   -0.9729   -2.5190 C.ar    1  UNK1       -0.0614
     22 C          -4.9207   -1.1089   -2.1426 C.ar    1  UNK1       -0.0555
     23 C          -4.3915   -0.4133   -1.0736 C.ar    1  UNK1       -0.0101
     24 C          -2.9676   -0.7116   -0.8300 C.3     1  UNK1        0.0965
     25 O          -2.9327   -2.0948   -0.5280 O.3     1  UNK1       -0.3857
     26 C           0.5177   -1.6413    0.4023 C.2     1  UNK1        0.2092
     27 O          -0.2136   -2.8014    0.7131 O.2     1  UNK1       -0.4942
     28 N           0.3732   -1.9303    1.6477 N.2     2  GLY2       -0.2416
     29 CA          0.8544   -1.2364    2.7843 C.3     2  GLY2        0.1398
     30 C           1.6276   -2.1357    3.7153 C.2     2  GLY2        0.3264
     31 O           1.8554   -3.4887    3.4954 O.3     2  GLY2       -0.4793
     32 OXT         2.2072   -1.9276    4.8135 O.2     2  GLY2       -0.2489
     33 C           6.7091    2.0052   -2.3871 C.2     1  UNK1        0.3217
     34 O           8.0518    2.3189   -2.2738 O.3     1  UNK1       -0.4795
     35 O           5.9470    2.7786   -3.0252 O.2     1  UNK1       -0.2493
     36 H           5.5479    0.2144   -2.6236 H       1  UNK1        0.0574
     37 H           7.2592   -0.8835   -1.5348 H       1  UNK1        0.1190
     38 H           6.8816    0.0196   -0.1114 H       1  UNK1        0.1190
     39 H           5.4562    2.0006   -0.1209 H       1  UNK1        0.0290
     40 H           4.2288    1.8641   -1.4405 H       1  UNK1        0.0290
     41 H           4.9414   -0.2838    0.6281 H       1  UNK1        0.0360
     42 H           3.5544    0.8070    0.5777 H       1  UNK1        0.0360
     43 H           4.1182   -2.5242   -1.9081 H       1  UNK1        0.2934
     44 H           1.6535    0.0832    0.6144 H       1  UNK1        0.0651
     45 H           1.0550    1.2189   -1.4213 H       1  UNK1        0.0402
     46 H           0.1131   -0.1150   -2.0574 H       1  UNK1        0.0402
     47 H          -1.9771   -0.6221    1.0510 H       1  UNK1        0.0490
     48 H          -1.6902    1.5484    2.3755 H       1  UNK1        0.0621
     49 H          -3.0411    3.0393    3.6843 H       1  UNK1        0.0618
     50 H          -5.4142    3.3804    3.1654 H       1  UNK1        0.0618
     51 H          -6.4101    2.2090    1.3221 H       1  UNK1        0.0624
     52 H          -7.2159    1.2483   -0.2012 H       1  UNK1        0.0624
     53 H          -8.1029   -0.0373   -2.1394 H       1  UNK1        0.0618
     54 H          -6.6586   -1.5173   -3.3572 H       1  UNK1        0.0618
     55 H          -4.3511   -1.8128   -2.7696 H       1  UNK1        0.0621
     56 H          -2.4439   -0.6287   -1.8117 H       1  UNK1        0.0658
     57 H          -3.6668   -2.5598   -0.9912 H       1  UNK1        0.2103
     58 H          -0.5839   -3.4251   -0.0044 H       1  UNK1        0.2935
     59 HA1         0.0089   -0.8119    3.3925 H       2  GLY2        0.0625
     60 HA2         1.5406   -0.4017    2.5531 H       2  GLY2        0.0625
     61 H           2.7883   -3.9001    3.4455 H       2  GLY2        0.2951
     62 H           8.4182    3.2356   -2.4093 H       1  UNK1        0.2951
@<TRIPOS>BOND
     1     1     2    1
     2     1     3    1
     3     3     4    1
     4     4     5    1
     5     5     6    1
     6     5     7    2
     7     7     8    1
     8     8     9    1
     9     9    10    1
    10    10    11    1
    11    11    12    1
    12    12    13   ar
    13    13    14   ar
    14    14    15   ar
    15    15    16   ar
    16    16    17   ar
    17    17    18    1
    18    18    19   ar
    19    19    20   ar
    20    20    21   ar
    21    21    22   ar
    22    22    23   ar
    23    23    24    1
    24    24    25    1
    25     8    26    1
    26    26    27    1
    27    26    28    2
    28    28    29    1
    29    29    30    1
    30    30    31    1
    31    30    32    2
    32     1    33    1
    33    33    34    1
    34    33    35    2
    35    24    11    1
    36    17    12   ar
    37    23    18   ar
    38     1    36    1
    39     2    37    1
    40     2    38    1
    41     3    39    1
    42     3    40    1
    43     4    41    1
    44     4    42    1
    45     6    43    1
    46     8    44    1
    47     9    45    1
    48     9    46    1
    49    11    47    1
    50    13    48    1
    51    14    49    1
    52    15    50    1
    53    16    51    1
    54    19    52    1
    55    20    53    1
    56    21    54    1
    57    22    55    1
    58    24    56    1
    59    25    57    1
    60    27    58    1
    61    29    59    1
    62    29    60    1
    63    31    61    1
    64    34    62    1
