@<TRIPOS>MOLECULE
*****
 42 46 0 0 0
SMALL
GASTEIGER

@<TRIPOS>ATOM
      1 C          -3.3406    2.2218   -0.2458 C.3     1  UNL1       -0.0618
      2 C          -4.2196    1.0856    0.1690 C.3     1  UNL1       -0.0121
      3 C          -3.4517    0.1462    1.0878 C.3     1  UNL1        0.1877
      4 O          -3.0654    0.9109    2.2022 O.3     1  UNL1       -0.3732
      5 C          -4.3051   -0.9974    1.5102 C.2     1  UNL1        0.3441
      6 O          -4.8649   -0.9233    2.6328 O.2     1  UNL1       -0.2472
      7 O          -4.4248   -2.0661    0.6374 O.3     1  UNL1       -0.4575
      8 C          -3.7680   -2.1340   -0.6141 C.3     1  UNL1        0.1230
      9 C          -2.4018   -1.5409   -0.4123 C.ar    1  UNL1        0.0606
     10 C          -2.2681   -0.4432    0.4114 C.ar    1  UNL1        0.0082
     11 C          -0.9955    0.0628    0.5657 C.ar    1  UNL1       -0.0290
     12 C           0.1084   -0.5072   -0.0805 C.ar    1  UNL1        0.0713
     13 N          -0.0377   -1.5741   -0.8781 N.ar    1  UNL1       -0.3019
     14 C          -1.2940   -2.0644   -1.0233 C.ar    1  UNL1        0.2589
     15 O          -1.4404   -3.0754   -1.7777 O.2     1  UNL1       -0.2672
     16 C           1.2349   -1.9799   -1.4288 C.3     1  UNL1        0.0539
     17 C           2.2094   -1.0361   -0.8805 C.ar    1  UNL1        0.0003
     18 C           3.5943   -0.9037   -1.0358 C.ar    1  UNL1       -0.0456
     19 C           4.2416    0.1134   -0.3699 C.ar    1  UNL1        0.0007
     20 C           5.6035    0.2687   -0.5033 C.ar    1  UNL1       -0.0526
     21 C           6.3059    1.2682    0.1387 C.ar    1  UNL1       -0.0611
     22 C           5.5870    2.1353    0.9430 C.ar    1  UNL1       -0.0597
     23 C           4.2227    1.9851    1.0807 C.ar    1  UNL1       -0.0357
     24 C           3.5176    0.9709    0.4278 C.ar    1  UNL1        0.0717
     25 N           2.1888    0.8373    0.5718 N.ar    1  UNL1       -0.2449
     26 C           1.5286   -0.1571   -0.0741 C.ar    1  UNL1        0.0929
     27 H          -3.3783    3.0211    0.5504 H       1  UNL1        0.0231
     28 H          -3.7890    2.6754   -1.1722 H       1  UNL1        0.0231
     29 H          -2.2992    1.9238   -0.3960 H       1  UNL1        0.0231
     30 H          -4.6840    0.5611   -0.6851 H       1  UNL1        0.0299
     31 H          -5.0899    1.4865    0.7639 H       1  UNL1        0.0299
     32 H          -2.5835    1.6922    1.8713 H       1  UNL1        0.2113
     33 H          -3.5865   -3.2162   -0.8471 H       1  UNL1        0.0750
     34 H          -4.3143   -1.6799   -1.4392 H       1  UNL1        0.0750
     35 H          -0.8227    0.9213    1.1989 H       1  UNL1        0.0643
     36 H           1.1934   -1.9636   -2.5457 H       1  UNL1        0.0543
     37 H           1.5146   -3.0029   -1.1114 H       1  UNL1        0.0543
     38 H           4.1091   -1.6042   -1.6732 H       1  UNL1        0.0628
     39 H           6.1279   -0.4309   -1.1418 H       1  UNL1        0.0624
     40 H           7.3747    1.4072    0.0473 H       1  UNL1        0.0618
     41 H           6.0955    2.9370    1.4681 H       1  UNL1        0.0618
     42 H           3.6672    2.6687    1.7127 H       1  UNL1        0.0639
@<TRIPOS>BOND
     1     1     2    1
     2     2     3    1
     3     3     4    1
     4     3     5    1
     5     5     6    2
     6     5     7    1
     7     7     8    1
     8     8     9    1
     9     9    10   ar
    10    10    11   ar
    11    11    12   ar
    12    12    13   ar
    13    13    14   ar
    14    14    15    2
    15    13    16    1
    16    16    17    1
    17    17    18   ar
    18    18    19   ar
    19    19    20   ar
    20    20    21   ar
    21    21    22   ar
    22    22    23   ar
    23    23    24   ar
    24    24    25   ar
    25    25    26   ar
    26    10     3    1
    27    26    12    1
    28    14     9   ar
    29    26    17   ar
    30    24    19   ar
    31     1    27    1
    32     1    28    1
    33     1    29    1
    34     2    30    1
    35     2    31    1
    36     4    32    1
    37     8    33    1
    38     8    34    1
    39    11    35    1
    40    16    36    1
    41    16    37    1
    42    18    38    1
    43    20    39    1
    44    21    40    1
    45    22    41    1
    46    23    42    1
