
     RDKit          3D

 42 46  0  0  0  0  0  0  0  0999 V2000
   -3.3406    2.2218   -0.2458 C   0  0  0  0  0  0  0  0  0  0  0  0
   -4.2196    1.0856    0.1690 C   0  0  0  0  0  0  0  0  0  0  0  0
   -3.4517    0.1462    1.0878 C   0  0  1  0  0  0  0  0  0  0  0  0
   -3.0654    0.9109    2.2022 O   0  0  0  0  0  0  0  0  0  0  0  0
   -4.3051   -0.9974    1.5102 C   0  0  0  0  0  0  0  0  0  0  0  0
   -4.8649   -0.9233    2.6328 O   0  0  0  0  0  0  0  0  0  0  0  0
   -4.4248   -2.0661    0.6374 O   0  0  0  0  0  0  0  0  0  0  0  0
   -3.7680   -2.1340   -0.6141 C   0  0  0  0  0  0  0  0  0  0  0  0
   -2.4018   -1.5409   -0.4123 C   0  0  0  0  0  0  0  0  0  0  0  0
   -2.2681   -0.4432    0.4114 C   0  0  0  0  0  0  0  0  0  0  0  0
   -0.9955    0.0628    0.5657 C   0  0  0  0  0  0  0  0  0  0  0  0
    0.1084   -0.5072   -0.0805 C   0  0  0  0  0  0  0  0  0  0  0  0
   -0.0377   -1.5741   -0.8781 N   0  0  0  0  0  0  0  0  0  0  0  0
   -1.2940   -2.0644   -1.0233 C   0  0  0  0  0  0  0  0  0  0  0  0
   -1.4404   -3.0754   -1.7777 O   0  0  0  0  0  0  0  0  0  0  0  0
    1.2349   -1.9799   -1.4288 C   0  0  0  0  0  0  0  0  0  0  0  0
    2.2094   -1.0361   -0.8805 C   0  0  0  0  0  0  0  0  0  0  0  0
    3.5943   -0.9037   -1.0358 C   0  0  0  0  0  0  0  0  0  0  0  0
    4.2416    0.1134   -0.3699 C   0  0  0  0  0  0  0  0  0  0  0  0
    5.6035    0.2687   -0.5033 C   0  0  0  0  0  0  0  0  0  0  0  0
    6.3059    1.2682    0.1387 C   0  0  0  0  0  0  0  0  0  0  0  0
    5.5870    2.1353    0.9430 C   0  0  0  0  0  0  0  0  0  0  0  0
    4.2227    1.9851    1.0807 C   0  0  0  0  0  0  0  0  0  0  0  0
    3.5176    0.9709    0.4278 C   0  0  0  0  0  0  0  0  0  0  0  0
    2.1888    0.8373    0.5718 N   0  0  0  0  0  0  0  0  0  0  0  0
    1.5286   -0.1571   -0.0741 C   0  0  0  0  0  0  0  0  0  0  0  0
   -3.3783    3.0211    0.5504 H   0  0  0  0  0  0  0  0  0  0  0  0
   -3.7890    2.6754   -1.1722 H   0  0  0  0  0  0  0  0  0  0  0  0
   -2.2992    1.9238   -0.3960 H   0  0  0  0  0  0  0  0  0  0  0  0
   -4.6840    0.5611   -0.6851 H   0  0  0  0  0  0  0  0  0  0  0  0
   -5.0899    1.4865    0.7639 H   0  0  0  0  0  0  0  0  0  0  0  0
   -2.5835    1.6922    1.8713 H   0  0  0  0  0  0  0  0  0  0  0  0
   -3.5865   -3.2162   -0.8471 H   0  0  0  0  0  0  0  0  0  0  0  0
   -4.3143   -1.6799   -1.4392 H   0  0  0  0  0  0  0  0  0  0  0  0
   -0.8227    0.9213    1.1989 H   0  0  0  0  0  0  0  0  0  0  0  0
    1.1934   -1.9636   -2.5457 H   0  0  0  0  0  0  0  0  0  0  0  0
    1.5146   -3.0029   -1.1114 H   0  0  0  0  0  0  0  0  0  0  0  0
    4.1091   -1.6042   -1.6732 H   0  0  0  0  0  0  0  0  0  0  0  0
    6.1279   -0.4309   -1.1418 H   0  0  0  0  0  0  0  0  0  0  0  0
    7.3747    1.4072    0.0473 H   0  0  0  0  0  0  0  0  0  0  0  0
    6.0955    2.9370    1.4681 H   0  0  0  0  0  0  0  0  0  0  0  0
    3.6672    2.6687    1.7127 H   0  0  0  0  0  0  0  0  0  0  0  0
  1  2  1  0
  2  3  1  0
  3  4  1  1
  3  5  1  0
  5  6  2  0
  5  7  1  0
  7  8  1  0
  8  9  1  0
  9 10  2  0
 10 11  1  0
 11 12  2  0
 12 13  1  0
 13 14  1  0
 14 15  2  0
 13 16  1  0
 16 17  1  0
 17 18  2  0
 18 19  1  0
 19 20  2  0
 20 21  1  0
 21 22  2  0
 22 23  1  0
 23 24  2  0
 24 25  1  0
 25 26  2  0
 10  3  1  0
 26 12  1  0
 14  9  1  0
 26 17  1  0
 24 19  1  0
  1 27  1  0
  1 28  1  0
  1 29  1  0
  2 30  1  0
  2 31  1  0
  4 32  1  0
  8 33  1  0
  8 34  1  0
 11 35  1  0
 16 36  1  0
 16 37  1  0
 18 38  1  0
 20 39  1  0
 21 40  1  0
 22 41  1  0
 23 42  1  0
M  END
$$$$
