@<TRIPOS>MOLECULE
*****
 46 48 0 0 0
SMALL
GASTEIGER

@<TRIPOS>ATOM
      1 C          -4.7134   -0.5556    0.5284 C.3     1  UNL1       -0.0611
      2 C          -4.3476    0.7915    0.0466 C.3     1  UNL1       -0.0258
      3 C          -3.2032    1.3673    0.8168 C.3     1  UNL1       -0.0611
      4 C          -4.2505    0.9986   -1.4046 C.3     1  UNL1        0.0840
      5 S          -3.2011    0.0840   -2.4088 S.O2    1  UNL1        0.0299
      6 O          -3.7092   -1.3567   -2.5876 O.2     1  UNL1       -0.1582
      7 O          -3.3777    0.6495   -3.8426 O.2     1  UNL1       -0.1582
      8 N          -1.5348    0.0902   -2.1299 N.3     1  UNL1       -0.1913
      9 C          -1.1561   -0.4558   -0.8874 C.3     1  UNL1        0.0318
     10 C          -0.0662   -1.5665   -1.0220 C.3     1  UNL1       -0.0172
     11 C           0.4517   -1.0543    0.3052 C.3     1  UNL1        0.0275
     12 N           1.9138   -1.1200    0.4232 N.pl3   1  UNL1       -0.3145
     13 C           2.4673   -2.4419    0.2981 C.3     1  UNL1        0.0023
     14 C           2.6509    0.0462    0.6631 C.ar    1  UNL1        0.1337
     15 N           1.9562    1.1646    1.0259 N.ar    1  UNL1       -0.2200
     16 C           2.6030    2.3038    1.2922 C.ar    1  UNL1        0.1204
     17 N           3.9352    2.3503    1.2033 N.ar    1  UNL1       -0.2178
     18 C           4.6750    1.2919    0.8531 C.ar    1  UNL1        0.1432
     19 N           5.9921    1.1146    0.6956 N.ar    1  UNL1       -0.3457
     20 C           6.2339   -0.1446    0.3220 C.ar    1  UNL1        0.0042
     21 C           5.0123   -0.7829    0.2426 C.ar    1  UNL1       -0.0318
     22 C           4.0085    0.1026    0.5743 C.ar    1  UNL1        0.0585
     23 C          -0.0685    0.3077   -0.1285 C.3     1  UNL1       -0.0172
     24 H          -3.9149   -1.0769    1.0959 H       1  UNL1        0.0233
     25 H          -5.0799   -1.1973   -0.3256 H       1  UNL1        0.0233
     26 H          -5.5699   -0.5026    1.2242 H       1  UNL1        0.0233
     27 H          -5.2544    1.4590    0.4168 H       1  UNL1        0.0312
     28 H          -2.7015    0.5927    1.4483 H       1  UNL1        0.0233
     29 H          -3.5195    2.1605    1.5289 H       1  UNL1        0.0233
     30 H          -2.5045    1.8737    0.1160 H       1  UNL1        0.0233
     31 H          -4.0639    2.1071   -1.6314 H       1  UNL1        0.0518
     32 H          -5.3152    0.8492   -1.8109 H       1  UNL1        0.0518
     33 H          -1.0456    0.9587   -2.3760 H       1  UNL1        0.1479
     34 H          -1.9777   -0.8540   -0.2763 H       1  UNL1        0.0478
     35 H          -0.4805   -2.5727   -1.0297 H       1  UNL1        0.0299
     36 H           0.6242   -1.2851   -1.8366 H       1  UNL1        0.0299
     37 H          -0.1084   -1.5016    1.1295 H       1  UNL1        0.0501
     38 H           2.8673   -2.6948   -0.6861 H       1  UNL1        0.0428
     39 H           1.6126   -3.1890    0.4607 H       1  UNL1        0.0428
     40 H           3.1416   -2.6707    1.1547 H       1  UNL1        0.0428
     41 H           1.9927    3.1555    1.5749 H       1  UNL1        0.1048
     42 H           6.7173    1.8605    0.8459 H       1  UNL1        0.1668
     43 H           7.2167   -0.5571    0.1256 H       1  UNL1        0.0807
     44 H           4.8818   -1.7940   -0.0379 H       1  UNL1        0.0640
     45 H           0.5964    0.7774   -0.8853 H       1  UNL1        0.0299
     46 H          -0.3865    0.9172    0.7094 H       1  UNL1        0.0299
@<TRIPOS>BOND
     1     1     2    1
     2     2     3    1
     3     2     4    1
     4     4     5    1
     5     5     6    2
     6     5     7    2
     7     5     8    1
     8     8     9    1
     9     9    10    1
    10    10    11    1
    11    11    12    1
    12    12    13    1
    13    12    14    1
    14    14    15   ar
    15    15    16   ar
    16    16    17   ar
    17    17    18   ar
    18    18    19   ar
    19    19    20   ar
    20    20    21   ar
    21    21    22   ar
    22    11    23    1
    23    23     9    1
    24    22    14   ar
    25    22    18   ar
    26     1    24    1
    27     1    25    1
    28     1    26    1
    29     2    27    1
    30     3    28    1
    31     3    29    1
    32     3    30    1
    33     4    31    1
    34     4    32    1
    35     8    33    1
    36     9    34    1
    37    10    35    1
    38    10    36    1
    39    11    37    1
    40    13    38    1
    41    13    39    1
    42    13    40    1
    43    16    41    1
    44    19    42    1
    45    20    43    1
    46    21    44    1
    47    23    45    1
    48    23    46    1
