
     RDKit          3D

 46 48  0  0  0  0  0  0  0  0999 V2000
   -4.7134   -0.5556    0.5284 C   0  0  0  0  0  0  0  0  0  0  0  0
   -4.3476    0.7915    0.0466 C   0  0  0  0  0  0  0  0  0  0  0  0
   -3.2032    1.3673    0.8168 C   0  0  0  0  0  0  0  0  0  0  0  0
   -4.2505    0.9986   -1.4046 C   0  0  0  0  0  0  0  0  0  0  0  0
   -3.2011    0.0840   -2.4088 S   0  0  0  0  0  6  0  0  0  0  0  0
   -3.7092   -1.3567   -2.5876 O   0  0  0  0  0  0  0  0  0  0  0  0
   -3.3777    0.6495   -3.8426 O   0  0  0  0  0  0  0  0  0  0  0  0
   -1.5348    0.0902   -2.1299 N   0  0  0  0  0  0  0  0  0  0  0  0
   -1.1561   -0.4558   -0.8874 C   0  0  1  0  0  0  0  0  0  0  0  0
   -0.0662   -1.5665   -1.0220 C   0  0  0  0  0  0  0  0  0  0  0  0
    0.4517   -1.0543    0.3052 C   0  0  1  0  0  0  0  0  0  0  0  0
    1.9138   -1.1200    0.4232 N   0  0  0  0  0  0  0  0  0  0  0  0
    2.4673   -2.4419    0.2981 C   0  0  0  0  0  0  0  0  0  0  0  0
    2.6509    0.0462    0.6631 C   0  0  0  0  0  0  0  0  0  0  0  0
    1.9562    1.1646    1.0259 N   0  0  0  0  0  0  0  0  0  0  0  0
    2.6030    2.3038    1.2922 C   0  0  0  0  0  0  0  0  0  0  0  0
    3.9352    2.3503    1.2033 N   0  0  0  0  0  0  0  0  0  0  0  0
    4.6750    1.2919    0.8531 C   0  0  0  0  0  0  0  0  0  0  0  0
    5.9921    1.1146    0.6956 N   0  0  0  0  0  0  0  0  0  0  0  0
    6.2339   -0.1446    0.3220 C   0  0  0  0  0  0  0  0  0  0  0  0
    5.0123   -0.7829    0.2426 C   0  0  0  0  0  0  0  0  0  0  0  0
    4.0085    0.1026    0.5743 C   0  0  0  0  0  0  0  0  0  0  0  0
   -0.0685    0.3077   -0.1285 C   0  0  0  0  0  0  0  0  0  0  0  0
   -3.9149   -1.0769    1.0959 H   0  0  0  0  0  0  0  0  0  0  0  0
   -5.0799   -1.1973   -0.3256 H   0  0  0  0  0  0  0  0  0  0  0  0
   -5.5699   -0.5026    1.2242 H   0  0  0  0  0  0  0  0  0  0  0  0
   -5.2544    1.4590    0.4168 H   0  0  0  0  0  0  0  0  0  0  0  0
   -2.7015    0.5927    1.4483 H   0  0  0  0  0  0  0  0  0  0  0  0
   -3.5195    2.1605    1.5289 H   0  0  0  0  0  0  0  0  0  0  0  0
   -2.5045    1.8737    0.1160 H   0  0  0  0  0  0  0  0  0  0  0  0
   -4.0639    2.1071   -1.6314 H   0  0  0  0  0  0  0  0  0  0  0  0
   -5.3152    0.8492   -1.8109 H   0  0  0  0  0  0  0  0  0  0  0  0
   -1.0456    0.9587   -2.3760 H   0  0  0  0  0  0  0  0  0  0  0  0
   -1.9777   -0.8540   -0.2763 H   0  0  0  0  0  0  0  0  0  0  0  0
   -0.4805   -2.5727   -1.0297 H   0  0  0  0  0  0  0  0  0  0  0  0
    0.6242   -1.2851   -1.8366 H   0  0  0  0  0  0  0  0  0  0  0  0
   -0.1084   -1.5016    1.1295 H   0  0  0  0  0  0  0  0  0  0  0  0
    2.8673   -2.6948   -0.6861 H   0  0  0  0  0  0  0  0  0  0  0  0
    1.6126   -3.1890    0.4607 H   0  0  0  0  0  0  0  0  0  0  0  0
    3.1416   -2.6707    1.1547 H   0  0  0  0  0  0  0  0  0  0  0  0
    1.9927    3.1555    1.5749 H   0  0  0  0  0  0  0  0  0  0  0  0
    6.7173    1.8605    0.8459 H   0  0  0  0  0  0  0  0  0  0  0  0
    7.2167   -0.5571    0.1256 H   0  0  0  0  0  0  0  0  0  0  0  0
    4.8818   -1.7940   -0.0379 H   0  0  0  0  0  0  0  0  0  0  0  0
    0.5964    0.7774   -0.8853 H   0  0  0  0  0  0  0  0  0  0  0  0
   -0.3865    0.9172    0.7094 H   0  0  0  0  0  0  0  0  0  0  0  0
  1  2  1  0
  2  3  1  0
  2  4  1  0
  4  5  1  0
  5  6  2  0
  5  7  2  0
  5  8  1  0
  8  9  1  0
  9 10  1  0
 10 11  1  0
 11 12  1  0
 12 13  1  0
 12 14  1  0
 14 15  2  0
 15 16  1  0
 16 17  2  0
 17 18  1  0
 18 19  1  0
 19 20  1  0
 20 21  2  0
 21 22  1  0
 11 23  1  0
 23  9  1  0
 22 14  1  0
 22 18  2  0
  1 24  1  0
  1 25  1  0
  1 26  1  0
  2 27  1  0
  3 28  1  0
  3 29  1  0
  3 30  1  0
  4 31  1  0
  4 32  1  0
  8 33  1  0
  9 34  1  1
 10 35  1  0
 10 36  1  0
 11 37  1  1
 13 38  1  0
 13 39  1  0
 13 40  1  0
 16 41  1  0
 19 42  1  0
 20 43  1  0
 21 44  1  0
 23 45  1  0
 23 46  1  0
M  END
$$$$
