@<TRIPOS>MOLECULE
*****
 51 54 0 0 0
SMALL
GASTEIGER

@<TRIPOS>ATOM
      1 C          -5.1115   -1.2705   -1.3114 C.3     1  UNL1       -0.0363
      2 C          -3.8468   -1.7285   -0.6303 C.3     1  UNL1        0.0622
      3 C          -3.1069   -2.6330   -1.5742 C.3     1  UNL1       -0.0363
      4 O          -4.2325   -2.5154    0.4643 O.3     1  UNL1       -0.3891
      5 C          -3.0149   -0.6006   -0.1147 C.3     1  UNL1       -0.0064
      6 C          -2.5778    0.3444   -1.2222 C.3     1  UNL1        0.0273
      7 N          -1.7695    1.4022   -0.6029 N.ar    1  UNL1       -0.3283
      8 C          -2.2261    2.5632   -0.1082 C.ar    1  UNL1        0.0971
      9 N          -1.2000    3.2515    0.3686 N.ar    1  UNL1       -0.2351
     10 C          -0.0554    2.5643    0.1992 C.ar    1  UNL1        0.0983
     11 C           1.2846    2.9953    0.5952 C.ar    1  UNL1        0.0040
     12 C           1.6317    3.2301    1.9087 C.ar    1  UNL1       -0.0497
     13 C           2.9153    3.6413    2.2638 C.ar    1  UNL1       -0.0244
     14 C           3.8754    3.8250    1.3069 C.ar    1  UNL1        0.1417
     15 F           5.1234    4.2254    1.6489 F       1  UNL1       -0.2040
     16 C           3.5456    3.5940   -0.0209 C.ar    1  UNL1        0.0767
     17 CL          4.7884    3.8349   -1.2334 Cl      1  UNL1       -0.0806
     18 C           2.2704    3.1879   -0.3484 C.ar    1  UNL1       -0.0313
     19 C          -0.4443    1.4003   -0.4167 C.ar    1  UNL1        0.0966
     20 C           0.4944    0.3213   -0.8026 C.ar    1  UNL1        0.1103
     21 C           0.6907   -0.0038   -2.1234 C.ar    1  UNL1       -0.0290
     22 C           1.5510   -1.0005   -2.4875 C.ar    1  UNL1       -0.0153
     23 C           2.2217   -1.6748   -1.4648 C.ar    1  UNL1        0.1549
     24 N           3.1159   -2.6830   -1.4716 N.ar    1  UNL1       -0.2339
     25 C           3.4627   -2.9747   -0.2084 C.ar    1  UNL1        0.0605
     26 C           2.7703   -2.1289    0.6271 C.ar    1  UNL1        0.1470
     27 C           2.8073   -2.0568    2.0963 C.2     1  UNL1        0.2615
     28 N           3.6629   -2.9768    2.7581 N.am    1  UNL1       -0.3240
     29 O           2.1129   -1.2226    2.6910 O.2     1  UNL1       -0.2687
     30 N           2.0081   -1.3339   -0.1876 N.ar    1  UNL1       -0.2076
     31 N           1.1681   -0.3634    0.1293 N.ar    1  UNL1       -0.1628
     32 H          -4.9842   -1.2819   -2.4179 H       1  UNL1        0.0257
     33 H          -5.9248   -2.0221   -1.1085 H       1  UNL1        0.0257
     34 H          -5.4959   -0.3117   -0.9233 H       1  UNL1        0.0257
     35 H          -2.7467   -2.1115   -2.4768 H       1  UNL1        0.0257
     36 H          -2.2842   -3.1039   -0.9957 H       1  UNL1        0.0257
     37 H          -3.8313   -3.4207   -1.8986 H       1  UNL1        0.0257
     38 H          -4.4192   -1.9704    1.2472 H       1  UNL1        0.2101
     39 H          -3.5699   -0.0394    0.6475 H       1  UNL1        0.0310
     40 H          -2.1317   -1.0397    0.3922 H       1  UNL1        0.0310
     41 H          -1.8921   -0.1861   -1.9127 H       1  UNL1        0.0493
     42 H          -3.4714    0.7383   -1.7087 H       1  UNL1        0.0493
     43 H          -3.2904    2.8511   -0.1196 H       1  UNL1        0.1029
     44 H           0.8693    3.0832    2.6594 H       1  UNL1        0.0625
     45 H           3.1603    3.8185    3.2985 H       1  UNL1        0.0647
     46 H           2.0327    3.0133   -1.3785 H       1  UNL1        0.0640
     47 H           0.1656    0.5277   -2.9080 H       1  UNL1        0.0641
     48 H           1.7569   -1.3119   -3.4935 H       1  UNL1        0.0655
     49 H           4.1717   -3.7478    0.1263 H       1  UNL1        0.0854
     50 H           3.7008   -3.9731    2.4365 H       1  UNL1        0.1453
     51 H           4.2693   -2.7257    3.5592 H       1  UNL1        0.1453
@<TRIPOS>BOND
     1     1     2    1
     2     2     3    1
     3     2     4    1
     4     2     5    1
     5     5     6    1
     6     6     7    1
     7     7     8   ar
     8     8     9   ar
     9     9    10   ar
    10    10    11    1
    11    11    12   ar
    12    12    13   ar
    13    13    14   ar
    14    14    15    1
    15    14    16   ar
    16    16    17    1
    17    16    18   ar
    18    10    19   ar
    19    19    20    1
    20    20    21   ar
    21    21    22   ar
    22    22    23   ar
    23    23    24   ar
    24    24    25   ar
    25    25    26   ar
    26    26    27    1
    27    27    28   am
    28    27    29    2
    29    26    30   ar
    30    30    31   ar
    31    19     7   ar
    32    31    20   ar
    33    18    11   ar
    34    30    23   ar
    35     1    32    1
    36     1    33    1
    37     1    34    1
    38     3    35    1
    39     3    36    1
    40     3    37    1
    41     4    38    1
    42     5    39    1
    43     5    40    1
    44     6    41    1
    45     6    42    1
    46     8    43    1
    47    12    44    1
    48    13    45    1
    49    18    46    1
    50    21    47    1
    51    22    48    1
    52    25    49    1
    53    28    50    1
    54    28    51    1
