@<TRIPOS>MOLECULE
*****
 76 79 0 0 0
SMALL
GASTEIGER

@<TRIPOS>ATOM
      1 C           8.8200    1.0443    0.2244 C.3     1  UNL1       -0.0560
      2 C           8.0670    0.2322   -0.8274 C.3     1  UNL1       -0.0127
      3 C           8.6374   -1.1757   -0.7384 C.3     1  UNL1       -0.0560
      4 C           8.3222    0.7601   -2.2022 C.3     1  UNL1       -0.0560
      5 C           6.6174    0.2462   -0.5366 C.ar    1  UNL1       -0.0420
      6 C           6.1085    0.9178    0.5507 C.ar    1  UNL1       -0.0577
      7 C           4.7265    0.8862    0.7650 C.ar    1  UNL1       -0.0559
      8 C           3.8791    0.1928   -0.0980 C.ar    1  UNL1       -0.0191
      9 C           4.3919   -0.4833   -1.1930 C.ar    1  UNL1       -0.0559
     10 C           5.7557   -0.4304   -1.3725 C.ar    1  UNL1       -0.0577
     11 C           2.4261    0.3010    0.3473 C.3     1  UNL1        0.0802
     12 O           2.2391    1.6610    0.6830 O.3     1  UNL1       -0.3872
     13 C           2.2155   -0.4818    1.6005 C.3     1  UNL1       -0.0215
     14 C           0.8404   -0.5033    2.1569 C.3     1  UNL1       -0.0376
     15 C          -0.2242   -1.0983    1.2844 C.3     1  UNL1       -0.0010
     16 N          -0.5063   -0.4419    0.0603 N.3     1  UNL1       -0.3023
     17 C          -1.3689   -1.1836   -0.8210 C.3     1  UNL1       -0.0008
     18 C          -2.8086   -0.8657   -0.8160 C.3     1  UNL1       -0.0341
     19 C          -3.3287   -0.2658    0.4554 C.3     1  UNL1       -0.0014
     20 C          -2.3678    0.7433    1.0566 C.3     1  UNL1       -0.0341
     21 C          -1.1101    0.8626    0.2191 C.3     1  UNL1       -0.0008
     22 C          -4.7119    0.1981    0.4305 C.3     1  UNL1        0.1187
     23 O          -4.9829    0.7066    1.7400 O.3     1  UNL1       -0.3790
     24 C          -5.1668    1.2278   -0.4790 C.ar    1  UNL1       -0.0115
     25 C          -4.5252    2.0666   -1.3296 C.ar    1  UNL1       -0.0555
     26 C          -5.1266    2.9974   -2.1323 C.ar    1  UNL1       -0.0614
     27 C          -6.5024    3.1172   -2.0961 C.ar    1  UNL1       -0.0617
     28 C          -7.2041    2.2987   -1.2574 C.ar    1  UNL1       -0.0614
     29 C          -6.5669    1.3758   -0.4662 C.ar    1  UNL1       -0.0555
     30 C          -5.6073   -0.9872    0.2880 C.ar    1  UNL1       -0.0115
     31 C          -5.7806   -1.4609   -1.0125 C.ar    1  UNL1       -0.0555
     32 C          -6.5864   -2.5536   -1.2421 C.ar    1  UNL1       -0.0614
     33 C          -7.2299   -3.1893   -0.1861 C.ar    1  UNL1       -0.0617
     34 C          -7.0682   -2.7285    1.1222 C.ar    1  UNL1       -0.0614
     35 C          -6.2474   -1.6262    1.2976 C.ar    1  UNL1       -0.0555
     36 H           8.4409    2.0686    0.2660 H       1  UNL1        0.0238
     37 H           9.8917    0.9471   -0.0458 H       1  UNL1        0.0238
     38 H           8.6743    0.5787    1.2200 H       1  UNL1        0.0238
     39 H           9.6301   -1.2201   -1.1925 H       1  UNL1        0.0238
     40 H           7.9547   -1.8866   -1.2536 H       1  UNL1        0.0238
     41 H           8.7385   -1.4874    0.3349 H       1  UNL1        0.0238
     42 H           7.3989    0.6347   -2.8013 H       1  UNL1        0.0238
     43 H           9.1112    0.1953   -2.7375 H       1  UNL1        0.0238
     44 H           8.5135    1.8516   -2.1527 H       1  UNL1        0.0238
     45 H           6.7520    1.4571    1.2248 H       1  UNL1        0.0621
     46 H           4.3944    1.4428    1.6466 H       1  UNL1        0.0621
     47 H           3.6408   -0.9697   -1.7656 H       1  UNL1        0.0621
     48 H           6.1140   -0.9761   -2.2459 H       1  UNL1        0.0621
     49 H           1.7370    0.0502   -0.4531 H       1  UNL1        0.0643
     50 H           2.0693    1.7951    1.6333 H       1  UNL1        0.2102
     51 H           2.8526    0.0376    2.3871 H       1  UNL1        0.0294
     52 H           2.6757   -1.4999    1.5444 H       1  UNL1        0.0294
     53 H           0.8155   -1.0998    3.1158 H       1  UNL1        0.0278
     54 H           0.4959    0.5159    2.4375 H       1  UNL1        0.0278
     55 H           0.1553   -2.1415    1.0304 H       1  UNL1        0.0426
     56 H          -1.0865   -1.3007    1.9497 H       1  UNL1        0.0426
     57 H          -0.9216   -1.0893   -1.8508 H       1  UNL1        0.0427
     58 H          -1.1598   -2.2686   -0.5724 H       1  UNL1        0.0427
     59 H          -3.1001   -0.3436   -1.7464 H       1  UNL1        0.0281
     60 H          -3.3401   -1.8620   -0.9423 H       1  UNL1        0.0281
     61 H          -3.3288   -1.1165    1.1946 H       1  UNL1        0.0336
     62 H          -2.8156    1.7537    1.1831 H       1  UNL1        0.0281
     63 H          -2.0268    0.4811    2.0783 H       1  UNL1        0.0281
     64 H          -1.2518    1.2842   -0.7726 H       1  UNL1        0.0427
     65 H          -0.3950    1.5068    0.7558 H       1  UNL1        0.0427
     66 H          -4.4489    0.2029    2.4141 H       1  UNL1        0.2111
     67 H          -3.4678    1.9611   -1.3389 H       1  UNL1        0.0621
     68 H          -4.5478    3.6145   -2.7711 H       1  UNL1        0.0618
     69 H          -7.0057    3.8491   -2.7207 H       1  UNL1        0.0618
     70 H          -8.2806    2.4333   -1.2643 H       1  UNL1        0.0618
     71 H          -7.2554    0.7914    0.1539 H       1  UNL1        0.0621
     72 H          -5.3630   -1.0827   -1.9231 H       1  UNL1        0.0621
     73 H          -6.7825   -2.9974   -2.2210 H       1  UNL1        0.0618
     74 H          -7.8666   -4.0463   -0.3193 H       1  UNL1        0.0618
     75 H          -7.5575   -3.2028    1.9769 H       1  UNL1        0.0618
     76 H          -6.0804   -1.2221    2.2731 H       1  UNL1        0.0621
@<TRIPOS>BOND
     1     1     2    1
     2     2     3    1
     3     2     4    1
     4     2     5    1
     5     5     6   ar
     6     6     7   ar
     7     7     8   ar
     8     8     9   ar
     9     9    10   ar
    10     8    11    1
    11    11    12    1
    12    11    13    1
    13    13    14    1
    14    14    15    1
    15    15    16    1
    16    16    17    1
    17    17    18    1
    18    18    19    1
    19    19    20    1
    20    20    21    1
    21    19    22    1
    22    22    23    1
    23    22    24    1
    24    24    25   ar
    25    25    26   ar
    26    26    27   ar
    27    27    28   ar
    28    28    29   ar
    29    22    30    1
    30    30    31   ar
    31    31    32   ar
    32    32    33   ar
    33    33    34   ar
    34    34    35   ar
    35    10     5   ar
    36    21    16    1
    37    29    24   ar
    38    35    30   ar
    39     1    36    1
    40     1    37    1
    41     1    38    1
    42     3    39    1
    43     3    40    1
    44     3    41    1
    45     4    42    1
    46     4    43    1
    47     4    44    1
    48     6    45    1
    49     7    46    1
    50     9    47    1
    51    10    48    1
    52    11    49    1
    53    12    50    1
    54    13    51    1
    55    13    52    1
    56    14    53    1
    57    14    54    1
    58    15    55    1
    59    15    56    1
    60    17    57    1
    61    17    58    1
    62    18    59    1
    63    18    60    1
    64    19    61    1
    65    20    62    1
    66    20    63    1
    67    21    64    1
    68    21    65    1
    69    23    66    1
    70    25    67    1
    71    26    68    1
    72    27    69    1
    73    28    70    1
    74    29    71    1
    75    31    72    1
    76    32    73    1
    77    33    74    1
    78    34    75    1
    79    35    76    1
