@<TRIPOS>MOLECULE
*****
 51 54 0 0 0
SMALL
GASTEIGER

@<TRIPOS>ATOM
      1 N          -6.5282   -0.3706   -0.0139 N.3     1  UNL1       -0.3261
      2 C          -5.1231   -0.1840   -0.3419 C.3     1  UNL1        0.0188
      3 C          -4.6761   -1.3260   -1.2600 C.3     1  UNL1       -0.0237
      4 C          -3.3656   -1.7947   -0.6823 C.3     1  UNL1        0.0007
      5 N          -3.0321   -0.9105    0.4106 N.3     1  UNL1       -0.2979
      6 C          -2.1741    0.1204   -0.0796 C.3     1  UNL1        0.0106
      7 C          -1.7665    1.1095    0.9912 C.3     1  UNL1       -0.0359
      8 C          -1.0164    2.2239    0.2762 C.3     1  UNL1       -0.0361
      9 C           0.2636    1.6619   -0.2830 C.3     1  UNL1        0.0080
     10 N           1.3355    2.1094    0.6221 N.3     1  UNL1       -0.3099
     11 C           2.6192    1.6227    0.1797 C.3     1  UNL1        0.0153
     12 C           3.7641    2.0518    1.0734 C.3     1  UNL1       -0.0287
     13 C           3.2629    0.6048    1.0426 C.3     1  UNL1        0.0010
     14 C           4.2746   -0.3298    0.4865 C.ar    1  UNL1       -0.0428
     15 C           4.4665   -1.5682    1.0604 C.ar    1  UNL1       -0.0583
     16 C           5.4073   -2.4696    0.5643 C.ar    1  UNL1       -0.0615
     17 C           6.1588   -2.1046   -0.5266 C.ar    1  UNL1       -0.0617
     18 C           5.9970   -0.8836   -1.1236 C.ar    1  UNL1       -0.0615
     19 C           5.0515   -0.0077   -0.6058 C.ar    1  UNL1       -0.0583
     20 C           0.3191    0.1776   -0.3276 C.3     1  UNL1       -0.0361
     21 C          -0.9551   -0.4955   -0.7210 C.3     1  UNL1       -0.0359
     22 C          -4.3013   -0.4689    0.8881 C.3     1  UNL1        0.0144
     23 H          -6.7322    0.1477    0.8759 H       1  UNL1        0.1185
     24 H          -7.0975    0.0661   -0.7606 H       1  UNL1        0.1185
     25 H          -4.9272    0.7921   -0.7884 H       1  UNL1        0.0471
     26 H          -4.5734   -0.9837   -2.3055 H       1  UNL1        0.0293
     27 H          -5.4496   -2.1306   -1.2740 H       1  UNL1        0.0293
     28 H          -3.5614   -2.7983   -0.2245 H       1  UNL1        0.0427
     29 H          -2.5791   -1.8526   -1.4548 H       1  UNL1        0.0427
     30 H          -2.7074    0.6928   -0.8659 H       1  UNL1        0.0462
     31 H          -2.6784    1.5791    1.4137 H       1  UNL1        0.0281
     32 H          -1.1397    0.6523    1.7723 H       1  UNL1        0.0281
     33 H          -0.8360    3.0253    1.0192 H       1  UNL1        0.0281
     34 H          -1.6835    2.6302   -0.4980 H       1  UNL1        0.0281
     35 H           0.4037    2.1189   -1.2841 H       1  UNL1        0.0460
     36 H           1.1403    1.8193    1.5961 H       1  UNL1        0.1225
     37 H           2.8115    1.6190   -0.9203 H       1  UNL1        0.0466
     38 H           3.5421    2.5797    2.0192 H       1  UNL1        0.0287
     39 H           4.7158    2.3030    0.6042 H       1  UNL1        0.0287
     40 H           2.7055    0.2414    1.9130 H       1  UNL1        0.0364
     41 H           3.8611   -1.8285    1.9175 H       1  UNL1        0.0620
     42 H           5.5450   -3.4458    1.0321 H       1  UNL1        0.0618
     43 H           6.8870   -2.8241   -0.8966 H       1  UNL1        0.0618
     44 H           6.6106   -0.6484   -1.9740 H       1  UNL1        0.0618
     45 H           4.9138    0.9561   -1.0658 H       1  UNL1        0.0620
     46 H           0.7001   -0.2558    0.6326 H       1  UNL1        0.0281
     47 H           1.0986   -0.1092   -1.0909 H       1  UNL1        0.0281
     48 H          -1.0127   -0.5372   -1.8243 H       1  UNL1        0.0281
     49 H          -0.8713   -1.5677   -0.3789 H       1  UNL1        0.0281
     50 H          -4.2843    0.3385    1.6172 H       1  UNL1        0.0442
     51 H          -4.7826   -1.3479    1.4019 H       1  UNL1        0.0442
@<TRIPOS>BOND
     1     1     2    1
     2     2     3    1
     3     3     4    1
     4     4     5    1
     5     5     6    1
     6     6     7    1
     7     7     8    1
     8     8     9    1
     9     9    10    1
    10    10    11    1
    11    11    12    1
    12    12    13    1
    13    13    14    1
    14    14    15   ar
    15    15    16   ar
    16    16    17   ar
    17    17    18   ar
    18    18    19   ar
    19     9    20    1
    20    20    21    1
    21     5    22    1
    22    22     2    1
    23    21     6    1
    24    13    11    1
    25    19    14   ar
    26     1    23    1
    27     1    24    1
    28     2    25    1
    29     3    26    1
    30     3    27    1
    31     4    28    1
    32     4    29    1
    33     6    30    1
    34     7    31    1
    35     7    32    1
    36     8    33    1
    37     8    34    1
    38     9    35    1
    39    10    36    1
    40    11    37    1
    41    12    38    1
    42    12    39    1
    43    13    40    1
    44    15    41    1
    45    16    42    1
    46    17    43    1
    47    18    44    1
    48    19    45    1
    49    20    46    1
    50    20    47    1
    51    21    48    1
    52    21    49    1
    53    22    50    1
    54    22    51    1
