
     RDKit          3D

 51 54  0  0  0  0  0  0  0  0999 V2000
   -6.5282   -0.3706   -0.0139 N   0  0  0  0  0  0  0  0  0  0  0  0
   -5.1231   -0.1840   -0.3419 C   0  0  2  0  0  0  0  0  0  0  0  0
   -4.6761   -1.3260   -1.2600 C   0  0  0  0  0  0  0  0  0  0  0  0
   -3.3656   -1.7947   -0.6823 C   0  0  0  0  0  0  0  0  0  0  0  0
   -3.0321   -0.9105    0.4106 N   0  0  0  0  0  0  0  0  0  0  0  0
   -2.1741    0.1204   -0.0796 C   0  0  0  0  0  0  0  0  0  0  0  0
   -1.7665    1.1095    0.9912 C   0  0  0  0  0  0  0  0  0  0  0  0
   -1.0164    2.2239    0.2762 C   0  0  0  0  0  0  0  0  0  0  0  0
    0.2636    1.6619   -0.2830 C   0  0  0  0  0  0  0  0  0  0  0  0
    1.3355    2.1094    0.6221 N   0  0  0  0  0  0  0  0  0  0  0  0
    2.6192    1.6227    0.1797 C   0  0  1  0  0  0  0  0  0  0  0  0
    3.7641    2.0518    1.0734 C   0  0  0  0  0  0  0  0  0  0  0  0
    3.2629    0.6048    1.0426 C   0  0  2  0  0  0  0  0  0  0  0  0
    4.2746   -0.3298    0.4865 C   0  0  0  0  0  0  0  0  0  0  0  0
    4.4665   -1.5682    1.0604 C   0  0  0  0  0  0  0  0  0  0  0  0
    5.4073   -2.4696    0.5643 C   0  0  0  0  0  0  0  0  0  0  0  0
    6.1588   -2.1046   -0.5266 C   0  0  0  0  0  0  0  0  0  0  0  0
    5.9970   -0.8836   -1.1236 C   0  0  0  0  0  0  0  0  0  0  0  0
    5.0515   -0.0077   -0.6058 C   0  0  0  0  0  0  0  0  0  0  0  0
    0.3191    0.1776   -0.3276 C   0  0  0  0  0  0  0  0  0  0  0  0
   -0.9551   -0.4955   -0.7210 C   0  0  0  0  0  0  0  0  0  0  0  0
   -4.3013   -0.4689    0.8881 C   0  0  0  0  0  0  0  0  0  0  0  0
   -6.7322    0.1477    0.8759 H   0  0  0  0  0  0  0  0  0  0  0  0
   -7.0975    0.0661   -0.7606 H   0  0  0  0  0  0  0  0  0  0  0  0
   -4.9272    0.7921   -0.7884 H   0  0  0  0  0  0  0  0  0  0  0  0
   -4.5734   -0.9837   -2.3055 H   0  0  0  0  0  0  0  0  0  0  0  0
   -5.4496   -2.1306   -1.2740 H   0  0  0  0  0  0  0  0  0  0  0  0
   -3.5614   -2.7983   -0.2245 H   0  0  0  0  0  0  0  0  0  0  0  0
   -2.5791   -1.8526   -1.4548 H   0  0  0  0  0  0  0  0  0  0  0  0
   -2.7074    0.6928   -0.8659 H   0  0  0  0  0  0  0  0  0  0  0  0
   -2.6784    1.5791    1.4137 H   0  0  0  0  0  0  0  0  0  0  0  0
   -1.1397    0.6523    1.7723 H   0  0  0  0  0  0  0  0  0  0  0  0
   -0.8360    3.0253    1.0192 H   0  0  0  0  0  0  0  0  0  0  0  0
   -1.6835    2.6302   -0.4980 H   0  0  0  0  0  0  0  0  0  0  0  0
    0.4037    2.1189   -1.2841 H   0  0  0  0  0  0  0  0  0  0  0  0
    1.1403    1.8193    1.5961 H   0  0  0  0  0  0  0  0  0  0  0  0
    2.8115    1.6190   -0.9203 H   0  0  0  0  0  0  0  0  0  0  0  0
    3.5421    2.5797    2.0192 H   0  0  0  0  0  0  0  0  0  0  0  0
    4.7158    2.3030    0.6042 H   0  0  0  0  0  0  0  0  0  0  0  0
    2.7055    0.2414    1.9130 H   0  0  0  0  0  0  0  0  0  0  0  0
    3.8611   -1.8285    1.9175 H   0  0  0  0  0  0  0  0  0  0  0  0
    5.5450   -3.4458    1.0321 H   0  0  0  0  0  0  0  0  0  0  0  0
    6.8870   -2.8241   -0.8966 H   0  0  0  0  0  0  0  0  0  0  0  0
    6.6106   -0.6484   -1.9740 H   0  0  0  0  0  0  0  0  0  0  0  0
    4.9138    0.9561   -1.0658 H   0  0  0  0  0  0  0  0  0  0  0  0
    0.7001   -0.2558    0.6326 H   0  0  0  0  0  0  0  0  0  0  0  0
    1.0986   -0.1092   -1.0909 H   0  0  0  0  0  0  0  0  0  0  0  0
   -1.0127   -0.5372   -1.8243 H   0  0  0  0  0  0  0  0  0  0  0  0
   -0.8713   -1.5677   -0.3789 H   0  0  0  0  0  0  0  0  0  0  0  0
   -4.2843    0.3385    1.6172 H   0  0  0  0  0  0  0  0  0  0  0  0
   -4.7826   -1.3479    1.4019 H   0  0  0  0  0  0  0  0  0  0  0  0
  1  2  1  0
  2  3  1  0
  3  4  1  0
  4  5  1  0
  5  6  1  0
  6  7  1  0
  7  8  1  0
  8  9  1  0
  9 10  1  0
 10 11  1  0
 11 12  1  0
 12 13  1  0
 13 14  1  0
 14 15  2  0
 15 16  1  0
 16 17  2  0
 17 18  1  0
 18 19  2  0
  9 20  1  0
 20 21  1  0
  5 22  1  0
 22  2  1  0
 21  6  1  0
 13 11  1  0
 19 14  1  0
  1 23  1  0
  1 24  1  0
  2 25  1  6
  3 26  1  0
  3 27  1  0
  4 28  1  0
  4 29  1  0
  6 30  1  0
  7 31  1  0
  7 32  1  0
  8 33  1  0
  8 34  1  0
  9 35  1  0
 10 36  1  0
 11 37  1  6
 12 38  1  0
 12 39  1  0
 13 40  1  1
 15 41  1  0
 16 42  1  0
 17 43  1  0
 18 44  1  0
 19 45  1  0
 20 46  1  0
 20 47  1  0
 21 48  1  0
 21 49  1  0
 22 50  1  0
 22 51  1  0
M  END
$$$$
