@<TRIPOS>MOLECULE
*****
 53 55 0 0 0
SMALL
GASTEIGER

@<TRIPOS>ATOM
      1 C          -6.3265   -1.1313    1.8616 C.3     1  UNL1       -0.0524
      2 C          -6.2180   -1.5481    0.4292 C.3     1  UNL1       -0.0039
      3 N          -5.1165   -0.9450   -0.2706 N.3     1  UNL1       -0.3025
      4 C          -3.8337   -1.3941    0.1812 C.3     1  UNL1        0.0006
      5 C          -2.7882   -1.0216   -0.8631 C.3     1  UNL1       -0.0175
      6 C          -3.2597    0.1890   -1.5887 C.3     1  UNL1        0.0845
      7 S          -2.0457    0.9431   -2.6045 S.O2    1  UNL1        0.0047
      8 O          -2.6834    2.1872   -3.2078 O.2     1  UNL1       -0.1689
      9 O          -1.7574    0.0229   -3.7563 O.2     1  UNL1       -0.1689
     10 C          -0.6276    1.4522   -1.7614 C.ar    1  UNL1        0.1497
     11 C          -0.5219    2.7186   -1.2280 C.ar    1  UNL1        0.0694
     12 CL         -1.8343    3.8828   -1.3906 Cl      1  UNL1       -0.0815
     13 C           0.6164    3.1103   -0.5545 C.ar    1  UNL1       -0.0395
     14 C           1.6915    2.2284   -0.3980 C.ar    1  UNL1       -0.0354
     15 C           1.6241    0.9541   -0.9171 C.ar    1  UNL1        0.0785
     16 N           2.6340   -0.0285   -0.8299 N.am    1  UNL1       -0.2661
     17 C           3.8788    0.1155   -0.2091 C.2     1  UNL1        0.3082
     18 O           4.1912    1.1873    0.3385 O.2     1  UNL1       -0.2521
     19 N           4.8327   -0.9864   -0.1919 N.am    1  UNL1       -0.2678
     20 C           6.0861   -0.8439    0.4323 C.ar    1  UNL1        0.0559
     21 C           6.1652   -1.1844    1.7865 C.ar    1  UNL1       -0.0388
     22 C           7.3360   -1.0782    2.4718 C.ar    1  UNL1       -0.0572
     23 C           8.4588   -0.6295    1.8247 C.ar    1  UNL1       -0.0249
     24 C           8.4128   -0.2864    0.4915 C.ar    1  UNL1        0.1434
     25 F           9.5381    0.1581   -0.1369 F       1  UNL1       -0.2039
     26 C           7.2143   -0.4027   -0.1815 C.ar    1  UNL1        0.0972
     27 CL          7.1413    0.0293   -1.8754 Cl      1  UNL1       -0.0786
     28 C           0.4436    0.6137   -1.5901 C.ar    1  UNL1        0.1644
     29 O           0.3180   -0.6564   -2.1344 O.3     1  UNL1       -0.5032
     30 C          -3.8852    1.1595   -0.5873 C.3     1  UNL1       -0.0175
     31 C          -5.1788    0.4943   -0.1052 C.3     1  UNL1        0.0006
     32 H          -6.8867   -0.1798    1.9078 H       1  UNL1        0.0242
     33 H          -5.3374   -1.0672    2.3727 H       1  UNL1        0.0242
     34 H          -6.8904   -1.9515    2.3913 H       1  UNL1        0.0242
     35 H          -7.1534   -1.1863   -0.0909 H       1  UNL1        0.0424
     36 H          -6.2429   -2.6508    0.3085 H       1  UNL1        0.0424
     37 H          -3.5969   -0.7999    1.1127 H       1  UNL1        0.0427
     38 H          -3.7950   -2.4803    0.4143 H       1  UNL1        0.0427
     39 H          -1.7911   -0.8645   -0.3853 H       1  UNL1        0.0296
     40 H          -2.7412   -1.8769   -1.5652 H       1  UNL1        0.0296
     41 H          -4.1086   -0.1055   -2.2447 H       1  UNL1        0.0541
     42 H           0.7484    4.0901   -0.1185 H       1  UNL1        0.0633
     43 H           2.5750    2.5513    0.1320 H       1  UNL1        0.0638
     44 H           2.4319   -0.9813   -1.2825 H       1  UNL1        0.1565
     45 H           4.5626   -1.8808   -0.6530 H       1  UNL1        0.1564
     46 H           5.2892   -1.5427    2.3224 H       1  UNL1        0.0637
     47 H           7.3915   -1.3471    3.5345 H       1  UNL1        0.0619
     48 H           9.3667   -0.5599    2.4041 H       1  UNL1        0.0647
     49 H           0.4296   -1.4426   -1.4985 H       1  UNL1        0.2923
     50 H          -3.2386    1.3562    0.2655 H       1  UNL1        0.0296
     51 H          -4.1818    2.0472   -1.1801 H       1  UNL1        0.0296
     52 H          -5.2982    0.6975    0.9775 H       1  UNL1        0.0427
     53 H          -6.0391    0.8651   -0.7001 H       1  UNL1        0.0427
@<TRIPOS>BOND
     1     1     2    1
     2     2     3    1
     3     3     4    1
     4     4     5    1
     5     5     6    1
     6     6     7    1
     7     7     8    2
     8     7     9    2
     9     7    10    1
    10    10    11   ar
    11    11    12    1
    12    11    13   ar
    13    13    14   ar
    14    14    15   ar
    15    15    16    1
    16    16    17   am
    17    17    18    2
    18    17    19   am
    19    19    20    1
    20    20    21   ar
    21    21    22   ar
    22    22    23   ar
    23    23    24   ar
    24    24    25    1
    25    24    26   ar
    26    26    27    1
    27    15    28   ar
    28    28    29    1
    29     6    30    1
    30    30    31    1
    31    31     3    1
    32    28    10   ar
    33    26    20   ar
    34     1    32    1
    35     1    33    1
    36     1    34    1
    37     2    35    1
    38     2    36    1
    39     4    37    1
    40     4    38    1
    41     5    39    1
    42     5    40    1
    43     6    41    1
    44    13    42    1
    45    14    43    1
    46    16    44    1
    47    19    45    1
    48    21    46    1
    49    22    47    1
    50    23    48    1
    51    29    49    1
    52    30    50    1
    53    30    51    1
    54    31    52    1
    55    31    53    1
