
     RDKit          3D

 53 55  0  0  0  0  0  0  0  0999 V2000
   -6.3265   -1.1313    1.8616 C   0  0  0  0  0  0  0  0  0  0  0  0
   -6.2180   -1.5481    0.4292 C   0  0  0  0  0  0  0  0  0  0  0  0
   -5.1165   -0.9450   -0.2706 N   0  0  0  0  0  0  0  0  0  0  0  0
   -3.8337   -1.3941    0.1812 C   0  0  0  0  0  0  0  0  0  0  0  0
   -2.7882   -1.0216   -0.8631 C   0  0  0  0  0  0  0  0  0  0  0  0
   -3.2597    0.1890   -1.5887 C   0  0  0  0  0  0  0  0  0  0  0  0
   -2.0457    0.9431   -2.6045 S   0  0  0  0  0  6  0  0  0  0  0  0
   -2.6834    2.1872   -3.2078 O   0  0  0  0  0  0  0  0  0  0  0  0
   -1.7574    0.0229   -3.7563 O   0  0  0  0  0  0  0  0  0  0  0  0
   -0.6276    1.4522   -1.7614 C   0  0  0  0  0  0  0  0  0  0  0  0
   -0.5219    2.7186   -1.2280 C   0  0  0  0  0  0  0  0  0  0  0  0
   -1.8343    3.8828   -1.3906 Cl  0  0  0  0  0  0  0  0  0  0  0  0
    0.6164    3.1103   -0.5545 C   0  0  0  0  0  0  0  0  0  0  0  0
    1.6915    2.2284   -0.3980 C   0  0  0  0  0  0  0  0  0  0  0  0
    1.6241    0.9541   -0.9171 C   0  0  0  0  0  0  0  0  0  0  0  0
    2.6340   -0.0285   -0.8299 N   0  0  0  0  0  0  0  0  0  0  0  0
    3.8788    0.1155   -0.2091 C   0  0  0  0  0  0  0  0  0  0  0  0
    4.1912    1.1873    0.3385 O   0  0  0  0  0  0  0  0  0  0  0  0
    4.8327   -0.9864   -0.1919 N   0  0  0  0  0  0  0  0  0  0  0  0
    6.0861   -0.8439    0.4323 C   0  0  0  0  0  0  0  0  0  0  0  0
    6.1652   -1.1844    1.7865 C   0  0  0  0  0  0  0  0  0  0  0  0
    7.3360   -1.0782    2.4718 C   0  0  0  0  0  0  0  0  0  0  0  0
    8.4588   -0.6295    1.8247 C   0  0  0  0  0  0  0  0  0  0  0  0
    8.4128   -0.2864    0.4915 C   0  0  0  0  0  0  0  0  0  0  0  0
    9.5381    0.1581   -0.1369 F   0  0  0  0  0  0  0  0  0  0  0  0
    7.2143   -0.4027   -0.1815 C   0  0  0  0  0  0  0  0  0  0  0  0
    7.1413    0.0293   -1.8754 Cl  0  0  0  0  0  0  0  0  0  0  0  0
    0.4436    0.6137   -1.5901 C   0  0  0  0  0  0  0  0  0  0  0  0
    0.3180   -0.6564   -2.1344 O   0  0  0  0  0  0  0  0  0  0  0  0
   -3.8852    1.1595   -0.5873 C   0  0  0  0  0  0  0  0  0  0  0  0
   -5.1788    0.4943   -0.1052 C   0  0  0  0  0  0  0  0  0  0  0  0
   -6.8867   -0.1798    1.9078 H   0  0  0  0  0  0  0  0  0  0  0  0
   -5.3374   -1.0672    2.3727 H   0  0  0  0  0  0  0  0  0  0  0  0
   -6.8904   -1.9515    2.3913 H   0  0  0  0  0  0  0  0  0  0  0  0
   -7.1534   -1.1863   -0.0909 H   0  0  0  0  0  0  0  0  0  0  0  0
   -6.2429   -2.6508    0.3085 H   0  0  0  0  0  0  0  0  0  0  0  0
   -3.5969   -0.7999    1.1127 H   0  0  0  0  0  0  0  0  0  0  0  0
   -3.7950   -2.4803    0.4143 H   0  0  0  0  0  0  0  0  0  0  0  0
   -1.7911   -0.8645   -0.3853 H   0  0  0  0  0  0  0  0  0  0  0  0
   -2.7412   -1.8769   -1.5652 H   0  0  0  0  0  0  0  0  0  0  0  0
   -4.1086   -0.1055   -2.2447 H   0  0  0  0  0  0  0  0  0  0  0  0
    0.7484    4.0901   -0.1185 H   0  0  0  0  0  0  0  0  0  0  0  0
    2.5750    2.5513    0.1320 H   0  0  0  0  0  0  0  0  0  0  0  0
    2.4319   -0.9813   -1.2825 H   0  0  0  0  0  0  0  0  0  0  0  0
    4.5626   -1.8808   -0.6530 H   0  0  0  0  0  0  0  0  0  0  0  0
    5.2892   -1.5427    2.3224 H   0  0  0  0  0  0  0  0  0  0  0  0
    7.3915   -1.3471    3.5345 H   0  0  0  0  0  0  0  0  0  0  0  0
    9.3667   -0.5599    2.4041 H   0  0  0  0  0  0  0  0  0  0  0  0
    0.4296   -1.4426   -1.4985 H   0  0  0  0  0  0  0  0  0  0  0  0
   -3.2386    1.3562    0.2655 H   0  0  0  0  0  0  0  0  0  0  0  0
   -4.1818    2.0472   -1.1801 H   0  0  0  0  0  0  0  0  0  0  0  0
   -5.2982    0.6975    0.9775 H   0  0  0  0  0  0  0  0  0  0  0  0
   -6.0391    0.8651   -0.7001 H   0  0  0  0  0  0  0  0  0  0  0  0
  1  2  1  0
  2  3  1  0
  3  4  1  0
  4  5  1  0
  5  6  1  0
  6  7  1  0
  7  8  2  0
  7  9  2  0
  7 10  1  0
 10 11  2  0
 11 12  1  0
 11 13  1  0
 13 14  2  0
 14 15  1  0
 15 16  1  0
 16 17  1  0
 17 18  2  0
 17 19  1  0
 19 20  1  0
 20 21  2  0
 21 22  1  0
 22 23  2  0
 23 24  1  0
 24 25  1  0
 24 26  2  0
 26 27  1  0
 15 28  2  0
 28 29  1  0
  6 30  1  0
 30 31  1  0
 31  3  1  0
 28 10  1  0
 26 20  1  0
  1 32  1  0
  1 33  1  0
  1 34  1  0
  2 35  1  0
  2 36  1  0
  4 37  1  0
  4 38  1  0
  5 39  1  0
  5 40  1  0
  6 41  1  0
 13 42  1  0
 14 43  1  0
 16 44  1  0
 19 45  1  0
 21 46  1  0
 22 47  1  0
 23 48  1  0
 29 49  1  0
 30 50  1  0
 30 51  1  0
 31 52  1  0
 31 53  1  0
M  END
$$$$
