
     RDKit          3D

 29 30  0  0  0  0  0  0  0  0999 V2000
   -4.2261    2.4720   -0.1203 C   0  0  0  0  0  0  0  0  0  0  0  0
   -3.6826    1.1334   -0.0399 N   0  0  0  0  0  0  0  0  0  0  0  0
   -4.1126   -0.0753    0.0728 N   0  0  0  0  0  0  0  0  0  0  0  0
   -3.1208   -0.9659    0.0989 C   0  0  0  0  0  0  0  0  0  0  0  0
   -1.9036   -0.3394   -0.0029 C   0  0  0  0  0  0  0  0  0  0  0  0
   -2.3283    1.0580   -0.0930 C   0  0  0  0  0  0  0  0  0  0  0  0
   -0.6278    1.8848   -0.2314 S   0  0  0  0  0  0  0  0  0  0  0  0
    0.3281    0.4186   -0.1591 C   0  0  0  0  0  0  0  0  0  0  0  0
   -0.5923   -0.6233   -0.0380 C   0  0  0  0  0  0  0  0  0  0  0  0
    1.7977    0.4810   -0.2279 C   0  0  0  0  0  0  0  0  0  0  0  0
    2.2440    1.6328   -0.3369 O   0  0  0  0  0  0  0  0  0  0  0  0
    2.6613   -0.6282   -0.1793 N   0  0  0  0  0  0  0  0  0  0  0  0
    4.0850   -0.8049   -0.2213 C   0  0  0  0  0  0  0  0  0  0  0  0
    4.8769   -0.1913    0.8720 C   0  0  0  0  0  0  0  0  0  0  0  0
    4.6810    1.5933    0.9012 S   0  0  0  0  0  0  0  0  0  0  0  0
   -3.3545   -2.4463    0.2239 C   0  0  0  0  0  0  0  0  0  0  0  0
   -2.7196   -2.9068    1.3848 F   0  0  0  0  0  0  0  0  0  0  0  0
   -4.6823   -2.7139    0.3787 F   0  0  0  0  0  0  0  0  0  0  0  0
   -2.8486   -3.1428   -0.8489 F   0  0  0  0  0  0  0  0  0  0  0  0
   -3.7363    3.1166   -0.8662 H   0  0  0  0  0  0  0  0  0  0  0  0
   -5.2768    2.3294   -0.5020 H   0  0  0  0  0  0  0  0  0  0  0  0
   -4.2858    2.9459    0.8789 H   0  0  0  0  0  0  0  0  0  0  0  0
   -0.1346   -1.5913    0.0174 H   0  0  0  0  0  0  0  0  0  0  0  0
    2.0490   -1.5020   -0.0903 H   0  0  0  0  0  0  0  0  0  0  0  0
    4.2704   -1.8919   -0.2270 H   0  0  0  0  0  0  0  0  0  0  0  0
    4.4365   -0.3641   -1.1932 H   0  0  0  0  0  0  0  0  0  0  0  0
    4.6011   -0.6595    1.8583 H   0  0  0  0  0  0  0  0  0  0  0  0
    5.9673   -0.4634    0.7394 H   0  0  0  0  0  0  0  0  0  0  0  0
    5.6344    2.2448    0.0814 H   0  0  0  0  0  0  0  0  0  0  0  0
  1  2  1  0
  2  3  1  0
  3  4  2  0
  4  5  1  0
  5  6  2  0
  6  7  1  0
  7  8  1  0
  8  9  2  0
  8 10  1  0
 10 11  2  0
 10 12  1  0
 12 13  1  0
 13 14  1  0
 14 15  1  0
  4 16  1  0
 16 17  1  0
 16 18  1  0
 16 19  1  0
  6  2  1  0
  9  5  1  0
  1 20  1  0
  1 21  1  0
  1 22  1  0
  9 23  1  0
 12 24  1  0
 13 25  1  0
 13 26  1  0
 14 27  1  0
 14 28  1  0
 15 29  1  0
M  END
$$$$
