@<TRIPOS>MOLECULE
*****
 48 50 0 0 0
SMALL
GASTEIGER

@<TRIPOS>ATOM
      1 C          -3.6504   -2.6129    3.0666 C.3     1  UNL1        0.0788
      2 O          -3.3873   -2.2041    1.7164 O.3     1  UNL1       -0.4948
      3 C          -2.1136   -1.7585    1.3940 C.ar    1  UNL1        0.1238
      4 C          -1.0985   -1.7002    2.3417 C.ar    1  UNL1       -0.0162
      5 C           0.1726   -1.2597    2.0356 C.ar    1  UNL1       -0.0165
      6 C           0.4805   -0.8562    0.7542 C.ar    1  UNL1        0.1215
      7 O           1.7569   -0.4248    0.4912 O.3     1  UNL1       -0.4874
      8 C           2.2281    0.0178   -0.7598 C.3     1  UNL1        0.1146
      9 C           3.6729    0.4138   -0.6730 C.ar    1  UNL1       -0.0104
     10 C           4.6967   -0.4964   -0.9016 C.ar    1  UNL1       -0.0546
     11 C           6.0227   -0.1264   -0.8170 C.ar    1  UNL1       -0.0474
     12 C           6.3766    1.1760   -0.4985 C.ar    1  UNL1        0.0589
     13 C           7.7910    1.5361   -0.4141 C.2     1  UNL1        0.3368
     14 O           8.1040    2.7167   -0.1257 O.2     1  UNL1       -0.2451
     15 O           8.7638    0.6010   -0.6452 O.3     1  UNL1       -0.4771
     16 C           5.3771    2.0852   -0.2705 C.ar    1  UNL1       -0.0474
     17 C           4.0581    1.6975   -0.3595 C.ar    1  UNL1       -0.0546
     18 C          -0.5179   -0.9096   -0.1954 C.ar    1  UNL1       -0.0130
     19 C          -1.7998   -1.3539    0.1151 C.ar    1  UNL1        0.0022
     20 C          -2.8666   -1.3992   -0.9341 C.3     1  UNL1        0.0058
     21 C          -3.8260   -0.2943   -0.7951 C.ar    1  UNL1        0.0148
     22 C          -5.1005   -0.4627   -0.2677 C.ar    1  UNL1        0.0379
     23 N          -5.9700    0.5438   -0.1422 N.ar    1  UNL1       -0.2227
     24 C          -5.6329    1.7705   -0.5286 C.ar    1  UNL1        0.2142
     25 N          -6.5775    2.8243   -0.3837 N.pl3   1  UNL1       -0.3274
     26 N          -4.4169    1.9898   -1.0444 N.ar    1  UNL1       -0.1999
     27 C          -3.5191    0.9933   -1.1830 C.ar    1  UNL1        0.1247
     28 N          -2.2673    1.3225   -1.7393 N.pl3   1  UNL1       -0.3428
     29 H          -3.3501   -1.7243    3.6957 H       1  UNL1        0.0660
     30 H          -2.9526   -3.4254    3.3539 H       1  UNL1        0.0660
     31 H          -4.7073   -2.8547    3.2075 H       1  UNL1        0.0660
     32 H          -1.3622   -2.0253    3.3564 H       1  UNL1        0.0655
     33 H           0.9156   -1.2429    2.8389 H       1  UNL1        0.0655
     34 H           2.1677   -0.8701   -1.4536 H       1  UNL1        0.0748
     35 H           1.6041    0.8127   -1.2181 H       1  UNL1        0.0748
     36 H           4.4365   -1.5036   -1.1489 H       1  UNL1        0.0622
     37 H           6.7784   -0.8769   -1.0052 H       1  UNL1        0.0626
     38 H           9.7420    0.8380   -0.8494 H       1  UNL1        0.2954
     39 H           5.6845    3.1042   -0.0216 H       1  UNL1        0.0626
     40 H           3.2765    2.4445   -0.1727 H       1  UNL1        0.0622
     41 H          -0.3258   -0.6025   -1.2325 H       1  UNL1        0.0658
     42 H          -2.3582   -1.3257   -1.9228 H       1  UNL1        0.0364
     43 H          -3.3652   -2.3946   -0.8568 H       1  UNL1        0.0364
     44 H          -5.4177   -1.4568    0.0595 H       1  UNL1        0.0834
     45 H          -6.8405    3.4325   -1.1863 H       1  UNL1        0.1452
     46 H          -7.0105    2.9826    0.5511 H       1  UNL1        0.1452
     47 H          -2.0914    1.0159   -2.7241 H       1  UNL1        0.1437
     48 H          -1.5801    1.8429   -1.1726 H       1  UNL1        0.1437
@<TRIPOS>BOND
     1     1     2    1
     2     2     3    1
     3     3     4   ar
     4     4     5   ar
     5     5     6   ar
     6     6     7    1
     7     7     8    1
     8     8     9    1
     9     9    10   ar
    10    10    11   ar
    11    11    12   ar
    12    12    13    1
    13    13    14    2
    14    13    15    1
    15    12    16   ar
    16    16    17   ar
    17     6    18   ar
    18    18    19   ar
    19    19    20    1
    20    20    21    1
    21    21    22   ar
    22    22    23   ar
    23    23    24   ar
    24    24    25    1
    25    24    26   ar
    26    26    27   ar
    27    27    28    1
    28    19     3   ar
    29    27    21   ar
    30    17     9   ar
    31     1    29    1
    32     1    30    1
    33     1    31    1
    34     4    32    1
    35     5    33    1
    36     8    34    1
    37     8    35    1
    38    10    36    1
    39    11    37    1
    40    15    38    1
    41    16    39    1
    42    17    40    1
    43    18    41    1
    44    20    42    1
    45    20    43    1
    46    22    44    1
    47    25    45    1
    48    25    46    1
    49    28    47    1
    50    28    48    1
