
     RDKit          3D

 48 50  0  0  0  0  0  0  0  0999 V2000
   -3.6504   -2.6129    3.0666 C   0  0  0  0  0  0  0  0  0  0  0  0
   -3.3873   -2.2041    1.7164 O   0  0  0  0  0  0  0  0  0  0  0  0
   -2.1136   -1.7585    1.3940 C   0  0  0  0  0  0  0  0  0  0  0  0
   -1.0985   -1.7002    2.3417 C   0  0  0  0  0  0  0  0  0  0  0  0
    0.1726   -1.2597    2.0356 C   0  0  0  0  0  0  0  0  0  0  0  0
    0.4805   -0.8562    0.7542 C   0  0  0  0  0  0  0  0  0  0  0  0
    1.7569   -0.4248    0.4912 O   0  0  0  0  0  0  0  0  0  0  0  0
    2.2281    0.0178   -0.7598 C   0  0  0  0  0  0  0  0  0  0  0  0
    3.6729    0.4138   -0.6730 C   0  0  0  0  0  0  0  0  0  0  0  0
    4.6967   -0.4964   -0.9016 C   0  0  0  0  0  0  0  0  0  0  0  0
    6.0227   -0.1264   -0.8170 C   0  0  0  0  0  0  0  0  0  0  0  0
    6.3766    1.1760   -0.4985 C   0  0  0  0  0  0  0  0  0  0  0  0
    7.7910    1.5361   -0.4141 C   0  0  0  0  0  0  0  0  0  0  0  0
    8.1040    2.7167   -0.1257 O   0  0  0  0  0  0  0  0  0  0  0  0
    8.7638    0.6010   -0.6452 O   0  0  0  0  0  0  0  0  0  0  0  0
    5.3771    2.0852   -0.2705 C   0  0  0  0  0  0  0  0  0  0  0  0
    4.0581    1.6975   -0.3595 C   0  0  0  0  0  0  0  0  0  0  0  0
   -0.5179   -0.9096   -0.1954 C   0  0  0  0  0  0  0  0  0  0  0  0
   -1.7998   -1.3539    0.1151 C   0  0  0  0  0  0  0  0  0  0  0  0
   -2.8666   -1.3992   -0.9341 C   0  0  0  0  0  0  0  0  0  0  0  0
   -3.8260   -0.2943   -0.7951 C   0  0  0  0  0  0  0  0  0  0  0  0
   -5.1005   -0.4627   -0.2677 C   0  0  0  0  0  0  0  0  0  0  0  0
   -5.9700    0.5438   -0.1422 N   0  0  0  0  0  0  0  0  0  0  0  0
   -5.6329    1.7705   -0.5286 C   0  0  0  0  0  0  0  0  0  0  0  0
   -6.5775    2.8243   -0.3837 N   0  0  0  0  0  0  0  0  0  0  0  0
   -4.4169    1.9898   -1.0444 N   0  0  0  0  0  0  0  0  0  0  0  0
   -3.5191    0.9933   -1.1830 C   0  0  0  0  0  0  0  0  0  0  0  0
   -2.2673    1.3225   -1.7393 N   0  0  0  0  0  0  0  0  0  0  0  0
   -3.3501   -1.7243    3.6957 H   0  0  0  0  0  0  0  0  0  0  0  0
   -2.9526   -3.4254    3.3539 H   0  0  0  0  0  0  0  0  0  0  0  0
   -4.7073   -2.8547    3.2075 H   0  0  0  0  0  0  0  0  0  0  0  0
   -1.3622   -2.0253    3.3564 H   0  0  0  0  0  0  0  0  0  0  0  0
    0.9156   -1.2429    2.8389 H   0  0  0  0  0  0  0  0  0  0  0  0
    2.1677   -0.8701   -1.4536 H   0  0  0  0  0  0  0  0  0  0  0  0
    1.6041    0.8127   -1.2181 H   0  0  0  0  0  0  0  0  0  0  0  0
    4.4365   -1.5036   -1.1489 H   0  0  0  0  0  0  0  0  0  0  0  0
    6.7784   -0.8769   -1.0052 H   0  0  0  0  0  0  0  0  0  0  0  0
    9.7420    0.8380   -0.8494 H   0  0  0  0  0  0  0  0  0  0  0  0
    5.6845    3.1042   -0.0216 H   0  0  0  0  0  0  0  0  0  0  0  0
    3.2765    2.4445   -0.1727 H   0  0  0  0  0  0  0  0  0  0  0  0
   -0.3258   -0.6025   -1.2325 H   0  0  0  0  0  0  0  0  0  0  0  0
   -2.3582   -1.3257   -1.9228 H   0  0  0  0  0  0  0  0  0  0  0  0
   -3.3652   -2.3946   -0.8568 H   0  0  0  0  0  0  0  0  0  0  0  0
   -5.4177   -1.4568    0.0595 H   0  0  0  0  0  0  0  0  0  0  0  0
   -6.8405    3.4325   -1.1863 H   0  0  0  0  0  0  0  0  0  0  0  0
   -7.0105    2.9826    0.5511 H   0  0  0  0  0  0  0  0  0  0  0  0
   -2.0914    1.0159   -2.7241 H   0  0  0  0  0  0  0  0  0  0  0  0
   -1.5801    1.8429   -1.1726 H   0  0  0  0  0  0  0  0  0  0  0  0
  1  2  1  0
  2  3  1  0
  3  4  2  0
  4  5  1  0
  5  6  2  0
  6  7  1  0
  7  8  1  0
  8  9  1  0
  9 10  2  0
 10 11  1  0
 11 12  2  0
 12 13  1  0
 13 14  2  0
 13 15  1  0
 12 16  1  0
 16 17  2  0
  6 18  1  0
 18 19  2  0
 19 20  1  0
 20 21  1  0
 21 22  2  0
 22 23  1  0
 23 24  2  0
 24 25  1  0
 24 26  1  0
 26 27  2  0
 27 28  1  0
 19  3  1  0
 27 21  1  0
 17  9  1  0
  1 29  1  0
  1 30  1  0
  1 31  1  0
  4 32  1  0
  5 33  1  0
  8 34  1  0
  8 35  1  0
 10 36  1  0
 11 37  1  0
 15 38  1  0
 16 39  1  0
 17 40  1  0
 18 41  1  0
 20 42  1  0
 20 43  1  0
 22 44  1  0
 25 45  1  0
 25 46  1  0
 28 47  1  0
 28 48  1  0
M  END
$$$$
