
     RDKit          3D

 43 45  0  0  0  0  0  0  0  0999 V2000
   -1.4115    3.1276    2.4006 C   0  0  0  0  0  0  0  0  0  0  0  0
   -2.1573    2.0247    1.9274 O   0  0  0  0  0  0  0  0  0  0  0  0
   -1.5760    1.3094    0.8601 C   0  0  0  0  0  0  0  0  0  0  0  0
   -0.3628    1.6602    0.3147 C   0  0  0  0  0  0  0  0  0  0  0  0
    0.2299    0.9618   -0.7452 C   0  0  0  0  0  0  0  0  0  0  0  0
    1.5346    1.4290   -1.2702 C   0  0  0  0  0  0  0  0  0  0  0  0
    2.7044    0.9625   -0.5416 C   0  0  0  0  0  0  0  0  0  0  0  0
    3.3142    1.8282    0.3451 C   0  0  0  0  0  0  0  0  0  0  0  0
    4.3727    1.4169    1.0260 N   0  0  0  0  0  0  0  0  0  0  0  0
    4.8955    0.1779    0.8975 C   0  0  0  0  0  0  0  0  0  0  0  0
    6.0336   -0.2043    1.6582 N   0  0  0  0  0  0  0  0  0  0  0  0
    4.2920   -0.6444    0.0350 N   0  0  0  0  0  0  0  0  0  0  0  0
    3.2126   -0.2918   -0.6896 C   0  0  0  0  0  0  0  0  0  0  0  0
    2.6397   -1.2446   -1.6063 N   0  0  0  0  0  0  0  0  0  0  0  0
   -0.4586   -0.1153   -1.2361 C   0  0  0  0  0  0  0  0  0  0  0  0
   -1.6835   -0.5172   -0.7285 C   0  0  0  0  0  0  0  0  0  0  0  0
   -2.2195    0.2175    0.3238 C   0  0  0  0  0  0  0  0  0  0  0  0
   -3.4720   -0.1589    0.8710 N   0  0  0  0  0  0  0  0  0  0  0  0
   -3.9568   -1.5063    0.5790 C   0  0  0  0  0  0  0  0  0  0  0  0
   -3.8337   -1.7101   -0.9180 C   0  0  0  0  0  0  0  0  0  0  0  0
   -2.3562   -1.6956   -1.3198 C   0  0  0  0  0  0  0  0  0  0  0  0
   -1.7350   -2.9990   -0.8700 C   0  0  0  0  0  0  0  0  0  0  0  0
   -1.9424    3.6707    3.2130 H   0  0  0  0  0  0  0  0  0  0  0  0
   -0.4240    2.7493    2.7506 H   0  0  0  0  0  0  0  0  0  0  0  0
   -1.1913    3.8224    1.5707 H   0  0  0  0  0  0  0  0  0  0  0  0
    0.1530    2.5285    0.7409 H   0  0  0  0  0  0  0  0  0  0  0  0
    1.5416    1.1328   -2.3547 H   0  0  0  0  0  0  0  0  0  0  0  0
    1.5203    2.5427   -1.2778 H   0  0  0  0  0  0  0  0  0  0  0  0
    2.9094    2.8343    0.4655 H   0  0  0  0  0  0  0  0  0  0  0  0
    6.3779   -1.1744    1.5725 H   0  0  0  0  0  0  0  0  0  0  0  0
    6.4823    0.4880    2.2691 H   0  0  0  0  0  0  0  0  0  0  0  0
    2.2898   -0.9271   -2.5304 H   0  0  0  0  0  0  0  0  0  0  0  0
    2.6009   -2.2223   -1.3043 H   0  0  0  0  0  0  0  0  0  0  0  0
   -0.0282   -0.6675   -2.0550 H   0  0  0  0  0  0  0  0  0  0  0  0
   -4.0589    0.4596    1.4596 H   0  0  0  0  0  0  0  0  0  0  0  0
   -3.4012   -2.2660    1.1676 H   0  0  0  0  0  0  0  0  0  0  0  0
   -5.0325   -1.6267    0.8337 H   0  0  0  0  0  0  0  0  0  0  0  0
   -4.3133   -0.8595   -1.4131 H   0  0  0  0  0  0  0  0  0  0  0  0
   -4.2588   -2.6998   -1.1972 H   0  0  0  0  0  0  0  0  0  0  0  0
   -2.3105   -1.6870   -2.4334 H   0  0  0  0  0  0  0  0  0  0  0  0
   -1.5577   -3.0293    0.2164 H   0  0  0  0  0  0  0  0  0  0  0  0
   -0.8536   -3.2993   -1.4737 H   0  0  0  0  0  0  0  0  0  0  0  0
   -2.5089   -3.7972   -1.0759 H   0  0  0  0  0  0  0  0  0  0  0  0
  1  2  1  0
  2  3  1  0
  3  4  2  0
  4  5  1  0
  5  6  1  0
  6  7  1  0
  7  8  2  0
  8  9  1  0
  9 10  2  0
 10 11  1  0
 10 12  1  0
 12 13  2  0
 13 14  1  0
  5 15  2  0
 15 16  1  0
 16 17  2  0
 17 18  1  0
 18 19  1  0
 19 20  1  0
 20 21  1  0
 21 22  1  0
 17  3  1  0
 13  7  1  0
 21 16  1  0
  1 23  1  0
  1 24  1  0
  1 25  1  0
  4 26  1  0
  6 27  1  0
  6 28  1  0
  8 29  1  0
 11 30  1  0
 11 31  1  0
 14 32  1  0
 14 33  1  0
 15 34  1  0
 18 35  1  0
 19 36  1  0
 19 37  1  0
 20 38  1  0
 20 39  1  0
 21 40  1  0
 22 41  1  0
 22 42  1  0
 22 43  1  0
M  END
$$$$
