@<TRIPOS>MOLECULE
*****
 43 45 0 0 0
SMALL
GASTEIGER

@<TRIPOS>ATOM
      1 C          -1.4115    3.1276    2.4006 C.3     1  UNL1        0.0789
      2 O          -2.1573    2.0247    1.9274 O.3     1  UNL1       -0.4932
      3 C          -1.5760    1.3094    0.8601 C.ar    1  UNL1        0.1414
      4 C          -0.3628    1.6602    0.3147 C.ar    1  UNL1       -0.0146
      5 C           0.2299    0.9618   -0.7452 C.ar    1  UNL1       -0.0391
      6 C           1.5346    1.4290   -1.2702 C.3     1  UNL1        0.0024
      7 C           2.7044    0.9625   -0.5416 C.ar    1  UNL1        0.0146
      8 C           3.3142    1.8282    0.3451 C.ar    1  UNL1        0.0379
      9 N           4.3727    1.4169    1.0260 N.ar    1  UNL1       -0.2227
     10 C           4.8955    0.1779    0.8975 C.ar    1  UNL1        0.2142
     11 N           6.0336   -0.2043    1.6582 N.pl3   1  UNL1       -0.3274
     12 N           4.2920   -0.6444    0.0350 N.ar    1  UNL1       -0.1999
     13 C           3.2126   -0.2918   -0.6896 C.ar    1  UNL1        0.1247
     14 N           2.6397   -1.2446   -1.6063 N.pl3   1  UNL1       -0.3428
     15 C          -0.4586   -0.1153   -1.2361 C.ar    1  UNL1       -0.0528
     16 C          -1.6835   -0.5172   -0.7285 C.ar    1  UNL1       -0.0198
     17 C          -2.2195    0.2175    0.3238 C.ar    1  UNL1        0.0729
     18 N          -3.4720   -0.1589    0.8710 N.pl3   1  UNL1       -0.3408
     19 C          -3.9568   -1.5063    0.5790 C.3     1  UNL1        0.0098
     20 C          -3.8337   -1.7101   -0.9180 C.3     1  UNL1       -0.0308
     21 C          -2.3562   -1.6956   -1.3198 C.3     1  UNL1       -0.0154
     22 C          -1.7350   -2.9990   -0.8700 C.3     1  UNL1       -0.0583
     23 H          -1.9424    3.6707    3.2130 H       1  UNL1        0.0660
     24 H          -0.4240    2.7493    2.7506 H       1  UNL1        0.0660
     25 H          -1.1913    3.8224    1.5707 H       1  UNL1        0.0660
     26 H           0.1530    2.5285    0.7409 H       1  UNL1        0.0657
     27 H           1.5416    1.1328   -2.3547 H       1  UNL1        0.0363
     28 H           1.5203    2.5427   -1.2778 H       1  UNL1        0.0363
     29 H           2.9094    2.8343    0.4655 H       1  UNL1        0.0834
     30 H           6.3779   -1.1744    1.5725 H       1  UNL1        0.1452
     31 H           6.4823    0.4880    2.2691 H       1  UNL1        0.1452
     32 H           2.2898   -0.9271   -2.5304 H       1  UNL1        0.1437
     33 H           2.6009   -2.2223   -1.3043 H       1  UNL1        0.1437
     34 H          -0.0282   -0.6675   -2.0550 H       1  UNL1        0.0624
     35 H          -4.0589    0.4596    1.4596 H       1  UNL1        0.1462
     36 H          -3.4012   -2.2660    1.1676 H       1  UNL1        0.0461
     37 H          -5.0325   -1.6267    0.8337 H       1  UNL1        0.0461
     38 H          -4.3133   -0.8595   -1.4131 H       1  UNL1        0.0286
     39 H          -4.2588   -2.6998   -1.1972 H       1  UNL1        0.0286
     40 H          -2.3105   -1.6870   -2.4334 H       1  UNL1        0.0347
     41 H          -1.5577   -3.0293    0.2164 H       1  UNL1        0.0236
     42 H          -0.8536   -3.2993   -1.4737 H       1  UNL1        0.0236
     43 H          -2.5089   -3.7972   -1.0759 H       1  UNL1        0.0236
@<TRIPOS>BOND
     1     1     2    1
     2     2     3    1
     3     3     4   ar
     4     4     5   ar
     5     5     6    1
     6     6     7    1
     7     7     8   ar
     8     8     9   ar
     9     9    10   ar
    10    10    11    1
    11    10    12   ar
    12    12    13   ar
    13    13    14    1
    14     5    15   ar
    15    15    16   ar
    16    16    17   ar
    17    17    18    1
    18    18    19    1
    19    19    20    1
    20    20    21    1
    21    21    22    1
    22    17     3   ar
    23    13     7   ar
    24    21    16    1
    25     1    23    1
    26     1    24    1
    27     1    25    1
    28     4    26    1
    29     6    27    1
    30     6    28    1
    31     8    29    1
    32    11    30    1
    33    11    31    1
    34    14    32    1
    35    14    33    1
    36    15    34    1
    37    18    35    1
    38    19    36    1
    39    19    37    1
    40    20    38    1
    41    20    39    1
    42    21    40    1
    43    22    41    1
    44    22    42    1
    45    22    43    1
