@<TRIPOS>MOLECULE
*****
 51 54 0 0 0
SMALL
GASTEIGER

@<TRIPOS>ATOM
      1 C          -5.5456   -0.8949    1.3374 C.3     1  UNL1       -0.0306
      2 C          -5.4629   -0.5930   -0.1434 C.3     1  UNL1        0.0897
      3 O          -4.1602   -1.0265   -0.5675 O.3     1  UNL1       -0.4644
      4 C          -3.0152   -0.4952   -0.0235 C.2     1  UNL1        0.3167
      5 O          -3.1054    0.3798    0.8551 O.2     1  UNL1       -0.2501
      6 C          -1.6539   -0.9380   -0.4564 C.3     1  UNL1        0.1053
      7 C          -1.4203   -0.7636   -1.8695 C.2     1  UNL1        0.0328
      8 C          -2.5825   -0.9271   -2.8188 C.3     1  UNL1       -0.0254
      9 N          -0.2801   -0.4782   -2.3532 N.2     1  UNL1       -0.2362
     10 C           0.8552   -0.2997   -1.4952 C.ar    1  UNL1        0.1583
     11 N           2.0891   -0.1308   -2.0183 N.ar    1  UNL1       -0.2322
     12 C           3.1899   -0.0781   -1.2496 C.ar    1  UNL1        0.0486
     13 C           3.0700   -0.1999    0.1285 C.ar    1  UNL1       -0.0050
     14 C           1.8420   -0.3705    0.7094 C.ar    1  UNL1        0.0369
     15 N           1.6901   -0.5003    2.1099 N.pl3   1  UNL1       -0.3574
     16 C           0.7283   -0.4154   -0.1432 C.ar    1  UNL1        0.0262
     17 C          -0.6181   -0.4638    0.4704 C.3     1  UNL1        0.0340
     18 C          -0.8540    0.9120    0.9875 C.ar    1  UNL1       -0.0206
     19 C          -1.0321    1.9708    0.1357 C.ar    1  UNL1       -0.0551
     20 C          -1.2533    3.2342    0.6669 C.ar    1  UNL1       -0.0433
     21 C          -1.2942    3.4272    2.0351 C.ar    1  UNL1        0.0276
     22 N          -1.1185    2.3832    2.8504 N.ar    1  UNL1       -0.2630
     23 C          -0.9010    1.1401    2.3348 C.ar    1  UNL1        0.0313
     24 C           4.3127   -0.1386    0.9363 C.3     1  UNL1       -0.0242
     25 C           5.3359   -1.0012    0.2260 C.3     1  UNL1       -0.0486
     26 C           5.6422   -0.5400   -1.1603 C.3     1  UNL1       -0.0473
     27 C           4.5077    0.1083   -1.8795 C.3     1  UNL1       -0.0100
     28 H          -6.4294   -1.5333    1.5459 H       1  UNL1        0.0262
     29 H          -5.6489    0.0264    1.9445 H       1  UNL1        0.0262
     30 H          -4.6668   -1.4566    1.7117 H       1  UNL1        0.0262
     31 H          -6.2544   -1.0979   -0.6941 H       1  UNL1        0.0694
     32 H          -5.5375    0.5206   -0.2592 H       1  UNL1        0.0694
     33 H          -1.6403   -2.0983   -0.3185 H       1  UNL1        0.0484
     34 H          -2.9433   -1.9748   -2.7900 H       1  UNL1        0.0290
     35 H          -2.2465   -0.7577   -3.8766 H       1  UNL1        0.0290
     36 H          -3.3631   -0.1824   -2.6169 H       1  UNL1        0.0290
     37 H           1.1451   -1.3118    2.4778 H       1  UNL1        0.1423
     38 H           2.0848    0.1589    2.8034 H       1  UNL1        0.1423
     39 H          -0.5793   -1.1151    1.4007 H       1  UNL1        0.0411
     40 H          -0.9954    1.7887   -0.9179 H       1  UNL1        0.0621
     41 H          -1.3919    4.0589   -0.0214 H       1  UNL1        0.0633
     42 H          -1.4663    4.4110    2.4543 H       1  UNL1        0.0829
     43 H          -0.7716    0.3441    3.0834 H       1  UNL1        0.0832
     44 H           4.1799   -0.5730    1.9479 H       1  UNL1        0.0314
     45 H           4.6181    0.9000    1.0543 H       1  UNL1        0.0314
     46 H           6.2670   -0.9426    0.8269 H       1  UNL1        0.0269
     47 H           4.9737   -2.0458    0.2664 H       1  UNL1        0.0269
     48 H           5.9283   -1.4548   -1.7572 H       1  UNL1        0.0269
     49 H           6.5676    0.0849   -1.1571 H       1  UNL1        0.0269
     50 H           4.7642    1.1998   -1.9822 H       1  UNL1        0.0328
     51 H           4.4403   -0.2500   -2.9482 H       1  UNL1        0.0328
@<TRIPOS>BOND
     1     1     2    1
     2     2     3    1
     3     3     4    1
     4     4     5    2
     5     4     6    1
     6     6     7    1
     7     7     8    1
     8     7     9    2
     9     9    10    1
    10    10    11   ar
    11    11    12   ar
    12    12    13   ar
    13    13    14   ar
    14    14    15    1
    15    14    16   ar
    16    16    17    1
    17    17    18    1
    18    18    19   ar
    19    19    20   ar
    20    20    21   ar
    21    21    22   ar
    22    22    23   ar
    23    13    24    1
    24    24    25    1
    25    25    26    1
    26    26    27    1
    27    17     6    1
    28    23    18   ar
    29    16    10   ar
    30    27    12    1
    31     1    28    1
    32     1    29    1
    33     1    30    1
    34     2    31    1
    35     2    32    1
    36     6    33    1
    37     8    34    1
    38     8    35    1
    39     8    36    1
    40    15    37    1
    41    15    38    1
    42    17    39    1
    43    19    40    1
    44    20    41    1
    45    21    42    1
    46    23    43    1
    47    24    44    1
    48    24    45    1
    49    25    46    1
    50    25    47    1
    51    26    48    1
    52    26    49    1
    53    27    50    1
    54    27    51    1
