
     RDKit          3D

 51 54  0  0  0  0  0  0  0  0999 V2000
   -5.5456   -0.8949    1.3374 C   0  0  0  0  0  0  0  0  0  0  0  0
   -5.4629   -0.5930   -0.1434 C   0  0  0  0  0  0  0  0  0  0  0  0
   -4.1602   -1.0265   -0.5675 O   0  0  0  0  0  0  0  0  0  0  0  0
   -3.0152   -0.4952   -0.0235 C   0  0  0  0  0  0  0  0  0  0  0  0
   -3.1054    0.3798    0.8551 O   0  0  0  0  0  0  0  0  0  0  0  0
   -1.6539   -0.9380   -0.4564 C   0  0  0  0  0  0  0  0  0  0  0  0
   -1.4203   -0.7636   -1.8695 C   0  0  0  0  0  0  0  0  0  0  0  0
   -2.5825   -0.9271   -2.8188 C   0  0  0  0  0  0  0  0  0  0  0  0
   -0.2801   -0.4782   -2.3532 N   0  0  0  0  0  0  0  0  0  0  0  0
    0.8552   -0.2997   -1.4952 C   0  0  0  0  0  0  0  0  0  0  0  0
    2.0891   -0.1308   -2.0183 N   0  0  0  0  0  0  0  0  0  0  0  0
    3.1899   -0.0781   -1.2496 C   0  0  0  0  0  0  0  0  0  0  0  0
    3.0700   -0.1999    0.1285 C   0  0  0  0  0  0  0  0  0  0  0  0
    1.8420   -0.3705    0.7094 C   0  0  0  0  0  0  0  0  0  0  0  0
    1.6901   -0.5003    2.1099 N   0  0  0  0  0  0  0  0  0  0  0  0
    0.7283   -0.4154   -0.1432 C   0  0  0  0  0  0  0  0  0  0  0  0
   -0.6181   -0.4638    0.4704 C   0  0  0  0  0  0  0  0  0  0  0  0
   -0.8540    0.9120    0.9875 C   0  0  0  0  0  0  0  0  0  0  0  0
   -1.0321    1.9708    0.1357 C   0  0  0  0  0  0  0  0  0  0  0  0
   -1.2533    3.2342    0.6669 C   0  0  0  0  0  0  0  0  0  0  0  0
   -1.2942    3.4272    2.0351 C   0  0  0  0  0  0  0  0  0  0  0  0
   -1.1185    2.3832    2.8504 N   0  0  0  0  0  0  0  0  0  0  0  0
   -0.9010    1.1401    2.3348 C   0  0  0  0  0  0  0  0  0  0  0  0
    4.3127   -0.1386    0.9363 C   0  0  0  0  0  0  0  0  0  0  0  0
    5.3359   -1.0012    0.2260 C   0  0  0  0  0  0  0  0  0  0  0  0
    5.6422   -0.5400   -1.1603 C   0  0  0  0  0  0  0  0  0  0  0  0
    4.5077    0.1083   -1.8795 C   0  0  0  0  0  0  0  0  0  0  0  0
   -6.4294   -1.5333    1.5459 H   0  0  0  0  0  0  0  0  0  0  0  0
   -5.6489    0.0264    1.9445 H   0  0  0  0  0  0  0  0  0  0  0  0
   -4.6668   -1.4566    1.7117 H   0  0  0  0  0  0  0  0  0  0  0  0
   -6.2544   -1.0979   -0.6941 H   0  0  0  0  0  0  0  0  0  0  0  0
   -5.5375    0.5206   -0.2592 H   0  0  0  0  0  0  0  0  0  0  0  0
   -1.6403   -2.0983   -0.3185 H   0  0  0  0  0  0  0  0  0  0  0  0
   -2.9433   -1.9748   -2.7900 H   0  0  0  0  0  0  0  0  0  0  0  0
   -2.2465   -0.7577   -3.8766 H   0  0  0  0  0  0  0  0  0  0  0  0
   -3.3631   -0.1824   -2.6169 H   0  0  0  0  0  0  0  0  0  0  0  0
    1.1451   -1.3118    2.4778 H   0  0  0  0  0  0  0  0  0  0  0  0
    2.0848    0.1589    2.8034 H   0  0  0  0  0  0  0  0  0  0  0  0
   -0.5793   -1.1151    1.4007 H   0  0  0  0  0  0  0  0  0  0  0  0
   -0.9954    1.7887   -0.9179 H   0  0  0  0  0  0  0  0  0  0  0  0
   -1.3919    4.0589   -0.0214 H   0  0  0  0  0  0  0  0  0  0  0  0
   -1.4663    4.4110    2.4543 H   0  0  0  0  0  0  0  0  0  0  0  0
   -0.7716    0.3441    3.0834 H   0  0  0  0  0  0  0  0  0  0  0  0
    4.1799   -0.5730    1.9479 H   0  0  0  0  0  0  0  0  0  0  0  0
    4.6181    0.9000    1.0543 H   0  0  0  0  0  0  0  0  0  0  0  0
    6.2670   -0.9426    0.8269 H   0  0  0  0  0  0  0  0  0  0  0  0
    4.9737   -2.0458    0.2664 H   0  0  0  0  0  0  0  0  0  0  0  0
    5.9283   -1.4548   -1.7572 H   0  0  0  0  0  0  0  0  0  0  0  0
    6.5676    0.0849   -1.1571 H   0  0  0  0  0  0  0  0  0  0  0  0
    4.7642    1.1998   -1.9822 H   0  0  0  0  0  0  0  0  0  0  0  0
    4.4403   -0.2500   -2.9482 H   0  0  0  0  0  0  0  0  0  0  0  0
  1  2  1  0
  2  3  1  0
  3  4  1  0
  4  5  2  0
  4  6  1  0
  6  7  1  0
  7  8  1  0
  7  9  2  0
  9 10  1  0
 10 11  2  0
 11 12  1  0
 12 13  2  0
 13 14  1  0
 14 15  1  0
 14 16  2  0
 16 17  1  0
 17 18  1  0
 18 19  2  0
 19 20  1  0
 20 21  2  0
 21 22  1  0
 22 23  2  0
 13 24  1  0
 24 25  1  0
 25 26  1  0
 26 27  1  0
 17  6  1  0
 23 18  1  0
 16 10  1  0
 27 12  1  0
  1 28  1  0
  1 29  1  0
  1 30  1  0
  2 31  1  0
  2 32  1  0
  6 33  1  0
  8 34  1  0
  8 35  1  0
  8 36  1  0
 15 37  1  0
 15 38  1  0
 17 39  1  0
 19 40  1  0
 20 41  1  0
 21 42  1  0
 23 43  1  0
 24 44  1  0
 24 45  1  0
 25 46  1  0
 25 47  1  0
 26 48  1  0
 26 49  1  0
 27 50  1  0
 27 51  1  0
M  END
$$$$
