@<TRIPOS>MOLECULE
*****
 76 79 0 0 0
SMALL
GASTEIGER

@<TRIPOS>ATOM
      1 C          -0.3525    3.0475   -1.4417 C.3     1  UNL1       -0.0573
      2 C          -0.2539    2.3476   -0.1098 C.3     1  UNL1       -0.0054
      3 C          -0.8417    3.0896    1.0439 C.3     1  UNL1       -0.0573
      4 C          -0.6196    0.9036   -0.1693 C.ar    1  UNL1        0.0345
      5 C          -1.8439    0.3617   -0.0124 C.ar    1  UNL1        0.0662
      6 C          -3.1684    0.9142    0.1628 C.2     1  UNL1        0.2506
      7 O          -4.0744    0.1566    0.6958 O.2     1  UNL1       -0.2698
      8 N          -3.6334    2.1911   -0.1748 N.am    1  UNL1       -0.2814
      9 C          -4.9396    2.7206    0.0120 C.ar    1  UNL1        0.0337
     10 C          -6.0320    2.0458    0.4788 C.ar    1  UNL1       -0.0405
     11 C          -7.2844    2.6571    0.6510 C.ar    1  UNL1       -0.0600
     12 C          -7.4568    3.9868    0.3480 C.ar    1  UNL1       -0.0616
     13 C          -6.3781    4.6813   -0.1208 C.ar    1  UNL1       -0.0600
     14 C          -5.1718    4.0792   -0.2832 C.ar    1  UNL1       -0.0405
     15 C          -1.6336   -1.0240   -0.1156 C.ar    1  UNL1        0.0200
     16 C          -2.6639   -2.0388   -0.0110 C.ar    1  UNL1       -0.0151
     17 C          -3.7374   -2.0829   -0.8686 C.ar    1  UNL1       -0.0539
     18 C          -4.7172   -3.0748   -0.7523 C.ar    1  UNL1       -0.0612
     19 C          -4.6219   -4.0310    0.2306 C.ar    1  UNL1       -0.0617
     20 C          -3.5521   -3.9884    1.0862 C.ar    1  UNL1       -0.0612
     21 C          -2.6006   -3.0212    0.9698 C.ar    1  UNL1       -0.0539
     22 C          -0.2966   -1.2623   -0.3316 C.ar    1  UNL1        0.0578
     23 C           0.2749   -2.6158   -0.4990 C.ar    1  UNL1       -0.0007
     24 C           0.0490   -3.2562   -1.7036 C.ar    1  UNL1       -0.0499
     25 C           0.5555   -4.5394   -1.9040 C.ar    1  UNL1       -0.0258
     26 C           1.2804   -5.1997   -0.9360 C.ar    1  UNL1        0.1234
     27 F           1.7671   -6.4579   -1.1525 F       1  UNL1       -0.2055
     28 C           1.4927   -4.5398    0.2579 C.ar    1  UNL1       -0.0258
     29 C           0.9897   -3.2663    0.4564 C.ar    1  UNL1       -0.0499
     30 N           0.3261   -0.0939   -0.3658 N.ar    1  UNL1       -0.3422
     31 C           1.7366    0.0996   -0.5856 C.3     1  UNL1        0.0259
     32 C           2.5698    0.0914    0.6729 C.3     1  UNL1       -0.0087
     33 C           4.0077    0.3297    0.2137 C.3     1  UNL1        0.0592
     34 O           3.9970    1.5692   -0.4317 O.3     1  UNL1       -0.3916
     35 C           4.9704    0.3115    1.3641 C.3     1  UNL1       -0.0002
     36 C           6.3673    0.5601    0.8429 C.3     1  UNL1        0.0676
     37 O           7.2934    0.5528    1.9016 O.3     1  UNL1       -0.3912
     38 C           6.8090   -0.4764   -0.1686 C.3     1  UNL1        0.0708
     39 C           8.1810   -0.1601   -0.6276 C.2     1  UNL1        0.3072
     40 O           8.7628   -0.9074   -1.4519 O.2     1  UNL1       -0.2509
     41 O           8.8278    0.9566   -0.1532 O.3     1  UNL1       -0.4806
     42 H          -0.8860    4.0193   -1.2588 H       1  UNL1        0.0236
     43 H          -1.0192    2.4463   -2.1191 H       1  UNL1        0.0236
     44 H           0.6035    3.2456   -1.9322 H       1  UNL1        0.0236
     45 H           0.8847    2.3771    0.0952 H       1  UNL1        0.0358
     46 H          -1.5314    2.4435    1.6512 H       1  UNL1        0.0236
     47 H          -1.3902    4.0258    0.7259 H       1  UNL1        0.0236
     48 H          -0.0951    3.4580    1.7783 H       1  UNL1        0.0236
     49 H          -2.9507    2.8354   -0.6547 H       1  UNL1        0.1551
     50 H          -5.9970    1.0122    0.7343 H       1  UNL1        0.0636
     51 H          -8.1248    2.0611    1.0303 H       1  UNL1        0.0618
     52 H          -8.4395    4.4567    0.4863 H       1  UNL1        0.0618
     53 H          -6.5097    5.7441   -0.3644 H       1  UNL1        0.0618
     54 H          -4.3429    4.6828   -0.6607 H       1  UNL1        0.0636
     55 H          -3.8336   -1.3439   -1.6464 H       1  UNL1        0.0624
     56 H          -5.5549   -3.1135   -1.4172 H       1  UNL1        0.0618
     57 H          -5.3637   -4.8134    0.3486 H       1  UNL1        0.0618
     58 H          -3.4508   -4.7351    1.8756 H       1  UNL1        0.0618
     59 H          -1.7539   -2.9839    1.6434 H       1  UNL1        0.0624
     60 H          -0.5111   -2.7525   -2.4591 H       1  UNL1        0.0625
     61 H           0.3853   -5.0470   -2.8369 H       1  UNL1        0.0646
     62 H           2.0602   -5.0568    1.0155 H       1  UNL1        0.0646
     63 H           1.1709   -2.7836    1.4060 H       1  UNL1        0.0625
     64 H           2.1126   -0.7014   -1.2940 H       1  UNL1        0.0493
     65 H           1.9323    1.0895   -1.0776 H       1  UNL1        0.0493
     66 H           2.5843   -0.9007    1.1784 H       1  UNL1        0.0307
     67 H           2.2159    0.8948    1.3320 H       1  UNL1        0.0307
     68 H           4.2107   -0.4542   -0.5354 H       1  UNL1        0.0594
     69 H           3.3573    2.1595    0.0638 H       1  UNL1        0.2098
     70 H           4.9647   -0.7466    1.7586 H       1  UNL1        0.0315
     71 H           4.7140    1.0002    2.1663 H       1  UNL1        0.0315
     72 H           6.4499    1.5401    0.3388 H       1  UNL1        0.0599
     73 H           7.0145    1.1811    2.6181 H       1  UNL1        0.2098
     74 H           6.1561   -0.4514   -1.0812 H       1  UNL1        0.0403
     75 H           6.7410   -1.4979    0.2447 H       1  UNL1        0.0403
     76 H           9.8124    1.0915   -0.1709 H       1  UNL1        0.2951
@<TRIPOS>BOND
     1     1     2    1
     2     2     3    1
     3     2     4    1
     4     4     5   ar
     5     5     6    1
     6     6     7    2
     7     6     8   am
     8     8     9    1
     9     9    10   ar
    10    10    11   ar
    11    11    12   ar
    12    12    13   ar
    13    13    14   ar
    14     5    15   ar
    15    15    16    1
    16    16    17   ar
    17    17    18   ar
    18    18    19   ar
    19    19    20   ar
    20    20    21   ar
    21    15    22   ar
    22    22    23    1
    23    23    24   ar
    24    24    25   ar
    25    25    26   ar
    26    26    27    1
    27    26    28   ar
    28    28    29   ar
    29    22    30   ar
    30    30    31    1
    31    31    32    1
    32    32    33    1
    33    33    34    1
    34    33    35    1
    35    35    36    1
    36    36    37    1
    37    36    38    1
    38    38    39    1
    39    39    40    2
    40    39    41    1
    41    30     4   ar
    42    14     9   ar
    43    21    16   ar
    44    29    23   ar
    45     1    42    1
    46     1    43    1
    47     1    44    1
    48     2    45    1
    49     3    46    1
    50     3    47    1
    51     3    48    1
    52     8    49    1
    53    10    50    1
    54    11    51    1
    55    12    52    1
    56    13    53    1
    57    14    54    1
    58    17    55    1
    59    18    56    1
    60    19    57    1
    61    20    58    1
    62    21    59    1
    63    24    60    1
    64    25    61    1
    65    28    62    1
    66    29    63    1
    67    31    64    1
    68    31    65    1
    69    32    66    1
    70    32    67    1
    71    33    68    1
    72    34    69    1
    73    35    70    1
    74    35    71    1
    75    36    72    1
    76    37    73    1
    77    38    74    1
    78    38    75    1
    79    41    76    1
