@<TRIPOS>MOLECULE
*****
 64 67 0 0 0
SMALL
GASTEIGER

@<TRIPOS>ATOM
      1 C          -8.8163    2.8509   -0.3321 C.3     1  UNL1        0.0788
      2 O          -7.5025    2.5080   -0.0326 O.3     1  UNL1       -0.4950
      3 C          -6.9189    1.2706   -0.0826 C.ar    1  UNL1        0.1241
      4 C          -7.6640    0.1777   -0.4645 C.ar    1  UNL1        0.0218
      5 C          -7.0420   -1.0753   -0.5104 C.ar    1  UNL1        0.1241
      6 O          -7.7389   -2.2227   -0.8873 O.3     1  UNL1       -0.4950
      7 C          -9.0863   -2.2172   -1.2477 C.3     1  UNL1        0.0788
      8 C          -5.7240   -1.1604   -0.1763 C.ar    1  UNL1       -0.0119
      9 C          -4.9587   -0.0821    0.2079 C.ar    1  UNL1       -0.0077
     10 C          -3.5538   -0.1734    0.5399 C.ar    1  UNL1        0.0225
     11 C          -2.6845   -0.7657   -0.3345 C.ar    1  UNL1       -0.0401
     12 C          -1.3215   -0.8232   -0.0191 C.ar    1  UNL1        0.0193
     13 C          -0.4064   -1.3981   -0.8710 C.ar    1  UNL1        0.0389
     14 N           0.8832   -1.4024   -0.4946 N.ar    1  UNL1       -0.2398
     15 C           1.3340   -0.8838    0.6536 C.ar    1  UNL1        0.1207
     16 N           2.6870   -0.8608    1.0652 N.pl3   1  UNL1       -0.3290
     17 C           3.4543    0.3627    1.0814 C.3     1  UNL1        0.0116
     18 C           3.5833    1.0199   -0.2514 C.3     1  UNL1       -0.0246
     19 C           4.2186    0.2671   -1.3464 C.3     1  UNL1        0.0004
     20 N           5.5320   -0.1858   -1.2509 N.3     1  UNL1       -0.2999
     21 C           5.9083   -1.2337   -0.4175 C.3     1  UNL1        0.0117
     22 C           7.3920   -1.2530   -0.1242 C.3     1  UNL1        0.0114
     23 N           7.8403    0.0146    0.3354 N.3     1  UNL1       -0.3029
     24 C           9.2760   -0.0196    0.5655 C.3     1  UNL1       -0.0127
     25 C           7.4996    1.1092   -0.5360 C.3     1  UNL1        0.0114
     26 C           6.5529    0.7419   -1.6364 C.3     1  UNL1        0.0117
     27 C           0.4210   -0.3066    1.5091 C.ar    1  UNL1        0.0041
     28 C          -0.9150   -0.2687    1.1849 C.ar    1  UNL1        0.0778
     29 N          -1.8144    0.2927    1.9917 N.ar    1  UNL1       -0.2317
     30 C          -3.1168    0.3660    1.7241 C.ar    1  UNL1        0.1246
     31 N          -4.0388    0.9877    2.6406 N.pl3   1  UNL1       -0.3426
     32 C          -5.5883    1.1596    0.2515 C.ar    1  UNL1       -0.0119
     33 H          -8.9240    3.2288   -1.3944 H       1  UNL1        0.0660
     34 H          -9.0565    3.7614    0.2935 H       1  UNL1        0.0660
     35 H          -9.5405    2.0426   -0.2140 H       1  UNL1        0.0660
     36 H          -8.7107    0.2535   -0.7288 H       1  UNL1        0.0691
     37 H          -9.3571   -1.4104   -1.9422 H       1  UNL1        0.0660
     38 H          -9.2747   -3.1714   -1.7920 H       1  UNL1        0.0660
     39 H          -9.7791   -2.2308   -0.3796 H       1  UNL1        0.0660
     40 H          -5.1933   -2.1222   -0.1967 H       1  UNL1        0.0660
     41 H          -2.9858   -1.2050   -1.2800 H       1  UNL1        0.0632
     42 H          -0.7250   -1.8301   -1.8052 H       1  UNL1        0.0837
     43 H           3.1301   -1.7501    1.3592 H       1  UNL1        0.1475
     44 H           4.3828    0.3209    1.6710 H       1  UNL1        0.0462
     45 H           2.8179    1.1012    1.7155 H       1  UNL1        0.0462
     46 H           4.1829    1.9642   -0.0742 H       1  UNL1        0.0293
     47 H           2.5715    1.4265   -0.5853 H       1  UNL1        0.0293
     48 H           4.1274    0.9022   -2.2890 H       1  UNL1        0.0427
     49 H           3.5718   -0.6405   -1.6125 H       1  UNL1        0.0427
     50 H           5.3234   -1.3946    0.4908 H       1  UNL1        0.0439
     51 H           5.7435   -2.2006   -1.0092 H       1  UNL1        0.0439
     52 H           7.9308   -1.6365   -1.0060 H       1  UNL1        0.0439
     53 H           7.5383   -1.9910    0.7048 H       1  UNL1        0.0439
     54 H           9.7374   -0.1457   -0.4581 H       1  UNL1        0.0391
     55 H           9.5985    0.9120    1.0254 H       1  UNL1        0.0391
     56 H           9.5045   -0.9302    1.1281 H       1  UNL1        0.0391
     57 H           7.1397    1.9568    0.0700 H       1  UNL1        0.0439
     58 H           8.4391    1.4660   -1.0190 H       1  UNL1        0.0439
     59 H           7.0820    0.3179   -2.5209 H       1  UNL1        0.0439
     60 H           6.0539    1.6719   -1.9744 H       1  UNL1        0.0439
     61 H           0.7654    0.1204    2.4419 H       1  UNL1        0.0673
     62 H          -4.9943    0.5832    2.7570 H       1  UNL1        0.1437
     63 H          -3.8040    1.8278    3.2014 H       1  UNL1        0.1437
     64 H          -4.9869    2.0059    0.5541 H       1  UNL1        0.0660
@<TRIPOS>BOND
     1     1     2    1
     2     2     3    1
     3     3     4   ar
     4     4     5   ar
     5     5     6    1
     6     6     7    1
     7     5     8   ar
     8     8     9   ar
     9     9    10    1
    10    10    11   ar
    11    11    12   ar
    12    12    13   ar
    13    13    14   ar
    14    14    15   ar
    15    15    16    1
    16    16    17    1
    17    17    18    1
    18    18    19    1
    19    19    20    1
    20    20    21    1
    21    21    22    1
    22    22    23    1
    23    23    24    1
    24    23    25    1
    25    25    26    1
    26    15    27   ar
    27    27    28   ar
    28    28    29   ar
    29    29    30   ar
    30    30    31    1
    31     9    32   ar
    32    32     3   ar
    33    30    10   ar
    34    28    12   ar
    35    26    20    1
    36     1    33    1
    37     1    34    1
    38     1    35    1
    39     4    36    1
    40     7    37    1
    41     7    38    1
    42     7    39    1
    43     8    40    1
    44    11    41    1
    45    13    42    1
    46    16    43    1
    47    17    44    1
    48    17    45    1
    49    18    46    1
    50    18    47    1
    51    19    48    1
    52    19    49    1
    53    21    50    1
    54    21    51    1
    55    22    52    1
    56    22    53    1
    57    24    54    1
    58    24    55    1
    59    24    56    1
    60    25    57    1
    61    25    58    1
    62    26    59    1
    63    26    60    1
    64    27    61    1
    65    31    62    1
    66    31    63    1
    67    32    64    1
