
     RDKit          3D

 54 59  0  0  0  0  0  0  0  0999 V2000
   -3.8737    0.0108    4.2392 N   0  0  0  0  0  0  0  0  0  0  0  0
   -4.0032    0.2853    2.8501 C   0  0  0  0  0  0  0  0  0  0  0  0
   -4.4986   -0.6261    2.0669 N   0  0  0  0  0  0  0  0  0  0  0  0
   -4.6549   -0.4042    0.6397 C   0  0  1  0  0  0  0  0  0  0  0  0
   -3.3696   -0.7787   -0.0383 C   0  0  0  0  0  0  0  0  0  0  0  0
   -2.6585    0.1647   -0.7632 C   0  0  0  0  0  0  0  0  0  0  0  0
   -1.4674   -0.1486   -1.3909 C   0  0  0  0  0  0  0  0  0  0  0  0
   -0.7646    0.8427   -2.1157 N   0  0  0  0  0  0  0  0  0  0  0  0
    0.4308    0.4749   -2.7868 C   0  0  0  0  0  0  0  0  0  0  0  0
    0.4343    0.0956   -4.0814 N   0  0  0  0  0  0  0  0  0  0  0  0
    1.5404   -0.2599   -4.7519 C   0  0  0  0  0  0  0  0  0  0  0  0
    2.7370   -0.2329   -4.0701 C   0  0  0  0  0  0  0  0  0  0  0  0
    2.7711    0.1521   -2.7363 C   0  0  0  0  0  0  0  0  0  0  0  0
    3.9500    0.1904   -2.0214 C   0  0  0  0  0  0  0  0  0  0  0  0
    4.0094    0.5694   -0.6927 C   0  0  0  0  0  0  0  0  0  0  0  0
    5.2527    0.6009    0.0333 C   0  0  0  0  0  0  0  0  0  0  0  0
    6.3114    0.6065    0.6540 C   0  0  0  0  0  0  0  0  0  0  0  0
    7.5750    0.5884    1.3878 C   0  0  0  0  0  0  0  0  0  0  0  0
    8.7384   -0.1714    0.8341 C   0  0  0  0  0  0  0  0  0  0  0  0
    8.0354   -0.7587    1.9821 C   0  0  0  0  0  0  0  0  0  0  0  0
    2.8145    0.9149   -0.1005 C   0  0  0  0  0  0  0  0  0  0  0  0
    1.6529    0.8852   -0.7775 N   0  0  0  0  0  0  0  0  0  0  0  0
    1.6171    0.5078   -2.0886 C   0  0  0  0  0  0  0  0  0  0  0  0
   -0.9870   -1.4248   -1.2883 C   0  0  0  0  0  0  0  0  0  0  0  0
   -1.6564   -2.3958   -0.5805 C   0  0  0  0  0  0  0  0  0  0  0  0
   -2.8529   -2.0454    0.0393 C   0  0  0  0  0  0  0  0  0  0  0  0
   -3.4802   -3.0122    0.7214 F   0  0  0  0  0  0  0  0  0  0  0  0
   -5.8086   -1.2615    0.1702 C   0  0  0  0  0  0  0  0  0  0  0  0
   -6.9166   -0.8234    0.8996 F   0  0  0  0  0  0  0  0  0  0  0  0
   -6.0858   -1.0415   -1.1547 F   0  0  0  0  0  0  0  0  0  0  0  0
   -4.9780    1.0179    0.2898 C   0  0  1  0  0  0  0  0  0  0  0  0
   -5.8795    1.8412    1.1663 C   0  0  0  0  0  0  0  0  0  0  0  0
   -4.4065    2.0141    1.2293 C   0  0  1  0  0  0  0  0  0  0  0  0
   -3.6299    1.4822    2.2616 O   0  0  0  0  0  0  0  0  0  0  0  0
   -3.0352   -0.4602    4.6135 H   0  0  0  0  0  0  0  0  0  0  0  0
   -4.6377    0.2899    4.8869 H   0  0  0  0  0  0  0  0  0  0  0  0
   -3.0171    1.1775   -0.8584 H   0  0  0  0  0  0  0  0  0  0  0  0
   -1.1070    1.8105   -2.1600 H   0  0  0  0  0  0  0  0  0  0  0  0
    1.5293   -0.5615   -5.7918 H   0  0  0  0  0  0  0  0  0  0  0  0
    3.6560   -0.5112   -4.5714 H   0  0  0  0  0  0  0  0  0  0  0  0
    4.8494   -0.0947   -2.5477 H   0  0  0  0  0  0  0  0  0  0  0  0
    7.7525    1.4813    2.0239 H   0  0  0  0  0  0  0  0  0  0  0  0
    9.7626    0.2069    0.9617 H   0  0  0  0  0  0  0  0  0  0  0  0
    8.5276   -0.6542   -0.1610 H   0  0  0  0  0  0  0  0  0  0  0  0
    7.3648   -1.6369    1.8082 H   0  0  0  0  0  0  0  0  0  0  0  0
    8.4440   -0.7417    3.0106 H   0  0  0  0  0  0  0  0  0  0  0  0
    2.8636    1.2124    0.9473 H   0  0  0  0  0  0  0  0  0  0  0  0
   -0.0539   -1.7194   -1.7641 H   0  0  0  0  0  0  0  0  0  0  0  0
   -1.2415   -3.4024   -0.5210 H   0  0  0  0  0  0  0  0  0  0  0  0
   -5.6493   -2.3327    0.4078 H   0  0  0  0  0  0  0  0  0  0  0  0
   -5.0560    1.1968   -0.7953 H   0  0  0  0  0  0  0  0  0  0  0  0
   -6.3984    1.3210    2.0092 H   0  0  0  0  0  0  0  0  0  0  0  0
   -6.4967    2.6492    0.7309 H   0  0  0  0  0  0  0  0  0  0  0  0
   -3.9554    2.9094    0.7326 H   0  0  0  0  0  0  0  0  0  0  0  0
  1  2  1  0
  2  3  2  0
  3  4  1  0
  4  5  1  0
  5  6  2  0
  6  7  1  0
  7  8  1  0
  8  9  1  0
  9 10  2  0
 10 11  1  0
 11 12  2  0
 12 13  1  0
 13 14  2  0
 14 15  1  0
 15 16  1  0
 16 17  3  0
 17 18  1  0
 18 19  1  0
 19 20  1  0
 15 21  2  0
 21 22  1  0
 22 23  2  0
  7 24  2  0
 24 25  1  0
 25 26  2  0
 26 27  1  0
  4 28  1  6
 28 29  1  0
 28 30  1  0
  4 31  1  0
 31 32  1  0
 32 33  1  0
 33 34  1  0
 34  2  1  0
 26  5  1  0
 33 31  1  0
 23  9  1  0
 23 13  1  0
 20 18  1  0
  1 35  1  0
  1 36  1  0
  6 37  1  0
  8 38  1  0
 11 39  1  0
 12 40  1  0
 14 41  1  0
 18 42  1  0
 19 43  1  0
 19 44  1  0
 20 45  1  0
 20 46  1  0
 21 47  1  0
 24 48  1  0
 25 49  1  0
 28 50  1  0
 31 51  1  6
 32 52  1  0
 32 53  1  0
 33 54  1  6
M  END
$$$$
