@<TRIPOS>MOLECULE
*****
 54 59 0 0 0
SMALL
GASTEIGER

@<TRIPOS>ATOM
      1 N          -3.8737    0.0108    4.2392 N.pl3   1  UNL1       -0.3134
      2 C          -4.0032    0.2853    2.8501 C.2     1  UNL1        0.2764
      3 N          -4.4986   -0.6261    2.0669 N.2     1  UNL1       -0.2194
      4 C          -4.6549   -0.4042    0.6397 C.3     1  UNL1        0.1603
      5 C          -3.3696   -0.7787   -0.0383 C.ar    1  UNL1        0.0228
      6 C          -2.6585    0.1647   -0.7632 C.ar    1  UNL1       -0.0321
      7 C          -1.4674   -0.1486   -1.3909 C.ar    1  UNL1        0.0329
      8 N          -0.7646    0.8427   -2.1157 N.pl3   1  UNL1       -0.2977
      9 C           0.4308    0.4749   -2.7868 C.ar    1  UNL1        0.1490
     10 N           0.4343    0.0956   -4.0814 N.ar    1  UNL1       -0.2380
     11 C           1.5404   -0.2599   -4.7519 C.ar    1  UNL1        0.0304
     12 C           2.7370   -0.2329   -4.0701 C.ar    1  UNL1       -0.0342
     13 C           2.7711    0.1521   -2.7363 C.ar    1  UNL1        0.0063
     14 C           3.9500    0.1904   -2.0214 C.ar    1  UNL1       -0.0355
     15 C           4.0094    0.5694   -0.6927 C.ar    1  UNL1        0.0436
     16 C           5.2527    0.6009    0.0333 C.1     1  UNL1       -0.0645
     17 C           6.3114    0.6065    0.6540 C.1     1  UNL1       -0.0936
     18 C           7.5750    0.5884    1.3878 C.3     1  UNL1        0.0211
     19 C           8.7384   -0.1714    0.8341 C.3     1  UNL1       -0.0382
     20 C           8.0354   -0.7587    1.9821 C.3     1  UNL1       -0.0382
     21 C           2.8145    0.9149   -0.1005 C.ar    1  UNL1        0.0438
     22 N           1.6529    0.8852   -0.7775 N.ar    1  UNL1       -0.2503
     23 C           1.6171    0.5078   -2.0886 C.ar    1  UNL1        0.1109
     24 C          -0.9870   -1.4248   -1.2883 C.ar    1  UNL1       -0.0378
     25 C          -1.6564   -2.3958   -0.5805 C.ar    1  UNL1       -0.0243
     26 C          -2.8529   -2.0454    0.0393 C.ar    1  UNL1        0.1292
     27 F          -3.4802   -3.0122    0.7214 F       1  UNL1       -0.2051
     28 C          -5.8086   -1.2615    0.1702 C.3     1  UNL1        0.2686
     29 F          -6.9166   -0.8234    0.8996 F       1  UNL1       -0.2062
     30 F          -6.0858   -1.0415   -1.1547 F       1  UNL1       -0.2062
     31 C          -4.9780    1.0179    0.2898 C.3     1  UNL1        0.0344
     32 C          -5.8795    1.8412    1.1663 C.3     1  UNL1       -0.0064
     33 C          -4.4065    2.0141    1.2293 C.3     1  UNL1        0.1091
     34 O          -3.6299    1.4822    2.2616 O.2     1  UNL1       -0.4622
     35 H          -3.0352   -0.4602    4.6135 H       1  UNL1        0.1466
     36 H          -4.6377    0.2899    4.8869 H       1  UNL1        0.1466
     37 H          -3.0171    1.1775   -0.8584 H       1  UNL1        0.0640
     38 H          -1.1070    1.8105   -2.1600 H       1  UNL1        0.1536
     39 H           1.5293   -0.5615   -5.7918 H       1  UNL1        0.0830
     40 H           3.6560   -0.5112   -4.5714 H       1  UNL1        0.0639
     41 H           4.8494   -0.0947   -2.5477 H       1  UNL1        0.0637
     42 H           7.7525    1.4813    2.0239 H       1  UNL1        0.0433
     43 H           9.7626    0.2069    0.9617 H       1  UNL1        0.0277
     44 H           8.5276   -0.6542   -0.1610 H       1  UNL1        0.0277
     45 H           7.3648   -1.6369    1.8082 H       1  UNL1        0.0277
     46 H           8.4440   -0.7417    3.0106 H       1  UNL1        0.0277
     47 H           2.8636    1.2124    0.9473 H       1  UNL1        0.0842
     48 H          -0.0539   -1.7194   -1.7641 H       1  UNL1        0.0637
     49 H          -1.2415   -3.4024   -0.5210 H       1  UNL1        0.0647
     50 H          -5.6493   -2.3327    0.4078 H       1  UNL1        0.1047
     51 H          -5.0560    1.1968   -0.7953 H       1  UNL1        0.0366
     52 H          -6.3984    1.3210    2.0092 H       1  UNL1        0.0306
     53 H          -6.4967    2.6492    0.7309 H       1  UNL1        0.0306
     54 H          -3.9554    2.9094    0.7326 H       1  UNL1        0.0737
@<TRIPOS>BOND
     1     1     2    1
     2     2     3    2
     3     3     4    1
     4     4     5    1
     5     5     6   ar
     6     6     7   ar
     7     7     8    1
     8     8     9    1
     9     9    10   ar
    10    10    11   ar
    11    11    12   ar
    12    12    13   ar
    13    13    14   ar
    14    14    15   ar
    15    15    16    1
    16    16    17    3
    17    17    18    1
    18    18    19    1
    19    19    20    1
    20    15    21   ar
    21    21    22   ar
    22    22    23   ar
    23     7    24   ar
    24    24    25   ar
    25    25    26   ar
    26    26    27    1
    27     4    28    1
    28    28    29    1
    29    28    30    1
    30     4    31    1
    31    31    32    1
    32    32    33    1
    33    33    34    1
    34    34     2    1
    35    26     5   ar
    36    33    31    1
    37    23     9   ar
    38    23    13   ar
    39    20    18    1
    40     1    35    1
    41     1    36    1
    42     6    37    1
    43     8    38    1
    44    11    39    1
    45    12    40    1
    46    14    41    1
    47    18    42    1
    48    19    43    1
    49    19    44    1
    50    20    45    1
    51    20    46    1
    52    21    47    1
    53    24    48    1
    54    25    49    1
    55    28    50    1
    56    31    51    1
    57    32    52    1
    58    32    53    1
    59    33    54    1
