
     RDKit          3D

 46 49  0  0  0  0  0  0  0  0999 V2000
    2.6873    4.1874   -1.5289 N   0  0  0  0  0  0  0  0  0  0  0  0
    1.2992    4.2178   -1.3636 C   0  0  0  0  0  0  0  0  0  0  0  0
    0.6584    5.2906   -1.6256 O   0  0  0  0  0  0  0  0  0  0  0  0
    0.5095    3.0961   -0.9057 C   0  0  0  0  0  0  0  0  0  0  0  0
   -0.8702    3.1206   -0.7398 C   0  0  0  0  0  0  0  0  0  0  0  0
   -1.4154    1.9775   -0.3058 N   0  0  0  0  0  0  0  0  0  0  0  0
   -0.7481    0.8573   -0.0316 C   0  0  0  0  0  0  0  0  0  0  0  0
   -1.4974   -0.2763    0.4252 N   0  0  0  0  0  0  0  0  0  0  0  0
   -2.9239   -0.2089    0.5830 C   0  0  1  0  0  0  0  0  0  0  0  0
   -3.5997    0.1178   -0.7295 C   0  0  0  0  0  0  0  0  0  0  0  0
   -4.9124   -0.4969   -0.7834 N   0  0  0  0  0  0  0  0  0  0  0  0
   -5.5923   -0.4640    0.4951 C   0  0  0  0  0  0  0  0  0  0  0  0
   -4.9119   -1.4522    1.4239 C   0  0  0  0  0  0  0  0  0  0  0  0
   -3.4288   -1.5264    1.0761 C   0  0  2  0  0  0  0  0  0  0  0  0
   -2.7210   -1.9189    2.2082 O   0  0  0  0  0  0  0  0  0  0  0  0
    0.6581    0.7728   -0.1816 C   0  0  0  0  0  0  0  0  0  0  0  0
    1.4869   -0.2646    0.0458 C   0  0  0  0  0  0  0  0  0  0  0  0
    2.7951   -0.1434   -0.1576 C   0  0  0  0  0  0  0  0  0  0  0  0
    3.9103   -1.0615   -0.0043 C   0  0  0  0  0  0  0  0  0  0  0  0
    5.1997   -0.6752   -0.2897 C   0  0  0  0  0  0  0  0  0  0  0  0
    6.2512   -1.5605   -0.1388 C   0  0  0  0  0  0  0  0  0  0  0  0
    5.9896   -2.8593    0.3091 C   0  0  0  0  0  0  0  0  0  0  0  0
    4.7048   -3.2638    0.5997 C   0  0  0  0  0  0  0  0  0  0  0  0
    3.6929   -2.3432    0.4326 C   0  0  0  0  0  0  0  0  0  0  0  0
    2.9388    1.5602   -0.7204 S   0  0  0  0  0  0  0  0  0  0  0  0
    1.2215    1.9287   -0.6220 C   0  0  0  0  0  0  0  0  0  0  0  0
    3.3379    4.4183   -0.7436 H   0  0  0  0  0  0  0  0  0  0  0  0
    3.1092    3.9287   -2.4569 H   0  0  0  0  0  0  0  0  0  0  0  0
   -1.3735    4.0269   -0.9663 H   0  0  0  0  0  0  0  0  0  0  0  0
   -0.9738   -1.1414    0.6361 H   0  0  0  0  0  0  0  0  0  0  0  0
   -3.1742    0.6210    1.2806 H   0  0  0  0  0  0  0  0  0  0  0  0
   -3.0250   -0.2922   -1.5953 H   0  0  0  0  0  0  0  0  0  0  0  0
   -3.6190    1.2065   -0.8532 H   0  0  0  0  0  0  0  0  0  0  0  0
   -5.4870   -0.1608   -1.5617 H   0  0  0  0  0  0  0  0  0  0  0  0
   -5.6608    0.5409    0.9262 H   0  0  0  0  0  0  0  0  0  0  0  0
   -6.6408   -0.8010    0.2953 H   0  0  0  0  0  0  0  0  0  0  0  0
   -5.3640   -2.4577    1.3254 H   0  0  0  0  0  0  0  0  0  0  0  0
   -5.0154   -1.1243    2.4903 H   0  0  0  0  0  0  0  0  0  0  0  0
   -3.2897   -2.2717    0.2792 H   0  0  0  0  0  0  0  0  0  0  0  0
   -1.8877   -2.3903    2.0009 H   0  0  0  0  0  0  0  0  0  0  0  0
    1.0935   -1.2519    0.4109 H   0  0  0  0  0  0  0  0  0  0  0  0
    5.4200    0.3234   -0.6365 H   0  0  0  0  0  0  0  0  0  0  0  0
    7.2627   -1.3089   -0.3463 H   0  0  0  0  0  0  0  0  0  0  0  0
    6.7867   -3.5779    0.4386 H   0  0  0  0  0  0  0  0  0  0  0  0
    4.4480   -4.2509    0.9474 H   0  0  0  0  0  0  0  0  0  0  0  0
    2.6704   -2.6485    0.6586 H   0  0  0  0  0  0  0  0  0  0  0  0
  1  2  1  0
  2  3  2  0
  2  4  1  0
  4  5  2  0
  5  6  1  0
  6  7  2  0
  7  8  1  0
  8  9  1  0
  9 10  1  0
 10 11  1  0
 11 12  1  0
 12 13  1  0
 13 14  1  0
 14 15  1  0
  7 16  1  0
 16 17  1  0
 17 18  2  0
 18 19  1  0
 19 20  2  0
 20 21  1  0
 21 22  2  0
 22 23  1  0
 23 24  2  0
 18 25  1  0
 25 26  1  0
 26  4  1  0
 14  9  1  0
 26 16  2  0
 24 19  1  0
  1 27  1  0
  1 28  1  0
  5 29  1  0
  8 30  1  0
  9 31  1  1
 10 32  1  0
 10 33  1  0
 11 34  1  0
 12 35  1  0
 12 36  1  0
 13 37  1  0
 13 38  1  0
 14 39  1  6
 15 40  1  0
 17 41  1  0
 20 42  1  0
 21 43  1  0
 22 44  1  0
 23 45  1  0
 24 46  1  0
M  END
$$$$
