@<TRIPOS>MOLECULE
*****
 52 55 0 0 0
SMALL
GASTEIGER

@<TRIPOS>ATOM
      1 C          -5.8723   -0.7887    0.5988 C.3     1  UNL1       -0.0288
      2 C          -4.6113    0.0037    0.5797 C.3     1  UNL1        0.1831
      3 C          -4.8320    1.3657    1.1734 C.3     1  UNL1       -0.0288
      4 C          -3.9973    0.0747   -0.7582 C.2     1  UNL1        0.3067
      5 N          -4.8019   -0.1835   -1.8921 N.pl3   1  UNL1       -0.2488
      6 N          -2.7907    0.3534   -0.9014 N.2     1  UNL1       -0.0727
      7 C          -1.7772    0.6497    0.0707 C.3     1  UNL1        0.1959
      8 C          -1.7546    2.2042    0.1714 C.3     1  UNL1       -0.0112
      9 C          -0.5004    0.3064   -0.5565 C.ar    1  UNL1        0.0420
     10 C           0.3468   -0.6399   -0.0922 C.ar    1  UNL1       -0.0301
     11 C           1.5551   -0.9469   -0.7446 C.ar    1  UNL1        0.0330
     12 N           2.3904   -1.9693   -0.2488 N.pl3   1  UNL1       -0.2977
     13 C           3.7635   -1.8907    0.0548 C.ar    1  UNL1        0.1490
     14 N           4.4530   -3.0437    0.3241 N.ar    1  UNL1       -0.2380
     15 C           5.7396   -3.0274    0.6322 C.ar    1  UNL1        0.0304
     16 C           6.4645   -1.8545    0.7006 C.ar    1  UNL1       -0.0342
     17 C           5.7985   -0.6795    0.4362 C.ar    1  UNL1        0.0066
     18 C           6.4867    0.5070    0.5063 C.ar    1  UNL1       -0.0326
     19 C           5.8182    1.7069    0.2494 C.ar    1  UNL1        0.0596
     20 CL          6.6382    3.2523    0.3229 Cl      1  UNL1       -0.0820
     21 C           4.4854    1.6403   -0.0642 C.ar    1  UNL1        0.0467
     22 N           3.8410    0.4674   -0.1246 N.ar    1  UNL1       -0.2501
     23 C           4.4525   -0.7147    0.1156 C.ar    1  UNL1        0.1109
     24 C           1.8580   -0.2537   -1.8796 C.ar    1  UNL1       -0.0378
     25 C           1.0330    0.7260   -2.4029 C.ar    1  UNL1       -0.0243
     26 C          -0.1231    0.9816   -1.7305 C.ar    1  UNL1        0.1311
     27 F          -0.9749    1.9360   -2.2015 F       1  UNL1       -0.2050
     28 C          -1.9234    0.0916    1.4131 C.3     1  UNL1        0.1183
     29 S          -3.4196   -0.9095    1.5765 S.O2    1  UNL1       -0.0101
     30 O          -3.2068   -2.2624    1.0116 O.2     1  UNL1       -0.1731
     31 O          -3.8728   -0.9921    2.9980 O.2     1  UNL1       -0.1731
     32 H          -5.7776   -1.8266    0.2720 H       1  UNL1        0.0256
     33 H          -6.6316   -0.2190    0.0115 H       1  UNL1        0.0256
     34 H          -6.2690   -0.7673    1.6508 H       1  UNL1        0.0256
     35 H          -4.1111    1.5131    2.0212 H       1  UNL1        0.0256
     36 H          -4.7389    2.1853    0.4278 H       1  UNL1        0.0256
     37 H          -5.8576    1.4217    1.6061 H       1  UNL1        0.0256
     38 H          -5.4571   -1.0000   -1.8355 H       1  UNL1        0.2881
     39 H          -4.7956    0.3631   -2.7797 H       1  UNL1        0.2881
     40 H          -0.7472    2.6048    0.0179 H       1  UNL1        0.0279
     41 H          -2.4216    2.6603   -0.5789 H       1  UNL1        0.0279
     42 H          -2.0606    2.5025    1.2037 H       1  UNL1        0.0279
     43 H           0.1677   -1.2426    0.7979 H       1  UNL1        0.0641
     44 H           1.9348   -2.9339   -0.0765 H       1  UNL1        0.1536
     45 H           6.2764   -3.9656    0.8454 H       1  UNL1        0.0830
     46 H           7.5294   -1.8618    0.9588 H       1  UNL1        0.0639
     47 H           7.5435    0.5556    0.7564 H       1  UNL1        0.0639
     48 H           3.9393    2.5492   -0.2697 H       1  UNL1        0.0844
     49 H           2.7596   -0.4495   -2.4447 H       1  UNL1        0.0637
     50 H           1.3009    1.2518   -3.2988 H       1  UNL1        0.0647
     51 H          -2.1572    0.9629    2.1276 H       1  UNL1        0.0550
     52 H          -1.0926   -0.4145    1.8908 H       1  UNL1        0.0550
@<TRIPOS>BOND
     1     1     2    1
     2     2     3    1
     3     2     4    1
     4     4     5    1
     5     4     6    2
     6     6     7    1
     7     7     8    1
     8     7     9    1
     9     9    10   ar
    10    10    11   ar
    11    11    12    1
    12    12    13    1
    13    13    14   ar
    14    14    15   ar
    15    15    16   ar
    16    16    17   ar
    17    17    18   ar
    18    18    19   ar
    19    19    20    1
    20    19    21   ar
    21    21    22   ar
    22    22    23   ar
    23    11    24   ar
    24    24    25   ar
    25    25    26   ar
    26    26    27    1
    27     7    28    1
    28    28    29    1
    29    29    30    2
    30    29    31    2
    31    29     2    1
    32    26     9   ar
    33    23    13   ar
    34    23    17   ar
    35     1    32    1
    36     1    33    1
    37     1    34    1
    38     3    35    1
    39     3    36    1
    40     3    37    1
    41     5    38    1
    42     5    39    1
    43     8    40    1
    44     8    41    1
    45     8    42    1
    46    10    43    1
    47    12    44    1
    48    15    45    1
    49    16    46    1
    50    18    47    1
    51    21    48    1
    52    24    49    1
    53    25    50    1
    54    28    51    1
    55    28    52    1
