
     RDKit          3D

 52 55  0  0  0  0  0  0  0  0999 V2000
   -5.8723   -0.7887    0.5988 C   0  0  0  0  0  0  0  0  0  0  0  0
   -4.6113    0.0037    0.5797 C   0  0  0  0  0  0  0  0  0  0  0  0
   -4.8320    1.3657    1.1734 C   0  0  0  0  0  0  0  0  0  0  0  0
   -3.9973    0.0747   -0.7582 C   0  0  0  0  0  0  0  0  0  0  0  0
   -4.8019   -0.1835   -1.8921 N   0  0  0  0  0  0  0  0  0  0  0  0
   -2.7907    0.3534   -0.9014 N   0  0  0  0  0  0  0  0  0  0  0  0
   -1.7772    0.6497    0.0707 C   0  0  2  0  0  0  0  0  0  0  0  0
   -1.7546    2.2042    0.1714 C   0  0  0  0  0  0  0  0  0  0  0  0
   -0.5004    0.3064   -0.5565 C   0  0  0  0  0  0  0  0  0  0  0  0
    0.3468   -0.6399   -0.0922 C   0  0  0  0  0  0  0  0  0  0  0  0
    1.5551   -0.9469   -0.7446 C   0  0  0  0  0  0  0  0  0  0  0  0
    2.3904   -1.9693   -0.2488 N   0  0  0  0  0  0  0  0  0  0  0  0
    3.7635   -1.8907    0.0548 C   0  0  0  0  0  0  0  0  0  0  0  0
    4.4530   -3.0437    0.3241 N   0  0  0  0  0  0  0  0  0  0  0  0
    5.7396   -3.0274    0.6322 C   0  0  0  0  0  0  0  0  0  0  0  0
    6.4645   -1.8545    0.7006 C   0  0  0  0  0  0  0  0  0  0  0  0
    5.7985   -0.6795    0.4362 C   0  0  0  0  0  0  0  0  0  0  0  0
    6.4867    0.5070    0.5063 C   0  0  0  0  0  0  0  0  0  0  0  0
    5.8182    1.7069    0.2494 C   0  0  0  0  0  0  0  0  0  0  0  0
    6.6382    3.2523    0.3229 Cl  0  0  0  0  0  0  0  0  0  0  0  0
    4.4854    1.6403   -0.0642 C   0  0  0  0  0  0  0  0  0  0  0  0
    3.8410    0.4674   -0.1246 N   0  0  0  0  0  0  0  0  0  0  0  0
    4.4525   -0.7147    0.1156 C   0  0  0  0  0  0  0  0  0  0  0  0
    1.8580   -0.2537   -1.8796 C   0  0  0  0  0  0  0  0  0  0  0  0
    1.0330    0.7260   -2.4029 C   0  0  0  0  0  0  0  0  0  0  0  0
   -0.1231    0.9816   -1.7305 C   0  0  0  0  0  0  0  0  0  0  0  0
   -0.9749    1.9360   -2.2015 F   0  0  0  0  0  0  0  0  0  0  0  0
   -1.9234    0.0916    1.4131 C   0  0  0  0  0  0  0  0  0  0  0  0
   -3.4196   -0.9095    1.5765 S   0  0  0  0  0  6  0  0  0  0  0  0
   -3.2068   -2.2624    1.0116 O   0  0  0  0  0  0  0  0  0  0  0  0
   -3.8728   -0.9921    2.9980 O   0  0  0  0  0  0  0  0  0  0  0  0
   -5.7776   -1.8266    0.2720 H   0  0  0  0  0  0  0  0  0  0  0  0
   -6.6316   -0.2190    0.0115 H   0  0  0  0  0  0  0  0  0  0  0  0
   -6.2690   -0.7673    1.6508 H   0  0  0  0  0  0  0  0  0  0  0  0
   -4.1111    1.5131    2.0212 H   0  0  0  0  0  0  0  0  0  0  0  0
   -4.7389    2.1853    0.4278 H   0  0  0  0  0  0  0  0  0  0  0  0
   -5.8576    1.4217    1.6061 H   0  0  0  0  0  0  0  0  0  0  0  0
   -5.4571   -1.0000   -1.8355 H   0  0  0  0  0  0  0  0  0  0  0  0
   -4.7956    0.3631   -2.7797 H   0  0  0  0  0  0  0  0  0  0  0  0
   -0.7472    2.6048    0.0179 H   0  0  0  0  0  0  0  0  0  0  0  0
   -2.4216    2.6603   -0.5789 H   0  0  0  0  0  0  0  0  0  0  0  0
   -2.0606    2.5025    1.2037 H   0  0  0  0  0  0  0  0  0  0  0  0
    0.1677   -1.2426    0.7979 H   0  0  0  0  0  0  0  0  0  0  0  0
    1.9348   -2.9339   -0.0765 H   0  0  0  0  0  0  0  0  0  0  0  0
    6.2764   -3.9656    0.8454 H   0  0  0  0  0  0  0  0  0  0  0  0
    7.5294   -1.8618    0.9588 H   0  0  0  0  0  0  0  0  0  0  0  0
    7.5435    0.5556    0.7564 H   0  0  0  0  0  0  0  0  0  0  0  0
    3.9393    2.5492   -0.2697 H   0  0  0  0  0  0  0  0  0  0  0  0
    2.7596   -0.4495   -2.4447 H   0  0  0  0  0  0  0  0  0  0  0  0
    1.3009    1.2518   -3.2988 H   0  0  0  0  0  0  0  0  0  0  0  0
   -2.1572    0.9629    2.1276 H   0  0  0  0  0  0  0  0  0  0  0  0
   -1.0926   -0.4145    1.8908 H   0  0  0  0  0  0  0  0  0  0  0  0
  1  2  1  0
  2  3  1  0
  2  4  1  0
  4  5  1  0
  4  6  2  0
  6  7  1  0
  7  8  1  1
  7  9  1  0
  9 10  2  0
 10 11  1  0
 11 12  1  0
 12 13  1  0
 13 14  2  0
 14 15  1  0
 15 16  2  0
 16 17  1  0
 17 18  2  0
 18 19  1  0
 19 20  1  0
 19 21  2  0
 21 22  1  0
 22 23  2  0
 11 24  2  0
 24 25  1  0
 25 26  2  0
 26 27  1  0
  7 28  1  0
 28 29  1  0
 29 30  2  0
 29 31  2  0
 29  2  1  0
 26  9  1  0
 23 13  1  0
 23 17  1  0
  1 32  1  0
  1 33  1  0
  1 34  1  0
  3 35  1  0
  3 36  1  0
  3 37  1  0
  5 38  1  0
  5 39  1  0
  8 40  1  0
  8 41  1  0
  8 42  1  0
 10 43  1  0
 12 44  1  0
 15 45  1  0
 16 46  1  0
 18 47  1  0
 21 48  1  0
 24 49  1  0
 25 50  1  0
 28 51  1  0
 28 52  1  0
M  END
$$$$
