@<TRIPOS>MOLECULE
*****
 66 69 0 0 0
SMALL
GASTEIGER

@<TRIPOS>ATOM
      1 C          -7.2594   -1.5399   -0.7482 C.3     1  UNL1       -0.0652
      2 C          -6.7484   -1.0249    0.5851 C.3     1  UNL1       -0.0539
      3 C          -5.2889   -0.7840    0.6094 C.3     1  UNL1       -0.0284
      4 C          -4.7772    0.2548   -0.3543 C.3     1  UNL1        0.0748
      5 C          -5.3351    1.5958   -0.1119 C.ar    1  UNL1       -0.0164
      6 C          -6.6317    1.9435   -0.4220 C.ar    1  UNL1       -0.0561
      7 C          -7.1779    3.1834   -0.1152 C.ar    1  UNL1       -0.0614
      8 C          -6.4120    4.1238    0.5259 C.ar    1  UNL1       -0.0611
      9 C          -5.1203    3.7848    0.8348 C.ar    1  UNL1       -0.0528
     10 C          -4.5713    2.5546    0.5307 C.ar    1  UNL1       -0.0004
     11 C          -3.1316    2.3525    0.8063 C.2     1  UNL1        0.0534
     12 N          -2.6368    1.2560    0.4081 N.2     1  UNL1       -0.1841
     13 N          -3.3096    0.2581   -0.2531 N.am    1  UNL1       -0.1822
     14 C          -2.6416   -0.8027   -0.8736 C.2     1  UNL1        0.2592
     15 O          -3.3900   -1.6741   -1.4589 O.2     1  UNL1       -0.2689
     16 C          -1.2107   -0.9782   -0.9001 C.2     1  UNL1        0.0027
     17 C          -0.2829   -0.2369   -0.3864 C.2     1  UNL1       -0.0460
     18 C           1.1542   -0.4562   -0.4349 C.ar    1  UNL1        0.0207
     19 C           2.0013    0.5831    0.0073 C.ar    1  UNL1       -0.0474
     20 C           3.3755    0.4901    0.0124 C.ar    1  UNL1       -0.0387
     21 C           4.2182    1.6117    0.5127 C.3     1  UNL1        0.0024
     22 C           5.5756    1.2026    0.9045 C.ar    1  UNL1        0.0146
     23 C           5.8862    0.9156    2.2334 C.ar    1  UNL1        0.0379
     24 N           7.1331    0.5174    2.5433 N.ar    1  UNL1       -0.2227
     25 C           8.1180    0.3750    1.6395 C.ar    1  UNL1        0.2142
     26 N           9.4315   -0.0535    2.0249 N.pl3   1  UNL1       -0.3274
     27 N           7.8269    0.6503    0.3560 N.ar    1  UNL1       -0.1999
     28 C           6.5850    1.0578   -0.0214 C.ar    1  UNL1        0.1247
     29 N           6.2958    1.3783   -1.3806 N.pl3   1  UNL1       -0.3428
     30 C           3.9475   -0.6766   -0.4360 C.ar    1  UNL1       -0.0128
     31 C           3.1866   -1.7352   -0.8821 C.ar    1  UNL1        0.1623
     32 O           3.7650   -2.9115   -1.3347 O.3     1  UNL1       -0.4914
     33 C           5.1663   -3.0822   -1.3610 C.3     1  UNL1        0.0790
     34 C           1.7960   -1.5786   -0.8613 C.ar    1  UNL1        0.1686
     35 O           1.0960   -2.6921   -1.3139 O.3     1  UNL1       -0.4909
     36 C           0.7996   -3.7237   -0.3390 C.3     1  UNL1        0.0790
     37 H          -8.3496   -1.5479   -0.6935 H       1  UNL1        0.0230
     38 H          -6.9450   -2.6127   -0.8730 H       1  UNL1        0.0230
     39 H          -6.8376   -1.0064   -1.6093 H       1  UNL1        0.0230
     40 H          -6.9637   -1.8730    1.3070 H       1  UNL1        0.0263
     41 H          -7.3852   -0.2000    0.9324 H       1  UNL1        0.0263
     42 H          -4.7835   -1.7547    0.3883 H       1  UNL1        0.0287
     43 H          -5.0038   -0.4999    1.6482 H       1  UNL1        0.0287
     44 H          -5.0112   -0.0571   -1.3933 H       1  UNL1        0.0571
     45 H          -7.2857    1.2517   -0.9403 H       1  UNL1        0.0621
     46 H          -8.1931    3.3754   -0.3901 H       1  UNL1        0.0618
     47 H          -6.8459    5.0800    0.7594 H       1  UNL1        0.0618
     48 H          -4.4866    4.5111    1.3450 H       1  UNL1        0.0624
     49 H          -2.5417    3.0884    1.3124 H       1  UNL1        0.0851
     50 H          -0.8766   -1.8680   -1.4778 H       1  UNL1        0.0670
     51 H          -0.5969    0.6662    0.1595 H       1  UNL1        0.0626
     52 H           1.5551    1.5030    0.3607 H       1  UNL1        0.0627
     53 H           4.2358    2.3841   -0.2830 H       1  UNL1        0.0363
     54 H           3.7024    2.0822    1.3937 H       1  UNL1        0.0363
     55 H           5.1023    1.0270    2.9642 H       1  UNL1        0.0834
     56 H           9.6396   -1.0676    2.1527 H       1  UNL1        0.1452
     57 H          10.1932    0.6251    2.1832 H       1  UNL1        0.1452
     58 H           6.1480    0.6598   -2.1185 H       1  UNL1        0.1437
     59 H           6.2319    2.3838   -1.6370 H       1  UNL1        0.1437
     60 H           5.0190   -0.7928   -0.4340 H       1  UNL1        0.0658
     61 H           5.4216   -4.1664   -1.4583 H       1  UNL1        0.0660
     62 H           5.6265   -2.6017   -2.2708 H       1  UNL1        0.0660
     63 H           5.6626   -2.7250   -0.4353 H       1  UNL1        0.0660
     64 H           0.7539   -3.2884    0.6804 H       1  UNL1        0.0660
     65 H           1.5505   -4.5315   -0.3824 H       1  UNL1        0.0660
     66 H          -0.1693   -4.1836   -0.6314 H       1  UNL1        0.0660
@<TRIPOS>BOND
     1     1     2    1
     2     2     3    1
     3     3     4    1
     4     4     5    1
     5     5     6   ar
     6     6     7   ar
     7     7     8   ar
     8     8     9   ar
     9     9    10   ar
    10    10    11    1
    11    11    12    2
    12    12    13    1
    13    13    14   am
    14    14    15    2
    15    14    16    1
    16    16    17    2
    17    17    18    1
    18    18    19   ar
    19    19    20   ar
    20    20    21    1
    21    21    22    1
    22    22    23   ar
    23    23    24   ar
    24    24    25   ar
    25    25    26    1
    26    25    27   ar
    27    27    28   ar
    28    28    29    1
    29    20    30   ar
    30    30    31   ar
    31    31    32    1
    32    32    33    1
    33    31    34   ar
    34    34    35    1
    35    35    36    1
    36    13     4    1
    37    34    18   ar
    38    10     5   ar
    39    28    22   ar
    40     1    37    1
    41     1    38    1
    42     1    39    1
    43     2    40    1
    44     2    41    1
    45     3    42    1
    46     3    43    1
    47     4    44    1
    48     6    45    1
    49     7    46    1
    50     8    47    1
    51     9    48    1
    52    11    49    1
    53    16    50    1
    54    17    51    1
    55    19    52    1
    56    21    53    1
    57    21    54    1
    58    23    55    1
    59    26    56    1
    60    26    57    1
    61    29    58    1
    62    29    59    1
    63    30    60    1
    64    33    61    1
    65    33    62    1
    66    33    63    1
    67    36    64    1
    68    36    65    1
    69    36    66    1
