
     RDKit          3D

 66 69  0  0  0  0  0  0  0  0999 V2000
   -7.2594   -1.5399   -0.7482 C   0  0  0  0  0  0  0  0  0  0  0  0
   -6.7484   -1.0249    0.5851 C   0  0  0  0  0  0  0  0  0  0  0  0
   -5.2889   -0.7840    0.6094 C   0  0  0  0  0  0  0  0  0  0  0  0
   -4.7772    0.2548   -0.3543 C   0  0  1  0  0  0  0  0  0  0  0  0
   -5.3351    1.5958   -0.1119 C   0  0  0  0  0  0  0  0  0  0  0  0
   -6.6317    1.9435   -0.4220 C   0  0  0  0  0  0  0  0  0  0  0  0
   -7.1779    3.1834   -0.1152 C   0  0  0  0  0  0  0  0  0  0  0  0
   -6.4120    4.1238    0.5259 C   0  0  0  0  0  0  0  0  0  0  0  0
   -5.1203    3.7848    0.8348 C   0  0  0  0  0  0  0  0  0  0  0  0
   -4.5713    2.5546    0.5307 C   0  0  0  0  0  0  0  0  0  0  0  0
   -3.1316    2.3525    0.8063 C   0  0  0  0  0  0  0  0  0  0  0  0
   -2.6368    1.2560    0.4081 N   0  0  0  0  0  0  0  0  0  0  0  0
   -3.3096    0.2581   -0.2531 N   0  0  0  0  0  0  0  0  0  0  0  0
   -2.6416   -0.8027   -0.8736 C   0  0  0  0  0  0  0  0  0  0  0  0
   -3.3900   -1.6741   -1.4589 O   0  0  0  0  0  0  0  0  0  0  0  0
   -1.2107   -0.9782   -0.9001 C   0  0  0  0  0  0  0  0  0  0  0  0
   -0.2829   -0.2369   -0.3864 C   0  0  0  0  0  0  0  0  0  0  0  0
    1.1542   -0.4562   -0.4349 C   0  0  0  0  0  0  0  0  0  0  0  0
    2.0013    0.5831    0.0073 C   0  0  0  0  0  0  0  0  0  0  0  0
    3.3755    0.4901    0.0124 C   0  0  0  0  0  0  0  0  0  0  0  0
    4.2182    1.6117    0.5127 C   0  0  0  0  0  0  0  0  0  0  0  0
    5.5756    1.2026    0.9045 C   0  0  0  0  0  0  0  0  0  0  0  0
    5.8862    0.9156    2.2334 C   0  0  0  0  0  0  0  0  0  0  0  0
    7.1331    0.5174    2.5433 N   0  0  0  0  0  0  0  0  0  0  0  0
    8.1180    0.3750    1.6395 C   0  0  0  0  0  0  0  0  0  0  0  0
    9.4315   -0.0535    2.0249 N   0  0  0  0  0  0  0  0  0  0  0  0
    7.8269    0.6503    0.3560 N   0  0  0  0  0  0  0  0  0  0  0  0
    6.5850    1.0578   -0.0214 C   0  0  0  0  0  0  0  0  0  0  0  0
    6.2958    1.3783   -1.3806 N   0  0  0  0  0  0  0  0  0  0  0  0
    3.9475   -0.6766   -0.4360 C   0  0  0  0  0  0  0  0  0  0  0  0
    3.1866   -1.7352   -0.8821 C   0  0  0  0  0  0  0  0  0  0  0  0
    3.7650   -2.9115   -1.3347 O   0  0  0  0  0  0  0  0  0  0  0  0
    5.1663   -3.0822   -1.3610 C   0  0  0  0  0  0  0  0  0  0  0  0
    1.7960   -1.5786   -0.8613 C   0  0  0  0  0  0  0  0  0  0  0  0
    1.0960   -2.6921   -1.3139 O   0  0  0  0  0  0  0  0  0  0  0  0
    0.7996   -3.7237   -0.3390 C   0  0  0  0  0  0  0  0  0  0  0  0
   -8.3496   -1.5479   -0.6935 H   0  0  0  0  0  0  0  0  0  0  0  0
   -6.9450   -2.6127   -0.8730 H   0  0  0  0  0  0  0  0  0  0  0  0
   -6.8376   -1.0064   -1.6093 H   0  0  0  0  0  0  0  0  0  0  0  0
   -6.9637   -1.8730    1.3070 H   0  0  0  0  0  0  0  0  0  0  0  0
   -7.3852   -0.2000    0.9324 H   0  0  0  0  0  0  0  0  0  0  0  0
   -4.7835   -1.7547    0.3883 H   0  0  0  0  0  0  0  0  0  0  0  0
   -5.0038   -0.4999    1.6482 H   0  0  0  0  0  0  0  0  0  0  0  0
   -5.0112   -0.0571   -1.3933 H   0  0  0  0  0  0  0  0  0  0  0  0
   -7.2857    1.2517   -0.9403 H   0  0  0  0  0  0  0  0  0  0  0  0
   -8.1931    3.3754   -0.3901 H   0  0  0  0  0  0  0  0  0  0  0  0
   -6.8459    5.0800    0.7594 H   0  0  0  0  0  0  0  0  0  0  0  0
   -4.4866    4.5111    1.3450 H   0  0  0  0  0  0  0  0  0  0  0  0
   -2.5417    3.0884    1.3124 H   0  0  0  0  0  0  0  0  0  0  0  0
   -0.8766   -1.8680   -1.4778 H   0  0  0  0  0  0  0  0  0  0  0  0
   -0.5969    0.6662    0.1595 H   0  0  0  0  0  0  0  0  0  0  0  0
    1.5551    1.5030    0.3607 H   0  0  0  0  0  0  0  0  0  0  0  0
    4.2358    2.3841   -0.2830 H   0  0  0  0  0  0  0  0  0  0  0  0
    3.7024    2.0822    1.3937 H   0  0  0  0  0  0  0  0  0  0  0  0
    5.1023    1.0270    2.9642 H   0  0  0  0  0  0  0  0  0  0  0  0
    9.6396   -1.0676    2.1527 H   0  0  0  0  0  0  0  0  0  0  0  0
   10.1932    0.6251    2.1832 H   0  0  0  0  0  0  0  0  0  0  0  0
    6.1480    0.6598   -2.1185 H   0  0  0  0  0  0  0  0  0  0  0  0
    6.2319    2.3838   -1.6370 H   0  0  0  0  0  0  0  0  0  0  0  0
    5.0190   -0.7928   -0.4340 H   0  0  0  0  0  0  0  0  0  0  0  0
    5.4216   -4.1664   -1.4583 H   0  0  0  0  0  0  0  0  0  0  0  0
    5.6265   -2.6017   -2.2708 H   0  0  0  0  0  0  0  0  0  0  0  0
    5.6626   -2.7250   -0.4353 H   0  0  0  0  0  0  0  0  0  0  0  0
    0.7539   -3.2884    0.6804 H   0  0  0  0  0  0  0  0  0  0  0  0
    1.5505   -4.5315   -0.3824 H   0  0  0  0  0  0  0  0  0  0  0  0
   -0.1693   -4.1836   -0.6314 H   0  0  0  0  0  0  0  0  0  0  0  0
  1  2  1  0
  2  3  1  0
  3  4  1  0
  4  5  1  0
  5  6  2  0
  6  7  1  0
  7  8  2  0
  8  9  1  0
  9 10  2  0
 10 11  1  0
 11 12  2  0
 12 13  1  0
 13 14  1  0
 14 15  2  0
 14 16  1  0
 16 17  2  0
 17 18  1  0
 18 19  2  0
 19 20  1  0
 20 21  1  0
 21 22  1  0
 22 23  2  0
 23 24  1  0
 24 25  2  0
 25 26  1  0
 25 27  1  0
 27 28  2  0
 28 29  1  0
 20 30  2  0
 30 31  1  0
 31 32  1  0
 32 33  1  0
 31 34  2  0
 34 35  1  0
 35 36  1  0
 13  4  1  0
 34 18  1  0
 10  5  1  0
 28 22  1  0
  1 37  1  0
  1 38  1  0
  1 39  1  0
  2 40  1  0
  2 41  1  0
  3 42  1  0
  3 43  1  0
  4 44  1  6
  6 45  1  0
  7 46  1  0
  8 47  1  0
  9 48  1  0
 11 49  1  0
 16 50  1  0
 17 51  1  0
 19 52  1  0
 21 53  1  0
 21 54  1  0
 23 55  1  0
 26 56  1  0
 26 57  1  0
 29 58  1  0
 29 59  1  0
 30 60  1  0
 33 61  1  0
 33 62  1  0
 33 63  1  0
 36 64  1  0
 36 65  1  0
 36 66  1  0
M  END
$$$$
