
     RDKit          3D

 55 58  0  0  0  0  0  0  0  0999 V2000
   -6.2172    2.5855   -1.9590 C   0  0  0  0  0  0  0  0  0  0  0  0
   -5.3408    1.4172   -2.0226 N   0  0  0  0  0  0  0  0  0  0  0  0
   -5.3835    0.6326   -3.2224 C   0  0  0  0  0  0  0  0  0  0  0  0
   -4.5208    1.1461   -0.9218 C   0  0  0  0  0  0  0  0  0  0  0  0
   -4.6612    1.8878    0.1296 O   0  0  0  0  0  0  0  0  0  0  0  0
   -3.5056    0.1115   -0.8154 C   0  0  2  0  0  0  0  0  0  0  0  0
   -3.7990   -1.3302   -1.0170 C   0  0  0  0  0  0  0  0  0  0  0  0
   -3.5282   -0.8465    0.3359 C   0  0  1  0  0  0  0  0  0  0  0  0
   -2.3378   -0.9314    1.1636 C   0  0  1  0  0  0  0  0  0  0  0  0
   -2.7612   -1.4258    2.5921 C   0  0  0  0  0  0  0  0  0  0  0  0
   -1.2589   -1.8910    0.7853 C   0  0  0  0  0  0  0  0  0  0  0  0
    0.0517   -1.4590    0.9309 C   0  0  0  0  0  0  0  0  0  0  0  0
    1.1471   -2.3157    0.6524 C   0  0  0  0  0  0  0  0  0  0  0  0
    2.4987   -1.8523    0.8009 C   0  0  0  0  0  0  0  0  0  0  0  0
    2.8237   -0.5984    0.2648 C   0  0  0  0  0  0  0  0  0  0  0  0
    1.7465   -0.0023   -0.3436 F   0  0  0  0  0  0  0  0  0  0  0  0
    4.0439   -0.0640    0.3690 C   0  0  0  0  0  0  0  0  0  0  0  0
    5.2842    0.4827    0.4613 C   0  0  0  0  0  0  0  0  0  0  0  0
    6.5087    1.0049    0.5415 C   0  0  0  0  0  0  0  0  0  0  0  0
    6.8536    2.1894   -0.1772 C   0  0  0  0  0  0  0  0  0  0  0  0
    8.0344    2.8138   -0.1210 C   0  0  0  0  0  0  0  0  0  0  0  0
    9.0448    2.2878    0.6995 C   0  0  0  0  0  0  0  0  0  0  0  0
    8.7621    1.1468    1.4060 C   0  0  0  0  0  0  0  0  0  0  0  0
    7.5522    0.5311    1.3348 C   0  0  0  0  0  0  0  0  0  0  0  0
    0.7786   -3.5552    0.2413 C   0  0  0  0  0  0  0  0  0  0  0  0
   -0.4958   -4.0317    0.0796 C   0  0  0  0  0  0  0  0  0  0  0  0
   -1.5556   -3.1469    0.3692 C   0  0  0  0  0  0  0  0  0  0  0  0
   -2.8414   -3.6319    0.2318 F   0  0  0  0  0  0  0  0  0  0  0  0
   -1.6662    0.3428    1.5039 N   0  0  0  0  0  0  0  0  0  0  0  0
   -1.3173    1.1901    0.6271 C   0  0  0  0  0  0  0  0  0  0  0  0
   -0.6848    2.4021    0.8715 N   0  0  0  0  0  0  0  0  0  0  0  0
   -1.7654    0.7122   -1.0659 S   0  0  0  0  0  0  0  0  0  0  0  0
   -5.9393    3.2128   -1.0684 H   0  0  0  0  0  0  0  0  0  0  0  0
   -7.2636    2.2453   -1.9244 H   0  0  0  0  0  0  0  0  0  0  0  0
   -5.9853    3.1955   -2.8821 H   0  0  0  0  0  0  0  0  0  0  0  0
   -6.3888    0.1542   -3.3547 H   0  0  0  0  0  0  0  0  0  0  0  0
   -4.6566   -0.1895   -3.0969 H   0  0  0  0  0  0  0  0  0  0  0  0
   -5.0987    1.1924   -4.1452 H   0  0  0  0  0  0  0  0  0  0  0  0
   -3.0672   -1.8398   -1.6767 H   0  0  0  0  0  0  0  0  0  0  0  0
   -4.8395   -1.6672   -1.2762 H   0  0  0  0  0  0  0  0  0  0  0  0
   -4.4910   -0.7164    0.9663 H   0  0  0  0  0  0  0  0  0  0  0  0
   -2.8241   -2.5101    2.6305 H   0  0  0  0  0  0  0  0  0  0  0  0
   -2.0121   -1.0733    3.3354 H   0  0  0  0  0  0  0  0  0  0  0  0
   -3.7251   -0.9488    2.8438 H   0  0  0  0  0  0  0  0  0  0  0  0
    0.3197   -0.4775    1.2651 H   0  0  0  0  0  0  0  0  0  0  0  0
    3.2816   -2.3833    1.2932 H   0  0  0  0  0  0  0  0  0  0  0  0
    6.0221    2.5577   -0.8168 H   0  0  0  0  0  0  0  0  0  0  0  0
    8.2684    3.7058   -0.6706 H   0  0  0  0  0  0  0  0  0  0  0  0
    9.9788    2.8267    0.7194 H   0  0  0  0  0  0  0  0  0  0  0  0
    9.5353    0.7216    2.0477 H   0  0  0  0  0  0  0  0  0  0  0  0
    7.3219   -0.3882    1.9020 H   0  0  0  0  0  0  0  0  0  0  0  0
    1.6369   -4.2466    0.0320 H   0  0  0  0  0  0  0  0  0  0  0  0
   -0.7194   -5.0249   -0.2572 H   0  0  0  0  0  0  0  0  0  0  0  0
   -0.2434    2.6848    1.7873 H   0  0  0  0  0  0  0  0  0  0  0  0
   -0.6000    3.1669    0.1225 H   0  0  0  0  0  0  0  0  0  0  0  0
  1  2  1  0
  2  3  1  0
  2  4  1  0
  4  5  2  0
  6  4  1  1
  6  7  1  0
  7  8  1  0
  8  9  1  0
  9 10  1  1
  9 11  1  0
 11 12  2  0
 12 13  1  0
 13 14  1  0
 14 15  2  0
 15 16  1  0
 15 17  1  0
 17 18  3  0
 18 19  1  0
 19 20  2  0
 20 21  1  0
 21 22  2  0
 22 23  1  0
 23 24  2  0
 13 25  2  0
 25 26  1  0
 26 27  2  0
 27 28  1  0
  9 29  1  0
 29 30  2  0
 30 31  1  0
 30 32  1  0
  8  6  1  0
 27 11  1  0
 32  6  1  0
 24 19  1  0
  1 33  1  0
  1 34  1  0
  1 35  1  0
  3 36  1  0
  3 37  1  0
  3 38  1  0
  7 39  1  0
  7 40  1  0
  8 41  1  1
 10 42  1  0
 10 43  1  0
 10 44  1  0
 12 45  1  0
 14 46  1  0
 20 47  1  0
 21 48  1  0
 22 49  1  0
 23 50  1  0
 24 51  1  0
 25 52  1  0
 26 53  1  0
 31 54  1  0
 31 55  1  0
M  END
$$$$
