@<TRIPOS>MOLECULE
*****
 55 58 0 0 0
SMALL
GASTEIGER

@<TRIPOS>ATOM
      1 C          -6.2172    2.5855   -1.9590 C.3     1  UNL1        0.0029
      2 N          -5.3408    1.4172   -2.0226 N.am    1  UNL1       -0.3064
      3 C          -5.3835    0.6326   -3.2224 C.3     1  UNL1        0.0029
      4 C          -4.5208    1.1461   -0.9218 C.2     1  UNL1        0.2319
      5 O          -4.6612    1.8878    0.1296 O.2     1  UNL1       -0.2741
      6 C          -3.5056    0.1115   -0.8154 C.3     1  UNL1        0.1054
      7 C          -3.7990   -1.3302   -1.0170 C.3     1  UNL1       -0.0220
      8 C          -3.5282   -0.8465    0.3359 C.3     1  UNL1        0.0134
      9 C          -2.3378   -0.9314    1.1636 C.3     1  UNL1        0.0935
     10 C          -2.7612   -1.4258    2.5921 C.3     1  UNL1       -0.0351
     11 C          -1.2589   -1.8910    0.7853 C.ar    1  UNL1        0.0158
     12 C           0.0517   -1.4590    0.9309 C.ar    1  UNL1       -0.0463
     13 C           1.1471   -2.3157    0.6524 C.ar    1  UNL1       -0.0212
     14 C           2.4987   -1.8523    0.8009 C.2     1  UNL1       -0.0107
     15 C           2.8237   -0.5984    0.2648 C.2     1  UNL1        0.1740
     16 F           1.7465   -0.0023   -0.3436 F       1  UNL1       -0.1958
     17 C           4.0439   -0.0640    0.3690 C.1     1  UNL1       -0.0309
     18 C           5.2842    0.4827    0.4613 C.1     1  UNL1       -0.0588
     19 C           6.5087    1.0049    0.5415 C.ar    1  UNL1        0.0253
     20 C           6.8536    2.1894   -0.1772 C.ar    1  UNL1       -0.0463
     21 C           8.0344    2.8138   -0.1210 C.ar    1  UNL1       -0.0606
     22 C           9.0448    2.2878    0.6995 C.ar    1  UNL1       -0.0617
     23 C           8.7621    1.1468    1.4060 C.ar    1  UNL1       -0.0606
     24 C           7.5522    0.5311    1.3348 C.ar    1  UNL1       -0.0463
     25 C           0.7786   -3.5552    0.2413 C.ar    1  UNL1       -0.0518
     26 C          -0.4958   -4.0317    0.0796 C.ar    1  UNL1       -0.0255
     27 C          -1.5556   -3.1469    0.3692 C.ar    1  UNL1        0.1289
     28 F          -2.8414   -3.6319    0.2318 F       1  UNL1       -0.2051
     29 N          -1.6662    0.3428    1.5039 N.2     1  UNL1       -0.2521
     30 C          -1.3173    1.1901    0.6271 C.2     1  UNL1        0.1485
     31 N          -0.6848    2.4021    0.8715 N.pl3   1  UNL1       -0.3380
     32 S          -1.7654    0.7122   -1.0659 S.3     1  UNL1       -0.0746
     33 H          -5.9393    3.2128   -1.0684 H       1  UNL1        0.0428
     34 H          -7.2636    2.2453   -1.9244 H       1  UNL1        0.0428
     35 H          -5.9853    3.1955   -2.8821 H       1  UNL1        0.0428
     36 H          -6.3888    0.1542   -3.3547 H       1  UNL1        0.0428
     37 H          -4.6566   -0.1895   -3.0969 H       1  UNL1        0.0428
     38 H          -5.0987    1.1924   -4.1452 H       1  UNL1        0.0428
     39 H          -3.0672   -1.8398   -1.6767 H       1  UNL1        0.0287
     40 H          -4.8395   -1.6672   -1.2762 H       1  UNL1        0.0287
     41 H          -4.4910   -0.7164    0.9663 H       1  UNL1        0.0346
     42 H          -2.8241   -2.5101    2.6305 H       1  UNL1        0.0256
     43 H          -2.0121   -1.0733    3.3354 H       1  UNL1        0.0256
     44 H          -3.7251   -0.9488    2.8438 H       1  UNL1        0.0256
     45 H           0.3197   -0.4775    1.2651 H       1  UNL1        0.0628
     46 H           3.2816   -2.3833    1.2932 H       1  UNL1        0.0659
     47 H           6.0221    2.5577   -0.8168 H       1  UNL1        0.0630
     48 H           8.2684    3.7058   -0.6706 H       1  UNL1        0.0618
     49 H           9.9788    2.8267    0.7194 H       1  UNL1        0.0618
     50 H           9.5353    0.7216    2.0477 H       1  UNL1        0.0618
     51 H           7.3219   -0.3882    1.9020 H       1  UNL1        0.0630
     52 H           1.6369   -4.2466    0.0320 H       1  UNL1        0.0624
     53 H          -0.7194   -5.0249   -0.2572 H       1  UNL1        0.0646
     54 H          -0.2434    2.6848    1.7873 H       1  UNL1        0.1442
     55 H          -0.6000    3.1669    0.1225 H       1  UNL1        0.1442
@<TRIPOS>BOND
     1     1     2    1
     2     2     3    1
     3     2     4   am
     4     4     5    2
     5     6     4    1
     6     6     7    1
     7     7     8    1
     8     8     9    1
     9     9    10    1
    10     9    11    1
    11    11    12   ar
    12    12    13   ar
    13    13    14    1
    14    14    15    2
    15    15    16    1
    16    15    17    1
    17    17    18    3
    18    18    19    1
    19    19    20   ar
    20    20    21   ar
    21    21    22   ar
    22    22    23   ar
    23    23    24   ar
    24    13    25   ar
    25    25    26   ar
    26    26    27   ar
    27    27    28    1
    28     9    29    1
    29    29    30    2
    30    30    31    1
    31    30    32    1
    32     8     6    1
    33    27    11   ar
    34    32     6    1
    35    24    19   ar
    36     1    33    1
    37     1    34    1
    38     1    35    1
    39     3    36    1
    40     3    37    1
    41     3    38    1
    42     7    39    1
    43     7    40    1
    44     8    41    1
    45    10    42    1
    46    10    43    1
    47    10    44    1
    48    12    45    1
    49    14    46    1
    50    20    47    1
    51    21    48    1
    52    22    49    1
    53    23    50    1
    54    24    51    1
    55    25    52    1
    56    26    53    1
    57    31    54    1
    58    31    55    1
