@<TRIPOS>MOLECULE
*****
 60 62 0 0 0
SMALL
GASTEIGER

@<TRIPOS>ATOM
      1 C           8.4794   -1.8011    0.9200 C.3     1  UNL1        0.0043
      2 N           7.6422   -0.9175    0.1503 N.am    1  UNL1       -0.2917
      3 C           8.2106    0.0122   -0.7874 C.3     1  UNL1        0.0043
      4 C           6.2234   -0.9828    0.3415 C.2     1  UNL1        0.3019
      5 O           5.9771   -1.8535    1.2011 O.2     1  UNL1       -0.2527
      6 N           5.3070   -0.1585   -0.3676 N.am    1  UNL1       -0.2964
      7 C           3.8962   -0.1288   -0.2645 C.3     1  UNL1        0.0246
      8 C           3.5383    1.2535    0.2612 C.3     1  UNL1       -0.0342
      9 C           2.0985    1.1742    0.7016 C.3     1  UNL1       -0.0485
     10 C           1.2206    0.9272   -0.4996 C.3     1  UNL1       -0.0398
     11 C          -0.1901    0.7812    0.0023 C.3     1  UNL1       -0.0374
     12 C          -1.2065    0.5287   -1.0561 C.3     1  UNL1       -0.0007
     13 N          -2.5329    0.3927   -0.5821 N.3     1  UNL1       -0.2993
     14 C          -3.1461    1.5424   -0.0595 C.3     1  UNL1        0.0147
     15 C          -4.5219    1.4314    0.4551 C.3     1  UNL1        0.0250
     16 N          -4.8844    0.0497    0.7054 N.pl3   1  UNL1       -0.3263
     17 C          -3.8100   -0.8718    1.1060 C.3     1  UNL1        0.0250
     18 C          -2.8211   -0.8658   -0.0148 C.3     1  UNL1        0.0147
     19 C          -6.2448   -0.3167    0.5504 C.ar    1  UNL1        0.0497
     20 C          -6.9888   -0.1963   -0.5931 C.ar    1  UNL1        0.0802
     21 CL         -6.2000    0.4746   -2.0118 Cl      1  UNL1       -0.0801
     22 C          -8.3269   -0.5918   -0.6348 C.ar    1  UNL1        0.0610
     23 CL         -9.1468   -0.3760   -2.1625 Cl      1  UNL1       -0.0820
     24 C          -8.9278   -1.1196    0.4992 C.ar    1  UNL1       -0.0419
     25 C          -8.1739   -1.2384    1.6470 C.ar    1  UNL1       -0.0585
     26 C          -6.8465   -0.8462    1.6894 C.ar    1  UNL1       -0.0391
     27 C           1.6704   -0.1652   -1.3768 C.3     1  UNL1       -0.0485
     28 C           3.1426   -0.3263   -1.5381 C.3     1  UNL1       -0.0342
     29 H           9.4546   -1.2832    1.0948 H       1  UNL1        0.0429
     30 H           7.9582   -2.0043    1.8884 H       1  UNL1        0.0429
     31 H           8.7345   -2.7463    0.4133 H       1  UNL1        0.0429
     32 H           9.2793   -0.2703   -0.9533 H       1  UNL1        0.0429
     33 H           7.6520    0.0928   -1.7430 H       1  UNL1        0.0429
     34 H           8.1611    1.0429   -0.3285 H       1  UNL1        0.0429
     35 H           5.7182    0.5282   -1.0677 H       1  UNL1        0.1505
     36 H           3.5138   -0.8618    0.5041 H       1  UNL1        0.0499
     37 H           3.5642    1.9733   -0.5923 H       1  UNL1        0.0283
     38 H           4.2014    1.6066    1.0627 H       1  UNL1        0.0283
     39 H           2.0081    0.3034    1.3917 H       1  UNL1        0.0269
     40 H           1.7668    2.1161    1.1815 H       1  UNL1        0.0269
     41 H           1.2477    1.8826   -1.0866 H       1  UNL1        0.0301
     42 H          -0.2737   -0.0763    0.7338 H       1  UNL1        0.0280
     43 H          -0.5092    1.6635    0.6064 H       1  UNL1        0.0280
     44 H          -1.1795    1.3674   -1.7871 H       1  UNL1        0.0427
     45 H          -0.9503   -0.4447   -1.5722 H       1  UNL1        0.0427
     46 H          -3.1714    2.3089   -0.8931 H       1  UNL1        0.0442
     47 H          -2.4934    2.0128    0.7027 H       1  UNL1        0.0442
     48 H          -4.5914    1.9330    1.4613 H       1  UNL1        0.0476
     49 H          -5.2743    1.9580   -0.1633 H       1  UNL1        0.0476
     50 H          -4.1532   -1.8857    1.2911 H       1  UNL1        0.0476
     51 H          -3.3625   -0.4067    2.0269 H       1  UNL1        0.0476
     52 H          -1.8773   -1.3208    0.3574 H       1  UNL1        0.0442
     53 H          -3.1965   -1.5404   -0.8134 H       1  UNL1        0.0442
     54 H          -9.9632   -1.3995    0.3810 H       1  UNL1        0.0633
     55 H          -8.6798   -1.6564    2.5097 H       1  UNL1        0.0619
     56 H          -6.3774   -0.9950    2.6508 H       1  UNL1        0.0636
     57 H           1.2217   -0.0309   -2.3877 H       1  UNL1        0.0269
     58 H           1.2530   -1.1320   -1.0048 H       1  UNL1        0.0269
     59 H           3.5617    0.4024   -2.2783 H       1  UNL1        0.0283
     60 H           3.3187   -1.3866   -1.8680 H       1  UNL1        0.0283
@<TRIPOS>BOND
     1     1     2    1
     2     2     3    1
     3     2     4   am
     4     4     5    2
     5     4     6   am
     6     6     7    1
     7     7     8    1
     8     8     9    1
     9     9    10    1
    10    10    11    1
    11    11    12    1
    12    12    13    1
    13    13    14    1
    14    14    15    1
    15    15    16    1
    16    16    17    1
    17    17    18    1
    18    16    19    1
    19    19    20   ar
    20    20    21    1
    21    20    22   ar
    22    22    23    1
    23    22    24   ar
    24    24    25   ar
    25    25    26   ar
    26    10    27    1
    27    27    28    1
    28    28     7    1
    29    18    13    1
    30    26    19   ar
    31     1    29    1
    32     1    30    1
    33     1    31    1
    34     3    32    1
    35     3    33    1
    36     3    34    1
    37     6    35    1
    38     7    36    1
    39     8    37    1
    40     8    38    1
    41     9    39    1
    42     9    40    1
    43    10    41    1
    44    11    42    1
    45    11    43    1
    46    12    44    1
    47    12    45    1
    48    14    46    1
    49    14    47    1
    50    15    48    1
    51    15    49    1
    52    17    50    1
    53    17    51    1
    54    18    52    1
    55    18    53    1
    56    24    54    1
    57    25    55    1
    58    26    56    1
    59    27    57    1
    60    27    58    1
    61    28    59    1
    62    28    60    1
