@<TRIPOS>MOLECULE
*****
 78 83 0 0 0
SMALL
GASTEIGER

@<TRIPOS>ATOM
      1 C         -11.3586    0.9017   -0.4474 C.3     1  UNL1        0.0789
      2 O         -10.7578    1.9805   -1.1134 O.3     1  UNL1       -0.4933
      3 C          -9.3893    2.2351   -1.1148 C.ar    1  UNL1        0.1412
      4 C          -8.4937    1.4259   -0.4444 C.ar    1  UNL1       -0.0104
      5 C          -7.1258    1.6955   -0.4563 C.ar    1  UNL1       -0.0143
      6 C          -6.1908    0.8530    0.2416 C.ar    1  UNL1       -0.0160
      7 C          -6.5365    0.1939    1.4107 C.ar    1  UNL1       -0.0532
      8 C          -5.6419   -0.6160    2.0837 C.ar    1  UNL1       -0.0473
      9 C          -4.3573   -0.8014    1.6125 C.ar    1  UNL1        0.0581
     10 C          -4.0185   -0.1431    0.4484 C.ar    1  UNL1        0.0442
     11 C          -4.9075    0.6690   -0.2308 C.ar    1  UNL1       -0.0321
     12 N          -2.7503   -0.2088   -0.1889 N.pl3   1  UNL1       -0.3124
     13 C          -1.6111   -1.0401    0.0835 C.ar    1  UNL1        0.0529
     14 C          -0.6430   -0.9210   -0.8971 C.ar    1  UNL1       -0.0384
     15 C           0.5357   -1.6443   -0.8169 C.ar    1  UNL1       -0.0557
     16 C           0.7762   -2.4997    0.2380 C.ar    1  UNL1       -0.0311
     17 C           2.0477   -3.2822    0.3293 C.3     1  UNL1        0.0666
     18 C           2.1216   -3.9204    1.7089 C.3     1  UNL1       -0.0474
     19 C           1.9828   -4.4443   -0.6524 C.3     1  UNL1       -0.0474
     20 C           3.2450   -2.4920    0.0421 C.2     1  UNL1        0.2272
     21 O           4.0127   -2.8309   -0.9096 O.2     1  UNL1       -0.2745
     22 N           3.5863   -1.3444    0.7980 N.am    1  UNL1       -0.2848
     23 C           4.7570   -0.6168    0.4807 C.ar    1  UNL1        0.0335
     24 C           5.9173   -0.9974    1.1414 C.ar    1  UNL1       -0.0387
     25 C           7.0954   -0.3475    0.8912 C.ar    1  UNL1       -0.0389
     26 C           7.1378    0.6999   -0.0280 C.ar    1  UNL1        0.0299
     27 N           8.3398    1.3914   -0.3020 N.pl3   1  UNL1       -0.3255
     28 C           8.3619    2.3815   -1.3509 C.3     1  UNL1        0.0357
     29 C           9.8251    2.5695   -1.7587 C.3     1  UNL1        0.0634
     30 O          10.4863    2.9963   -0.6111 O.3     1  UNL1       -0.3767
     31 C          10.6641    1.9869    0.3010 C.3     1  UNL1        0.0634
     32 C           9.5046    1.0724    0.4946 C.3     1  UNL1        0.0357
     33 C           5.9867    1.0728   -0.6790 C.ar    1  UNL1       -0.0389
     34 C           4.7930    0.4079   -0.4198 C.ar    1  UNL1       -0.0387
     35 C          -0.2113   -2.5929    1.1970 C.ar    1  UNL1       -0.0345
     36 C          -1.3975   -1.8935    1.1582 C.ar    1  UNL1        0.0553
     37 N          -2.2459   -2.1801    2.2878 N.am    1  UNL1       -0.2799
     38 C          -3.5601   -1.6903    2.4571 C.2     1  UNL1        0.2501
     39 O          -4.1391   -2.0929    3.5220 O.2     1  UNL1       -0.2698
     40 C          -6.7308    2.8087   -1.1721 C.ar    1  UNL1       -0.0521
     41 C          -7.6208    3.6166   -1.8408 C.ar    1  UNL1       -0.0369
     42 C          -8.9690    3.3411   -1.8223 C.ar    1  UNL1        0.0669
     43 N          -9.9199    4.1643   -2.5087 N.pl3   1  UNL1       -0.3551
     44 H         -12.4246    1.1500   -0.2200 H       1  UNL1        0.0660
     45 H         -11.2734    0.0024   -1.0783 H       1  UNL1        0.0660
     46 H         -10.8558    0.7303    0.5434 H       1  UNL1        0.0660
     47 H          -8.8699    0.5863    0.0859 H       1  UNL1        0.0661
     48 H          -7.5364    0.3440    1.7697 H       1  UNL1        0.0624
     49 H          -5.9178   -1.1348    3.0065 H       1  UNL1        0.0626
     50 H          -4.6225    1.1752   -1.1396 H       1  UNL1        0.0642
     51 H          -2.6190    0.4631   -0.9979 H       1  UNL1        0.1522
     52 H          -0.8584   -0.2432   -1.7124 H       1  UNL1        0.0637
     53 H           1.2901   -1.5503   -1.5831 H       1  UNL1        0.0621
     54 H           1.3505   -4.7146    1.7352 H       1  UNL1        0.0243
     55 H           1.9844   -3.1440    2.4699 H       1  UNL1        0.0243
     56 H           3.0996   -4.4516    1.7962 H       1  UNL1        0.0243
     57 H           0.9421   -4.8049   -0.7669 H       1  UNL1        0.0243
     58 H           2.3691   -4.0401   -1.6189 H       1  UNL1        0.0243
     59 H           2.6694   -5.2292   -0.2761 H       1  UNL1        0.0243
     60 H           2.9942   -1.0211    1.5857 H       1  UNL1        0.1548
     61 H           5.8885   -1.8172    1.8625 H       1  UNL1        0.0637
     62 H           8.0358   -0.6079    1.3831 H       1  UNL1        0.0637
     63 H           7.7922    2.0624   -2.2491 H       1  UNL1        0.0486
     64 H           7.9904    3.3685   -1.0482 H       1  UNL1        0.0486
     65 H          10.2421    1.6339   -2.1613 H       1  UNL1        0.0575
     66 H           9.8272    3.4007   -2.4891 H       1  UNL1        0.0575
     67 H          11.5718    1.3757    0.0245 H       1  UNL1        0.0575
     68 H          10.9479    2.4668    1.2727 H       1  UNL1        0.0575
     69 H           9.1363    1.0903    1.5646 H       1  UNL1        0.0486
     70 H           9.7896   -0.0027    0.3056 H       1  UNL1        0.0486
     71 H           5.9601    1.8875   -1.4087 H       1  UNL1        0.0637
     72 H           3.8713    0.6729   -0.9114 H       1  UNL1        0.0637
     73 H          -0.0436   -3.2570    2.0327 H       1  UNL1        0.0640
     74 H          -1.8223   -2.7937    3.0044 H       1  UNL1        0.1552
     75 H          -5.6751    3.0928   -1.2334 H       1  UNL1        0.0624
     76 H          -7.2892    4.4920   -2.4010 H       1  UNL1        0.0637
     77 H         -10.0597    4.1345   -3.5329 H       1  UNL1        0.1424
     78 H         -10.4855    4.8191   -1.9061 H       1  UNL1        0.1424
@<TRIPOS>BOND
     1     1     2    1
     2     2     3    1
     3     3     4   ar
     4     4     5   ar
     5     5     6    1
     6     6     7   ar
     7     7     8   ar
     8     8     9   ar
     9     9    10   ar
    10    10    11   ar
    11    10    12    1
    12    12    13    1
    13    13    14   ar
    14    14    15   ar
    15    15    16   ar
    16    16    17    1
    17    17    18    1
    18    17    19    1
    19    17    20    1
    20    20    21    2
    21    20    22   am
    22    22    23    1
    23    23    24   ar
    24    24    25   ar
    25    25    26   ar
    26    26    27    1
    27    27    28    1
    28    28    29    1
    29    29    30    1
    30    30    31    1
    31    31    32    1
    32    26    33   ar
    33    33    34   ar
    34    16    35   ar
    35    35    36   ar
    36    36    37    1
    37    37    38   am
    38    38    39    2
    39     5    40   ar
    40    40    41   ar
    41    41    42   ar
    42    42    43    1
    43    42     3   ar
    44    11     6   ar
    45    36    13   ar
    46    38     9    1
    47    34    23   ar
    48    32    27    1
    49     1    44    1
    50     1    45    1
    51     1    46    1
    52     4    47    1
    53     7    48    1
    54     8    49    1
    55    11    50    1
    56    12    51    1
    57    14    52    1
    58    15    53    1
    59    18    54    1
    60    18    55    1
    61    18    56    1
    62    19    57    1
    63    19    58    1
    64    19    59    1
    65    22    60    1
    66    24    61    1
    67    25    62    1
    68    28    63    1
    69    28    64    1
    70    29    65    1
    71    29    66    1
    72    31    67    1
    73    31    68    1
    74    32    69    1
    75    32    70    1
    76    33    71    1
    77    34    72    1
    78    35    73    1
    79    37    74    1
    80    40    75    1
    81    41    76    1
    82    43    77    1
    83    43    78    1
