
     RDKit          3D

 78 83  0  0  0  0  0  0  0  0999 V2000
  -11.3586    0.9017   -0.4474 C   0  0  0  0  0  0  0  0  0  0  0  0
  -10.7578    1.9805   -1.1134 O   0  0  0  0  0  0  0  0  0  0  0  0
   -9.3893    2.2351   -1.1148 C   0  0  0  0  0  0  0  0  0  0  0  0
   -8.4937    1.4259   -0.4444 C   0  0  0  0  0  0  0  0  0  0  0  0
   -7.1258    1.6955   -0.4563 C   0  0  0  0  0  0  0  0  0  0  0  0
   -6.1908    0.8530    0.2416 C   0  0  0  0  0  0  0  0  0  0  0  0
   -6.5365    0.1939    1.4107 C   0  0  0  0  0  0  0  0  0  0  0  0
   -5.6419   -0.6160    2.0837 C   0  0  0  0  0  0  0  0  0  0  0  0
   -4.3573   -0.8014    1.6125 C   0  0  0  0  0  0  0  0  0  0  0  0
   -4.0185   -0.1431    0.4484 C   0  0  0  0  0  0  0  0  0  0  0  0
   -4.9075    0.6690   -0.2308 C   0  0  0  0  0  0  0  0  0  0  0  0
   -2.7503   -0.2088   -0.1889 N   0  0  0  0  0  0  0  0  0  0  0  0
   -1.6111   -1.0401    0.0835 C   0  0  0  0  0  0  0  0  0  0  0  0
   -0.6430   -0.9210   -0.8971 C   0  0  0  0  0  0  0  0  0  0  0  0
    0.5357   -1.6443   -0.8169 C   0  0  0  0  0  0  0  0  0  0  0  0
    0.7762   -2.4997    0.2380 C   0  0  0  0  0  0  0  0  0  0  0  0
    2.0477   -3.2822    0.3293 C   0  0  0  0  0  0  0  0  0  0  0  0
    2.1216   -3.9204    1.7089 C   0  0  0  0  0  0  0  0  0  0  0  0
    1.9828   -4.4443   -0.6524 C   0  0  0  0  0  0  0  0  0  0  0  0
    3.2450   -2.4920    0.0421 C   0  0  0  0  0  0  0  0  0  0  0  0
    4.0127   -2.8309   -0.9096 O   0  0  0  0  0  0  0  0  0  0  0  0
    3.5863   -1.3444    0.7980 N   0  0  0  0  0  0  0  0  0  0  0  0
    4.7570   -0.6168    0.4807 C   0  0  0  0  0  0  0  0  0  0  0  0
    5.9173   -0.9974    1.1414 C   0  0  0  0  0  0  0  0  0  0  0  0
    7.0954   -0.3475    0.8912 C   0  0  0  0  0  0  0  0  0  0  0  0
    7.1378    0.6999   -0.0280 C   0  0  0  0  0  0  0  0  0  0  0  0
    8.3398    1.3914   -0.3020 N   0  0  0  0  0  0  0  0  0  0  0  0
    8.3619    2.3815   -1.3509 C   0  0  0  0  0  0  0  0  0  0  0  0
    9.8251    2.5695   -1.7587 C   0  0  0  0  0  0  0  0  0  0  0  0
   10.4863    2.9963   -0.6111 O   0  0  0  0  0  0  0  0  0  0  0  0
   10.6641    1.9869    0.3010 C   0  0  0  0  0  0  0  0  0  0  0  0
    9.5046    1.0724    0.4946 C   0  0  0  0  0  0  0  0  0  0  0  0
    5.9867    1.0728   -0.6790 C   0  0  0  0  0  0  0  0  0  0  0  0
    4.7930    0.4079   -0.4198 C   0  0  0  0  0  0  0  0  0  0  0  0
   -0.2113   -2.5929    1.1970 C   0  0  0  0  0  0  0  0  0  0  0  0
   -1.3975   -1.8935    1.1582 C   0  0  0  0  0  0  0  0  0  0  0  0
   -2.2459   -2.1801    2.2878 N   0  0  0  0  0  0  0  0  0  0  0  0
   -3.5601   -1.6903    2.4571 C   0  0  0  0  0  0  0  0  0  0  0  0
   -4.1391   -2.0929    3.5220 O   0  0  0  0  0  0  0  0  0  0  0  0
   -6.7308    2.8087   -1.1721 C   0  0  0  0  0  0  0  0  0  0  0  0
   -7.6208    3.6166   -1.8408 C   0  0  0  0  0  0  0  0  0  0  0  0
   -8.9690    3.3411   -1.8223 C   0  0  0  0  0  0  0  0  0  0  0  0
   -9.9199    4.1643   -2.5087 N   0  0  0  0  0  0  0  0  0  0  0  0
  -12.4246    1.1500   -0.2200 H   0  0  0  0  0  0  0  0  0  0  0  0
  -11.2734    0.0024   -1.0783 H   0  0  0  0  0  0  0  0  0  0  0  0
  -10.8558    0.7303    0.5434 H   0  0  0  0  0  0  0  0  0  0  0  0
   -8.8699    0.5863    0.0859 H   0  0  0  0  0  0  0  0  0  0  0  0
   -7.5364    0.3440    1.7697 H   0  0  0  0  0  0  0  0  0  0  0  0
   -5.9178   -1.1348    3.0065 H   0  0  0  0  0  0  0  0  0  0  0  0
   -4.6225    1.1752   -1.1396 H   0  0  0  0  0  0  0  0  0  0  0  0
   -2.6190    0.4631   -0.9979 H   0  0  0  0  0  0  0  0  0  0  0  0
   -0.8584   -0.2432   -1.7124 H   0  0  0  0  0  0  0  0  0  0  0  0
    1.2901   -1.5503   -1.5831 H   0  0  0  0  0  0  0  0  0  0  0  0
    1.3505   -4.7146    1.7352 H   0  0  0  0  0  0  0  0  0  0  0  0
    1.9844   -3.1440    2.4699 H   0  0  0  0  0  0  0  0  0  0  0  0
    3.0996   -4.4516    1.7962 H   0  0  0  0  0  0  0  0  0  0  0  0
    0.9421   -4.8049   -0.7669 H   0  0  0  0  0  0  0  0  0  0  0  0
    2.3691   -4.0401   -1.6189 H   0  0  0  0  0  0  0  0  0  0  0  0
    2.6694   -5.2292   -0.2761 H   0  0  0  0  0  0  0  0  0  0  0  0
    2.9942   -1.0211    1.5857 H   0  0  0  0  0  0  0  0  0  0  0  0
    5.8885   -1.8172    1.8625 H   0  0  0  0  0  0  0  0  0  0  0  0
    8.0358   -0.6079    1.3831 H   0  0  0  0  0  0  0  0  0  0  0  0
    7.7922    2.0624   -2.2491 H   0  0  0  0  0  0  0  0  0  0  0  0
    7.9904    3.3685   -1.0482 H   0  0  0  0  0  0  0  0  0  0  0  0
   10.2421    1.6339   -2.1613 H   0  0  0  0  0  0  0  0  0  0  0  0
    9.8272    3.4007   -2.4891 H   0  0  0  0  0  0  0  0  0  0  0  0
   11.5718    1.3757    0.0245 H   0  0  0  0  0  0  0  0  0  0  0  0
   10.9479    2.4668    1.2727 H   0  0  0  0  0  0  0  0  0  0  0  0
    9.1363    1.0903    1.5646 H   0  0  0  0  0  0  0  0  0  0  0  0
    9.7896   -0.0027    0.3056 H   0  0  0  0  0  0  0  0  0  0  0  0
    5.9601    1.8875   -1.4087 H   0  0  0  0  0  0  0  0  0  0  0  0
    3.8713    0.6729   -0.9114 H   0  0  0  0  0  0  0  0  0  0  0  0
   -0.0436   -3.2570    2.0327 H   0  0  0  0  0  0  0  0  0  0  0  0
   -1.8223   -2.7937    3.0044 H   0  0  0  0  0  0  0  0  0  0  0  0
   -5.6751    3.0928   -1.2334 H   0  0  0  0  0  0  0  0  0  0  0  0
   -7.2892    4.4920   -2.4010 H   0  0  0  0  0  0  0  0  0  0  0  0
  -10.0597    4.1345   -3.5329 H   0  0  0  0  0  0  0  0  0  0  0  0
  -10.4855    4.8191   -1.9061 H   0  0  0  0  0  0  0  0  0  0  0  0
  1  2  1  0
  2  3  1  0
  3  4  2  0
  4  5  1  0
  5  6  1  0
  6  7  2  0
  7  8  1  0
  8  9  2  0
  9 10  1  0
 10 11  2  0
 10 12  1  0
 12 13  1  0
 13 14  2  0
 14 15  1  0
 15 16  2  0
 16 17  1  0
 17 18  1  0
 17 19  1  0
 17 20  1  0
 20 21  2  0
 20 22  1  0
 22 23  1  0
 23 24  2  0
 24 25  1  0
 25 26  2  0
 26 27  1  0
 27 28  1  0
 28 29  1  0
 29 30  1  0
 30 31  1  0
 31 32  1  0
 26 33  1  0
 33 34  2  0
 16 35  1  0
 35 36  2  0
 36 37  1  0
 37 38  1  0
 38 39  2  0
  5 40  2  0
 40 41  1  0
 41 42  2  0
 42 43  1  0
 42  3  1  0
 11  6  1  0
 36 13  1  0
 38  9  1  0
 34 23  1  0
 32 27  1  0
  1 44  1  0
  1 45  1  0
  1 46  1  0
  4 47  1  0
  7 48  1  0
  8 49  1  0
 11 50  1  0
 12 51  1  0
 14 52  1  0
 15 53  1  0
 18 54  1  0
 18 55  1  0
 18 56  1  0
 19 57  1  0
 19 58  1  0
 19 59  1  0
 22 60  1  0
 24 61  1  0
 25 62  1  0
 28 63  1  0
 28 64  1  0
 29 65  1  0
 29 66  1  0
 31 67  1  0
 31 68  1  0
 32 69  1  0
 32 70  1  0
 33 71  1  0
 34 72  1  0
 35 73  1  0
 37 74  1  0
 40 75  1  0
 41 76  1  0
 43 77  1  0
 43 78  1  0
M  END
$$$$
