
     RDKit          3D

 67 72  0  0  0  0  0  0  0  0999 V2000
   -2.2869    4.0405   -0.4956 C   0  0  0  0  0  0  0  0  0  0  0  0
   -1.0356    3.3798   -0.0088 C   0  0  0  0  0  0  0  0  0  0  0  0
    0.0809    4.2113    0.0610 C   0  0  0  0  0  0  0  0  0  0  0  0
    1.2559    3.6283    0.4969 C   0  0  0  0  0  0  0  0  0  0  0  0
    1.3556    2.3013    0.8515 C   0  0  0  0  0  0  0  0  0  0  0  0
    2.6364    1.8092    1.2891 N   0  0  0  0  0  0  0  0  0  0  0  0
    3.5819    1.2754    0.4082 C   0  0  0  0  0  0  0  0  0  0  0  0
    3.2942    1.2267   -0.8133 O   0  0  0  0  0  0  0  0  0  0  0  0
    4.8804    0.7744    0.8348 C   0  0  0  0  0  0  0  0  0  0  0  0
    5.3170    0.7715    2.1386 C   0  0  0  0  0  0  0  0  0  0  0  0
    6.5454    0.2936    2.5134 C   0  0  0  0  0  0  0  0  0  0  0  0
    7.3609   -0.1940    1.5678 N   0  0  0  0  0  0  0  0  0  0  0  0
    7.0240   -0.2371    0.2440 C   0  0  0  0  0  0  0  0  0  0  0  0
    7.9130   -0.7590   -0.7223 N   0  0  0  0  0  0  0  0  0  0  0  0
    7.6629   -0.8742   -2.1295 C   0  0  0  0  0  0  0  0  0  0  0  0
    8.2233   -2.2747   -2.4152 C   0  0  0  0  0  0  0  0  0  0  0  0
    9.2058   -2.5626   -1.3085 C   0  0  0  0  0  0  0  0  0  0  0  0
    9.2335   -1.2728   -0.4889 C   0  0  0  0  0  0  0  0  0  0  0  0
    5.7771    0.2543   -0.0919 C   0  0  0  0  0  0  0  0  0  0  0  0
    0.2341    1.5276    0.7664 C   0  0  0  0  0  0  0  0  0  0  0  0
   -0.9600    2.0589    0.3388 C   0  0  0  0  0  0  0  0  0  0  0  0
   -2.1243    1.2136    0.2727 C   0  0  0  0  0  0  0  0  0  0  0  0
   -3.3035    1.6385    0.8394 C   0  0  0  0  0  0  0  0  0  0  0  0
   -4.4337    0.8294    0.7769 C   0  0  0  0  0  0  0  0  0  0  0  0
   -4.3839   -0.3973    0.1512 C   0  0  0  0  0  0  0  0  0  0  0  0
   -5.3277   -1.3876   -0.0574 C   0  0  0  0  0  0  0  0  0  0  0  0
   -6.7638   -1.3640    0.3854 C   0  0  0  0  0  0  0  0  0  0  0  0
   -7.5693   -0.7577   -0.7146 C   0  0  0  0  0  0  0  0  0  0  0  0
   -8.6046   -1.7700   -1.1667 C   0  0  0  0  0  0  0  0  0  0  0  0
   -9.3922   -2.1454   -0.0341 N   0  0  0  0  0  0  0  0  0  0  0  0
   -8.6387   -2.9589    0.9003 C   0  0  0  0  0  0  0  0  0  0  0  0
   -7.1519   -2.7555    0.7569 C   0  0  0  0  0  0  0  0  0  0  0  0
   -4.6737   -2.3496   -0.7329 N   0  0  0  0  0  0  0  0  0  0  0  0
   -3.4366   -2.0080   -0.9354 O   0  0  0  0  0  0  0  0  0  0  0  0
   -3.2027   -0.8282   -0.4188 C   0  0  0  0  0  0  0  0  0  0  0  0
   -2.0799   -0.0286   -0.3589 C   0  0  0  0  0  0  0  0  0  0  0  0
   -1.9888    4.7967   -1.2717 H   0  0  0  0  0  0  0  0  0  0  0  0
   -2.9878    3.2960   -0.9111 H   0  0  0  0  0  0  0  0  0  0  0  0
   -2.7969    4.6291    0.2860 H   0  0  0  0  0  0  0  0  0  0  0  0
    0.0031    5.2432   -0.2147 H   0  0  0  0  0  0  0  0  0  0  0  0
    2.1334    4.2705    0.5545 H   0  0  0  0  0  0  0  0  0  0  0  0
    2.8614    1.8565    2.3121 H   0  0  0  0  0  0  0  0  0  0  0  0
    4.6657    1.1621    2.9024 H   0  0  0  0  0  0  0  0  0  0  0  0
    6.8239    0.3238    3.5688 H   0  0  0  0  0  0  0  0  0  0  0  0
    6.6184   -0.8057   -2.4333 H   0  0  0  0  0  0  0  0  0  0  0  0
    8.3076   -0.1134   -2.6604 H   0  0  0  0  0  0  0  0  0  0  0  0
    8.7356   -2.3306   -3.3735 H   0  0  0  0  0  0  0  0  0  0  0  0
    7.3707   -2.9886   -2.3098 H   0  0  0  0  0  0  0  0  0  0  0  0
   10.2059   -2.8286   -1.6860 H   0  0  0  0  0  0  0  0  0  0  0  0
    8.8342   -3.3499   -0.6218 H   0  0  0  0  0  0  0  0  0  0  0  0
    9.4712   -1.4576    0.5652 H   0  0  0  0  0  0  0  0  0  0  0  0
    9.9505   -0.5558   -0.9624 H   0  0  0  0  0  0  0  0  0  0  0  0
    5.4545    0.2447   -1.1428 H   0  0  0  0  0  0  0  0  0  0  0  0
    0.3039    0.4849    1.0432 H   0  0  0  0  0  0  0  0  0  0  0  0
   -3.4007    2.5869    1.3442 H   0  0  0  0  0  0  0  0  0  0  0  0
   -5.3385    1.1948    1.2312 H   0  0  0  0  0  0  0  0  0  0  0  0
   -6.7911   -0.7119    1.2896 H   0  0  0  0  0  0  0  0  0  0  0  0
   -8.1257    0.1472   -0.4070 H   0  0  0  0  0  0  0  0  0  0  0  0
   -6.9435   -0.5502   -1.6309 H   0  0  0  0  0  0  0  0  0  0  0  0
   -9.2535   -1.2730   -1.8984 H   0  0  0  0  0  0  0  0  0  0  0  0
   -8.1344   -2.6514   -1.6337 H   0  0  0  0  0  0  0  0  0  0  0  0
   -9.8613   -1.3405    0.3936 H   0  0  0  0  0  0  0  0  0  0  0  0
   -8.9609   -2.7811    1.9465 H   0  0  0  0  0  0  0  0  0  0  0  0
   -8.8367   -4.0230    0.6084 H   0  0  0  0  0  0  0  0  0  0  0  0
   -6.6799   -3.0019    1.7261 H   0  0  0  0  0  0  0  0  0  0  0  0
   -6.7200   -3.4612   -0.0040 H   0  0  0  0  0  0  0  0  0  0  0  0
   -1.1335   -0.3205   -0.7892 H   0  0  0  0  0  0  0  0  0  0  0  0
  1  2  1  0
  2  3  2  0
  3  4  1  0
  4  5  2  0
  5  6  1  0
  6  7  1  0
  7  8  2  0
  7  9  1  0
  9 10  2  0
 10 11  1  0
 11 12  2  0
 12 13  1  0
 13 14  1  0
 14 15  1  0
 15 16  1  0
 16 17  1  0
 17 18  1  0
 13 19  2  0
  5 20  1  0
 20 21  2  0
 21 22  1  0
 22 23  2  0
 23 24  1  0
 24 25  2  0
 25 26  1  0
 26 27  1  0
 27 28  1  0
 28 29  1  0
 29 30  1  0
 30 31  1  0
 31 32  1  0
 26 33  2  0
 33 34  1  0
 34 35  1  0
 35 36  2  0
 21  2  1  0
 36 22  1  0
 19  9  1  0
 35 25  1  0
 18 14  1  0
 32 27  1  0
  1 37  1  0
  1 38  1  0
  1 39  1  0
  3 40  1  0
  4 41  1  0
  6 42  1  0
 10 43  1  0
 11 44  1  0
 15 45  1  0
 15 46  1  0
 16 47  1  0
 16 48  1  0
 17 49  1  0
 17 50  1  0
 18 51  1  0
 18 52  1  0
 19 53  1  0
 20 54  1  0
 23 55  1  0
 24 56  1  0
 27 57  1  0
 28 58  1  0
 28 59  1  0
 29 60  1  0
 29 61  1  0
 30 62  1  0
 31 63  1  0
 31 64  1  0
 32 65  1  0
 32 66  1  0
 36 67  1  0
M  END
$$$$
