@<TRIPOS>MOLECULE
*****
 67 72 0 0 0
SMALL
GASTEIGER

@<TRIPOS>ATOM
      1 C          -2.2869    4.0405   -0.4956 C.3     1  UNL1       -0.0391
      2 C          -1.0356    3.3798   -0.0088 C.ar    1  UNL1       -0.0426
      3 C           0.0809    4.2113    0.0610 C.ar    1  UNL1       -0.0565
      4 C           1.2559    3.6283    0.4969 C.ar    1  UNL1       -0.0402
      5 C           1.3556    2.3013    0.8515 C.ar    1  UNL1        0.0343
      6 N           2.6364    1.8092    1.2891 N.am    1  UNL1       -0.2815
      7 C           3.5819    1.2754    0.4082 C.2     1  UNL1        0.2484
      8 O           3.2942    1.2267   -0.8133 O.2     1  UNL1       -0.2699
      9 C           4.8804    0.7744    0.8348 C.ar    1  UNL1        0.0417
     10 C           5.3170    0.7715    2.1386 C.ar    1  UNL1       -0.0313
     11 C           6.5454    0.2936    2.5134 C.ar    1  UNL1        0.0304
     12 N           7.3609   -0.1940    1.5678 N.ar    1  UNL1       -0.2403
     13 C           7.0240   -0.2371    0.2440 C.ar    1  UNL1        0.1219
     14 N           7.9130   -0.7590   -0.7223 N.pl3   1  UNL1       -0.3152
     15 C           7.6629   -0.8742   -2.1295 C.3     1  UNL1        0.0135
     16 C           8.2233   -2.2747   -2.4152 C.3     1  UNL1       -0.0358
     17 C           9.2058   -2.5626   -1.3085 C.3     1  UNL1       -0.0358
     18 C           9.2335   -1.2728   -0.4889 C.3     1  UNL1        0.0135
     19 C           5.7771    0.2543   -0.0919 C.ar    1  UNL1       -0.0096
     20 C           0.2341    1.5276    0.7664 C.ar    1  UNL1       -0.0325
     21 C          -0.9600    2.0589    0.3388 C.ar    1  UNL1       -0.0131
     22 C          -2.1243    1.2136    0.2727 C.ar    1  UNL1       -0.0140
     23 C          -3.3035    1.6385    0.8394 C.ar    1  UNL1       -0.0532
     24 C          -4.4337    0.8294    0.7769 C.ar    1  UNL1       -0.0486
     25 C          -4.3839   -0.3973    0.1512 C.ar    1  UNL1        0.0446
     26 C          -5.3277   -1.3876   -0.0574 C.ar    1  UNL1        0.0945
     27 C          -6.7638   -1.3640    0.3854 C.3     1  UNL1        0.0075
     28 C          -7.5693   -0.7577   -0.7146 C.3     1  UNL1       -0.0320
     29 C          -8.6046   -1.7700   -1.1667 C.3     1  UNL1       -0.0035
     30 N          -9.3922   -2.1454   -0.0341 N.3     1  UNL1       -0.3159
     31 C          -8.6387   -2.9589    0.9003 C.3     1  UNL1       -0.0035
     32 C          -7.1519   -2.7555    0.7569 C.3     1  UNL1       -0.0320
     33 N          -4.6737   -2.3496   -0.7329 N.ar    1  UNL1       -0.0818
     34 O          -3.4366   -2.0080   -0.9354 O.2     1  UNL1       -0.3544
     35 C          -3.2027   -0.8282   -0.4188 C.ar    1  UNL1        0.1681
     36 C          -2.0799   -0.0286   -0.3589 C.ar    1  UNL1       -0.0083
     37 H          -1.9888    4.7967   -1.2717 H       1  UNL1        0.0278
     38 H          -2.9878    3.2960   -0.9111 H       1  UNL1        0.0278
     39 H          -2.7969    4.6291    0.2860 H       1  UNL1        0.0278
     40 H           0.0031    5.2432   -0.2147 H       1  UNL1        0.0621
     41 H           2.1334    4.2705    0.5545 H       1  UNL1        0.0636
     42 H           2.8614    1.8565    2.3121 H       1  UNL1        0.1551
     43 H           4.6657    1.1621    2.9024 H       1  UNL1        0.0640
     44 H           6.8239    0.3238    3.5688 H       1  UNL1        0.0830
     45 H           6.6184   -0.8057   -2.4333 H       1  UNL1        0.0464
     46 H           8.3076   -0.1134   -2.6604 H       1  UNL1        0.0464
     47 H           8.7356   -2.3306   -3.3735 H       1  UNL1        0.0281
     48 H           7.3707   -2.9886   -2.3098 H       1  UNL1        0.0281
     49 H          10.2059   -2.8286   -1.6860 H       1  UNL1        0.0281
     50 H           8.8342   -3.3499   -0.6218 H       1  UNL1        0.0281
     51 H           9.4712   -1.4576    0.5652 H       1  UNL1        0.0464
     52 H           9.9505   -0.5558   -0.9624 H       1  UNL1        0.0464
     53 H           5.4545    0.2447   -1.1428 H       1  UNL1        0.0659
     54 H           0.3039    0.4849    1.0432 H       1  UNL1        0.0642
     55 H          -3.4007    2.5869    1.3442 H       1  UNL1        0.0624
     56 H          -5.3385    1.1948    1.2312 H       1  UNL1        0.0625
     57 H          -6.7911   -0.7119    1.2896 H       1  UNL1        0.0366
     58 H          -8.1257    0.1472   -0.4070 H       1  UNL1        0.0284
     59 H          -6.9435   -0.5502   -1.6309 H       1  UNL1        0.0284
     60 H          -9.2535   -1.2730   -1.8984 H       1  UNL1        0.0424
     61 H          -8.1344   -2.6514   -1.6337 H       1  UNL1        0.0424
     62 H          -9.8613   -1.3405    0.3936 H       1  UNL1        0.1219
     63 H          -8.9609   -2.7811    1.9465 H       1  UNL1        0.0424
     64 H          -8.8367   -4.0230    0.6084 H       1  UNL1        0.0424
     65 H          -6.6799   -3.0019    1.7261 H       1  UNL1        0.0284
     66 H          -6.7200   -3.4612   -0.0040 H       1  UNL1        0.0284
     67 H          -1.1335   -0.3205   -0.7892 H       1  UNL1        0.0661
@<TRIPOS>BOND
     1     1     2    1
     2     2     3   ar
     3     3     4   ar
     4     4     5   ar
     5     5     6    1
     6     6     7   am
     7     7     8    2
     8     7     9    1
     9     9    10   ar
    10    10    11   ar
    11    11    12   ar
    12    12    13   ar
    13    13    14    1
    14    14    15    1
    15    15    16    1
    16    16    17    1
    17    17    18    1
    18    13    19   ar
    19     5    20   ar
    20    20    21   ar
    21    21    22    1
    22    22    23   ar
    23    23    24   ar
    24    24    25   ar
    25    25    26   ar
    26    26    27    1
    27    27    28    1
    28    28    29    1
    29    29    30    1
    30    30    31    1
    31    31    32    1
    32    26    33   ar
    33    33    34   ar
    34    34    35   ar
    35    35    36   ar
    36    21     2   ar
    37    36    22   ar
    38    19     9   ar
    39    35    25   ar
    40    18    14    1
    41    32    27    1
    42     1    37    1
    43     1    38    1
    44     1    39    1
    45     3    40    1
    46     4    41    1
    47     6    42    1
    48    10    43    1
    49    11    44    1
    50    15    45    1
    51    15    46    1
    52    16    47    1
    53    16    48    1
    54    17    49    1
    55    17    50    1
    56    18    51    1
    57    18    52    1
    58    19    53    1
    59    20    54    1
    60    23    55    1
    61    24    56    1
    62    27    57    1
    63    28    58    1
    64    28    59    1
    65    29    60    1
    66    29    61    1
    67    30    62    1
    68    31    63    1
    69    31    64    1
    70    32    65    1
    71    32    66    1
    72    36    67    1
