
     RDKit          3D

 47 50  0  0  0  0  0  0  0  0999 V2000
    4.7816    0.6853   -2.3632 C   0  0  0  0  0  0  0  0  0  0  0  0
    4.1158    0.7924   -1.0826 N   0  0  0  0  0  0  0  0  0  0  0  0
    4.0676    2.0894   -0.4120 C   0  0  0  0  0  0  0  0  0  0  0  0
    3.5119   -0.3339   -0.4748 C   0  0  0  0  0  0  0  0  0  0  0  0
    3.5590   -1.4310   -1.0654 O   0  0  0  0  0  0  0  0  0  0  0  0
    2.8576   -0.1666    0.8201 C   0  0  0  0  0  0  0  0  0  0  0  0
    3.4589    0.1844    2.0218 C   0  0  0  0  0  0  0  0  0  0  0  0
    2.5074    0.2336    2.9629 N   0  0  0  0  0  0  0  0  0  0  0  0
    1.3248   -0.0720    2.4069 C   0  0  0  0  0  0  0  0  0  0  0  0
    0.0241   -0.1762    2.8866 C   0  0  0  0  0  0  0  0  0  0  0  0
   -0.9608   -0.5230    1.9903 C   0  0  0  0  0  0  0  0  0  0  0  0
   -0.7169   -0.7700    0.6460 C   0  0  0  0  0  0  0  0  0  0  0  0
   -1.7997   -1.1243   -0.2470 C   0  0  0  0  0  0  0  0  0  0  0  0
   -2.7552   -0.2807   -0.7397 C   0  0  0  0  0  0  0  0  0  0  0  0
   -2.9046    1.1448   -0.5174 C   0  0  0  0  0  0  0  0  0  0  0  0
   -2.7585    1.9902   -1.6336 C   0  0  0  0  0  0  0  0  0  0  0  0
   -2.8863    3.3482   -1.5182 C   0  0  0  0  0  0  0  0  0  0  0  0
   -3.1606    3.9349   -0.3138 C   0  0  0  0  0  0  0  0  0  0  0  0
   -3.2893    5.3021   -0.1930 F   0  0  0  0  0  0  0  0  0  0  0  0
   -3.3073    3.1211    0.7928 C   0  0  0  0  0  0  0  0  0  0  0  0
   -3.1755    1.7489    0.6608 C   0  0  0  0  0  0  0  0  0  0  0  0
   -3.5729   -1.0441   -1.5301 N   0  0  0  0  0  0  0  0  0  0  0  0
   -3.1361   -2.3059   -1.5230 C   0  0  0  0  0  0  0  0  0  0  0  0
   -2.0452   -2.3717   -0.7383 N   0  0  0  0  0  0  0  0  0  0  0  0
   -1.2782   -3.5391   -0.4676 C   0  0  0  0  0  0  0  0  0  0  0  0
   -1.7219   -4.3516    0.7119 C   0  0  0  0  0  0  0  0  0  0  0  0
   -1.6701   -3.6104    1.8548 F   0  0  0  0  0  0  0  0  0  0  0  0
   -0.8026   -5.4034    0.8322 F   0  0  0  0  0  0  0  0  0  0  0  0
    0.5590   -0.6525    0.2491 N   0  0  0  0  0  0  0  0  0  0  0  0
    1.5344   -0.3155    1.1073 N   0  0  0  0  0  0  0  0  0  0  0  0
    4.6074   -0.3081   -2.8050 H   0  0  0  0  0  0  0  0  0  0  0  0
    4.4439    1.4787   -3.0429 H   0  0  0  0  0  0  0  0  0  0  0  0
    5.8677    0.8198   -2.1802 H   0  0  0  0  0  0  0  0  0  0  0  0
    4.8310    2.0531    0.4107 H   0  0  0  0  0  0  0  0  0  0  0  0
    3.0614    2.3203   -0.0399 H   0  0  0  0  0  0  0  0  0  0  0  0
    4.4028    2.8923   -1.0915 H   0  0  0  0  0  0  0  0  0  0  0  0
    4.5343    0.3811    2.1479 H   0  0  0  0  0  0  0  0  0  0  0  0
   -0.1526    0.0168    3.9245 H   0  0  0  0  0  0  0  0  0  0  0  0
   -1.9633   -0.6005    2.4134 H   0  0  0  0  0  0  0  0  0  0  0  0
   -2.5435    1.5460   -2.5884 H   0  0  0  0  0  0  0  0  0  0  0  0
   -2.7754    4.0225   -2.3809 H   0  0  0  0  0  0  0  0  0  0  0  0
   -3.5265    3.5808    1.7645 H   0  0  0  0  0  0  0  0  0  0  0  0
   -3.3051    1.1389    1.5598 H   0  0  0  0  0  0  0  0  0  0  0  0
   -3.6132   -3.0969   -2.0707 H   0  0  0  0  0  0  0  0  0  0  0  0
   -1.3264   -4.1944   -1.3871 H   0  0  0  0  0  0  0  0  0  0  0  0
   -0.1902   -3.3220   -0.3072 H   0  0  0  0  0  0  0  0  0  0  0  0
   -2.7127   -4.8321    0.5493 H   0  0  0  0  0  0  0  0  0  0  0  0
  1  2  1  0
  2  3  1  0
  2  4  1  0
  4  5  2  0
  4  6  1  0
  6  7  2  0
  7  8  1  0
  8  9  2  0
  9 10  1  0
 10 11  2  0
 11 12  1  0
 12 13  1  0
 13 14  2  0
 14 15  1  0
 15 16  2  0
 16 17  1  0
 17 18  2  0
 18 19  1  0
 18 20  1  0
 20 21  2  0
 14 22  1  0
 22 23  2  0
 23 24  1  0
 24 25  1  0
 25 26  1  0
 26 27  1  0
 26 28  1  0
 12 29  2  0
 29 30  1  0
 30  6  1  0
 30  9  1  0
 24 13  1  0
 21 15  1  0
  1 31  1  0
  1 32  1  0
  1 33  1  0
  3 34  1  0
  3 35  1  0
  3 36  1  0
  7 37  1  0
 10 38  1  0
 11 39  1  0
 16 40  1  0
 17 41  1  0
 20 42  1  0
 21 43  1  0
 23 44  1  0
 25 45  1  0
 25 46  1  0
 26 47  1  0
M  END
$$$$
