@<TRIPOS>MOLECULE
*****
 47 50 0 0 0
SMALL
GASTEIGER

@<TRIPOS>ATOM
      1 C           4.7816    0.6853   -2.3632 C.3     1  UNL1        0.0032
      2 N           4.1158    0.7924   -1.0826 N.am    1  UNL1       -0.3023
      3 C           4.0676    2.0894   -0.4120 C.3     1  UNL1        0.0032
      4 C           3.5119   -0.3339   -0.4748 C.2     1  UNL1        0.2661
      5 O           3.5590   -1.4310   -1.0654 O.2     1  UNL1       -0.2683
      6 C           2.8576   -0.1666    0.8201 C.ar    1  UNL1        0.1474
      7 C           3.4589    0.1844    2.0218 C.ar    1  UNL1        0.0605
      8 N           2.5074    0.2336    2.9629 N.ar    1  UNL1       -0.2339
      9 C           1.3248   -0.0720    2.4069 C.ar    1  UNL1        0.1549
     10 C           0.0241   -0.1762    2.8866 C.ar    1  UNL1       -0.0153
     11 C          -0.9608   -0.5230    1.9903 C.ar    1  UNL1       -0.0290
     12 C          -0.7169   -0.7700    0.6460 C.ar    1  UNL1        0.1103
     13 C          -1.7997   -1.1243   -0.2470 C.ar    1  UNL1        0.0968
     14 C          -2.7552   -0.2807   -0.7397 C.ar    1  UNL1        0.0982
     15 C          -2.9046    1.1448   -0.5174 C.ar    1  UNL1        0.0027
     16 C          -2.7585    1.9902   -1.6336 C.ar    1  UNL1       -0.0498
     17 C          -2.8863    3.3482   -1.5182 C.ar    1  UNL1       -0.0258
     18 C          -3.1606    3.9349   -0.3138 C.ar    1  UNL1        0.1234
     19 F          -3.2893    5.3021   -0.1930 F       1  UNL1       -0.2055
     20 C          -3.3073    3.1211    0.7928 C.ar    1  UNL1       -0.0258
     21 C          -3.1755    1.7489    0.6608 C.ar    1  UNL1       -0.0498
     22 N          -3.5729   -1.0441   -1.5301 N.ar    1  UNL1       -0.2351
     23 C          -3.1361   -2.3059   -1.5230 C.ar    1  UNL1        0.0973
     24 N          -2.0452   -2.3717   -0.7383 N.ar    1  UNL1       -0.3229
     25 C          -1.2782   -3.5391   -0.4676 C.3     1  UNL1        0.0852
     26 C          -1.7219   -4.3516    0.7119 C.3     1  UNL1        0.2569
     27 F          -1.6701   -3.6104    1.8548 F       1  UNL1       -0.2073
     28 F          -0.8026   -5.4034    0.8322 F       1  UNL1       -0.2073
     29 N           0.5590   -0.6525    0.2491 N.ar    1  UNL1       -0.1628
     30 N           1.5344   -0.3155    1.1073 N.ar    1  UNL1       -0.2076
     31 H           4.6074   -0.3081   -2.8050 H       1  UNL1        0.0428
     32 H           4.4439    1.4787   -3.0429 H       1  UNL1        0.0428
     33 H           5.8677    0.8198   -2.1802 H       1  UNL1        0.0428
     34 H           4.8310    2.0531    0.4107 H       1  UNL1        0.0428
     35 H           3.0614    2.3203   -0.0399 H       1  UNL1        0.0428
     36 H           4.4028    2.8923   -1.0915 H       1  UNL1        0.0428
     37 H           4.5343    0.3811    2.1479 H       1  UNL1        0.0854
     38 H          -0.1526    0.0168    3.9245 H       1  UNL1        0.0655
     39 H          -1.9633   -0.6005    2.4134 H       1  UNL1        0.0641
     40 H          -2.5435    1.5460   -2.5884 H       1  UNL1        0.0625
     41 H          -2.7754    4.0225   -2.3809 H       1  UNL1        0.0646
     42 H          -3.5265    3.5808    1.7645 H       1  UNL1        0.0646
     43 H          -3.3051    1.1389    1.5598 H       1  UNL1        0.0625
     44 H          -3.6132   -3.0969   -2.0707 H       1  UNL1        0.1029
     45 H          -1.3264   -4.1944   -1.3871 H       1  UNL1        0.0548
     46 H          -0.1902   -3.3220   -0.3072 H       1  UNL1        0.0548
     47 H          -2.7127   -4.8321    0.5493 H       1  UNL1        0.1037
@<TRIPOS>BOND
     1     1     2    1
     2     2     3    1
     3     2     4   am
     4     4     5    2
     5     4     6    1
     6     6     7   ar
     7     7     8   ar
     8     8     9   ar
     9     9    10   ar
    10    10    11   ar
    11    11    12   ar
    12    12    13    1
    13    13    14   ar
    14    14    15    1
    15    15    16   ar
    16    16    17   ar
    17    17    18   ar
    18    18    19    1
    19    18    20   ar
    20    20    21   ar
    21    14    22   ar
    22    22    23   ar
    23    23    24   ar
    24    24    25    1
    25    25    26    1
    26    26    27    1
    27    26    28    1
    28    12    29   ar
    29    29    30   ar
    30    30     6   ar
    31    30     9   ar
    32    24    13   ar
    33    21    15   ar
    34     1    31    1
    35     1    32    1
    36     1    33    1
    37     3    34    1
    38     3    35    1
    39     3    36    1
    40     7    37    1
    41    10    38    1
    42    11    39    1
    43    16    40    1
    44    17    41    1
    45    20    42    1
    46    21    43    1
    47    23    44    1
    48    25    45    1
    49    25    46    1
    50    26    47    1
