@<TRIPOS>MOLECULE
*****
 76 82 0 0 0
SMALL
GASTEIGER

@<TRIPOS>ATOM
      1 C           8.4591    2.9891   -0.8147 C.3     1  UNL1       -0.0524
      2 C           8.0778    1.5868   -0.4301 C.3     1  UNL1       -0.0039
      3 N           6.7619    1.2286   -0.8900 N.3     1  UNL1       -0.3002
      4 C           5.7808    1.9853   -0.1633 C.3     1  UNL1        0.0117
      5 C           4.5262    1.1746    0.1647 C.3     1  UNL1        0.0122
      6 N           4.1794    0.2982   -0.8931 N.3     1  UNL1       -0.2916
      7 C           3.1143    0.6114   -1.7454 C.3     1  UNL1        0.0761
      8 C           1.7646    0.5009   -1.1445 C.2     1  UNL1        0.2313
      9 O           0.7144    0.7489   -1.7525 O.2     1  UNL1       -0.2741
     10 N           1.6502    0.0786    0.2054 N.am    1  UNL1       -0.2839
     11 C           0.4094   -0.0851    0.8650 C.ar    1  UNL1        0.0423
     12 C          -0.1497    1.0230    1.4113 C.ar    1  UNL1       -0.0392
     13 C          -1.3492    1.0534    2.0835 C.ar    1  UNL1       -0.0511
     14 C          -2.0053   -0.1594    2.1888 C.ar    1  UNL1        0.0001
     15 C          -3.2843   -0.3359    2.8816 C.ar    1  UNL1        0.0263
     16 C          -3.3602   -0.6257    4.2248 C.ar    1  UNL1       -0.0504
     17 C          -4.5961   -0.8212    4.8481 C.ar    1  UNL1       -0.0603
     18 C          -5.7627   -0.7265    4.1214 C.ar    1  UNL1       -0.0473
     19 C          -5.6906   -0.4356    2.7758 C.ar    1  UNL1        0.0647
     20 C          -6.8292   -0.3337    2.0134 C.ar    1  UNL1        0.1944
     21 O          -7.9574   -0.5049    2.5343 O.2     1  UNL1       -0.2870
     22 C          -6.6570   -0.0374    0.6677 C.ar    1  UNL1        0.0434
     23 C          -5.4244    0.1530    0.0837 C.ar    1  UNL1        0.1931
     24 N          -5.2517    0.4563   -1.2828 N.pl3   1  UNL1       -0.2969
     25 C          -6.3036    0.4759   -2.2473 C.3     1  UNL1        0.0383
     26 C          -6.3277    1.8815   -2.8427 C.3     1  UNL1        0.0635
     27 O          -5.3647    2.6845   -2.2805 O.3     1  UNL1       -0.3767
     28 C          -4.0635    2.2333   -2.4144 C.3     1  UNL1        0.0635
     29 C          -3.9233    0.8212   -1.8103 C.3     1  UNL1        0.0383
     30 O          -4.3612    0.0365    0.8869 O.2     1  UNL1       -0.4405
     31 C          -4.4481   -0.2400    2.1580 C.ar    1  UNL1        0.1485
     32 C          -1.4278   -1.2900    1.6277 C.ar    1  UNL1        0.0301
     33 S          -2.0017   -3.0151    1.5819 S.2     1  UNL1       -0.0876
     34 C          -0.6248   -3.6377    0.6911 C.ar    1  UNL1        0.0206
     35 C          -0.3385   -4.9318    0.2691 C.ar    1  UNL1       -0.0474
     36 C           0.8179   -5.1823   -0.4110 C.ar    1  UNL1       -0.0607
     37 C           1.6493   -4.1237   -0.6463 C.ar    1  UNL1       -0.0611
     38 C           1.3474   -2.8612   -0.2236 C.ar    1  UNL1       -0.0529
     39 C           0.1685   -2.5444    0.4825 C.ar    1  UNL1       -0.0013
     40 C          -0.2456   -1.3477    0.9607 C.ar    1  UNL1        0.0187
     41 C           5.2406   -0.5140   -1.3818 C.3     1  UNL1        0.0122
     42 C           6.5504   -0.1822   -0.6487 C.3     1  UNL1        0.0117
     43 H           7.7240    3.3766   -1.5464 H       1  UNL1        0.0242
     44 H           8.4694    3.6437    0.0744 H       1  UNL1        0.0242
     45 H           9.4845    2.9982   -1.2537 H       1  UNL1        0.0242
     46 H           8.7768    0.8430   -0.8259 H       1  UNL1        0.0424
     47 H           8.0569    1.4774    0.6875 H       1  UNL1        0.0424
     48 H           5.4920    2.9116   -0.7265 H       1  UNL1        0.0439
     49 H           6.2217    2.3163    0.7916 H       1  UNL1        0.0439
     50 H           3.7108    1.8979    0.3376 H       1  UNL1        0.0439
     51 H           4.6957    0.6251    1.1373 H       1  UNL1        0.0439
     52 H           3.1677   -0.0848   -2.6418 H       1  UNL1        0.0522
     53 H           3.1807    1.6249   -2.2221 H       1  UNL1        0.0522
     54 H           2.4958   -0.1314    0.7843 H       1  UNL1        0.1549
     55 H           0.3554    1.9918    1.3377 H       1  UNL1        0.0636
     56 H          -1.7862    1.9178    2.5115 H       1  UNL1        0.0625
     57 H          -2.4519   -0.7001    4.7846 H       1  UNL1        0.0625
     58 H          -4.6536   -1.0462    5.8887 H       1  UNL1        0.0618
     59 H          -6.7503   -0.8713    4.5589 H       1  UNL1        0.0626
     60 H          -7.5577    0.0406    0.0843 H       1  UNL1        0.0707
     61 H          -7.3107    0.2675   -1.8581 H       1  UNL1        0.0487
     62 H          -6.1095   -0.2221   -3.1033 H       1  UNL1        0.0487
     63 H          -7.3096    2.3387   -2.6502 H       1  UNL1        0.0575
     64 H          -6.1979    1.8669   -3.9485 H       1  UNL1        0.0575
     65 H          -3.6860    2.2177   -3.4400 H       1  UNL1        0.0575
     66 H          -3.4205    2.9516   -1.8361 H       1  UNL1        0.0575
     67 H          -3.1696    0.8682   -1.0200 H       1  UNL1        0.0487
     68 H          -3.6538    0.1464   -2.6305 H       1  UNL1        0.0487
     69 H          -1.0735   -5.6815    0.5156 H       1  UNL1        0.0629
     70 H           1.0278   -6.1859   -0.7349 H       1  UNL1        0.0618
     71 H           2.5934   -4.3169   -1.2003 H       1  UNL1        0.0618
     72 H           2.0990   -2.1098   -0.4622 H       1  UNL1        0.0624
     73 H           5.0203   -1.5830   -1.1707 H       1  UNL1        0.0439
     74 H           5.3920   -0.3253   -2.4410 H       1  UNL1        0.0439
     75 H           7.3437   -0.8345   -1.0215 H       1  UNL1        0.0439
     76 H           6.3593   -0.3146    0.4263 H       1  UNL1        0.0439
@<TRIPOS>BOND
     1     1     2    1
     2     2     3    1
     3     3     4    1
     4     4     5    1
     5     5     6    1
     6     6     7    1
     7     7     8    1
     8     8     9    2
     9     8    10   am
    10    10    11    1
    11    11    12   ar
    12    12    13   ar
    13    13    14   ar
    14    14    15    1
    15    15    16   ar
    16    16    17   ar
    17    17    18   ar
    18    18    19   ar
    19    19    20   ar
    20    20    21    2
    21    20    22   ar
    22    22    23   ar
    23    23    24    1
    24    24    25    1
    25    25    26    1
    26    26    27    1
    27    27    28    1
    28    28    29    1
    29    23    30   ar
    30    30    31   ar
    31    14    32   ar
    32    32    33   ar
    33    33    34   ar
    34    34    35   ar
    35    35    36   ar
    36    36    37   ar
    37    37    38   ar
    38    38    39   ar
    39    39    40   ar
    40     6    41    1
    41    41    42    1
    42    42     3    1
    43    40    11   ar
    44    31    15   ar
    45    40    32   ar
    46    31    19   ar
    47    39    34   ar
    48    29    24    1
    49     1    43    1
    50     1    44    1
    51     1    45    1
    52     2    46    1
    53     2    47    1
    54     4    48    1
    55     4    49    1
    56     5    50    1
    57     5    51    1
    58     7    52    1
    59     7    53    1
    60    10    54    1
    61    12    55    1
    62    13    56    1
    63    16    57    1
    64    17    58    1
    65    18    59    1
    66    22    60    1
    67    25    61    1
    68    25    62    1
    69    26    63    1
    70    26    64    1
    71    28    65    1
    72    28    66    1
    73    29    67    1
    74    29    68    1
    75    35    69    1
    76    36    70    1
    77    37    71    1
    78    38    72    1
    79    41    73    1
    80    41    74    1
    81    42    75    1
    82    42    76    1
