@<TRIPOS>MOLECULE
*****
 29 31 0 0 0
SMALL
GASTEIGER

@<TRIPOS>ATOM
      1 N           0.8916   -2.3446    0.1683 N.pl3   1  UNL1       -0.3572
      2 C           0.6124   -0.9554    0.2536 C.ar    1  UNL1        0.0388
      3 C          -0.6446   -0.4980    0.4530 C.ar    1  UNL1       -0.0049
      4 C          -0.9309    0.8570    0.5382 C.ar    1  UNL1        0.0469
      5 N           0.0657    1.7177    0.4191 N.ar    1  UNL1       -0.2512
      6 C           1.3368    1.2816    0.2183 C.ar    1  UNL1        0.0730
      7 C           2.3787    2.2033    0.0945 C.ar    1  UNL1       -0.0357
      8 C           3.6758    1.7800   -0.1097 C.ar    1  UNL1       -0.0597
      9 C           3.9537    0.4284   -0.1936 C.ar    1  UNL1       -0.0610
     10 C           2.9511   -0.5093   -0.0760 C.ar    1  UNL1       -0.0508
     11 C           1.6462   -0.0600    0.1301 C.ar    1  UNL1        0.0213
     12 C          -2.3541    1.2093    0.7586 C.3     1  UNL1       -0.0101
     13 C          -3.1588    0.4835   -0.2999 C.3     1  UNL1       -0.0473
     14 C          -2.8520   -0.9648   -0.4023 C.3     1  UNL1       -0.0486
     15 C          -1.8021   -1.4188    0.5938 C.3     1  UNL1       -0.0242
     16 H           1.3878   -2.8840    0.8892 H       1  UNL1        0.1423
     17 H           0.5640   -2.8381   -0.6917 H       1  UNL1        0.1423
     18 H           2.1038    3.2582    0.1686 H       1  UNL1        0.0639
     19 H           4.4505    2.5460   -0.1992 H       1  UNL1        0.0618
     20 H           4.9813    0.0957   -0.3553 H       1  UNL1        0.0618
     21 H           3.1109   -1.5745   -0.1335 H       1  UNL1        0.0625
     22 H          -2.5481    2.2807    0.6615 H       1  UNL1        0.0328
     23 H          -2.6335    0.8115    1.7741 H       1  UNL1        0.0328
     24 H          -4.2375    0.7121   -0.1242 H       1  UNL1        0.0269
     25 H          -2.9048    0.9913   -1.2753 H       1  UNL1        0.0269
     26 H          -2.5356   -1.2291   -1.4421 H       1  UNL1        0.0269
     27 H          -3.7521   -1.6155   -0.2049 H       1  UNL1        0.0269
     28 H          -1.4755   -2.4363    0.3974 H       1  UNL1        0.0314
     29 H          -2.2805   -1.3281    1.6009 H       1  UNL1        0.0314
@<TRIPOS>BOND
     1     1     2    1
     2     2     3   ar
     3     3     4   ar
     4     4     5   ar
     5     5     6   ar
     6     6     7   ar
     7     7     8   ar
     8     8     9   ar
     9     9    10   ar
    10    10    11   ar
    11     4    12    1
    12    12    13    1
    13    13    14    1
    14    14    15    1
    15    11     2   ar
    16    15     3    1
    17    11     6   ar
    18     1    16    1
    19     1    17    1
    20     7    18    1
    21     8    19    1
    22     9    20    1
    23    10    21    1
    24    12    22    1
    25    12    23    1
    26    13    24    1
    27    13    25    1
    28    14    26    1
    29    14    27    1
    30    15    28    1
    31    15    29    1
