
     RDKit          3D

 29 31  0  0  0  0  0  0  0  0999 V2000
    0.8916   -2.3446    0.1683 N   0  0  0  0  0  0  0  0  0  0  0  0
    0.6124   -0.9554    0.2536 C   0  0  0  0  0  0  0  0  0  0  0  0
   -0.6446   -0.4980    0.4530 C   0  0  0  0  0  0  0  0  0  0  0  0
   -0.9309    0.8570    0.5382 C   0  0  0  0  0  0  0  0  0  0  0  0
    0.0657    1.7177    0.4191 N   0  0  0  0  0  0  0  0  0  0  0  0
    1.3368    1.2816    0.2183 C   0  0  0  0  0  0  0  0  0  0  0  0
    2.3787    2.2033    0.0945 C   0  0  0  0  0  0  0  0  0  0  0  0
    3.6758    1.7800   -0.1097 C   0  0  0  0  0  0  0  0  0  0  0  0
    3.9537    0.4284   -0.1936 C   0  0  0  0  0  0  0  0  0  0  0  0
    2.9511   -0.5093   -0.0760 C   0  0  0  0  0  0  0  0  0  0  0  0
    1.6462   -0.0600    0.1301 C   0  0  0  0  0  0  0  0  0  0  0  0
   -2.3541    1.2093    0.7586 C   0  0  0  0  0  0  0  0  0  0  0  0
   -3.1588    0.4835   -0.2999 C   0  0  0  0  0  0  0  0  0  0  0  0
   -2.8520   -0.9648   -0.4023 C   0  0  0  0  0  0  0  0  0  0  0  0
   -1.8021   -1.4188    0.5938 C   0  0  0  0  0  0  0  0  0  0  0  0
    1.3878   -2.8840    0.8892 H   0  0  0  0  0  0  0  0  0  0  0  0
    0.5640   -2.8381   -0.6917 H   0  0  0  0  0  0  0  0  0  0  0  0
    2.1038    3.2582    0.1686 H   0  0  0  0  0  0  0  0  0  0  0  0
    4.4505    2.5460   -0.1992 H   0  0  0  0  0  0  0  0  0  0  0  0
    4.9813    0.0957   -0.3553 H   0  0  0  0  0  0  0  0  0  0  0  0
    3.1109   -1.5745   -0.1335 H   0  0  0  0  0  0  0  0  0  0  0  0
   -2.5481    2.2807    0.6615 H   0  0  0  0  0  0  0  0  0  0  0  0
   -2.6335    0.8115    1.7741 H   0  0  0  0  0  0  0  0  0  0  0  0
   -4.2375    0.7121   -0.1242 H   0  0  0  0  0  0  0  0  0  0  0  0
   -2.9048    0.9913   -1.2753 H   0  0  0  0  0  0  0  0  0  0  0  0
   -2.5356   -1.2291   -1.4421 H   0  0  0  0  0  0  0  0  0  0  0  0
   -3.7521   -1.6155   -0.2049 H   0  0  0  0  0  0  0  0  0  0  0  0
   -1.4755   -2.4363    0.3974 H   0  0  0  0  0  0  0  0  0  0  0  0
   -2.2805   -1.3281    1.6009 H   0  0  0  0  0  0  0  0  0  0  0  0
  1  2  1  0
  2  3  2  0
  3  4  1  0
  4  5  2  0
  5  6  1  0
  6  7  2  0
  7  8  1  0
  8  9  2  0
  9 10  1  0
 10 11  2  0
  4 12  1  0
 12 13  1  0
 13 14  1  0
 14 15  1  0
 11  2  1  0
 15  3  1  0
 11  6  1  0
  1 16  1  0
  1 17  1  0
  7 18  1  0
  8 19  1  0
  9 20  1  0
 10 21  1  0
 12 22  1  0
 12 23  1  0
 13 24  1  0
 13 25  1  0
 14 26  1  0
 14 27  1  0
 15 28  1  0
 15 29  1  0
M  END
$$$$
