@<TRIPOS>MOLECULE
*****
 42 41 0 0 0
SMALL
GASTEIGER

@<TRIPOS>ATOM
      1 C           4.8400   -0.8273    0.2915 C.3     1  UNL1       -0.0653
      2 C           5.0749    0.5604   -0.2209 C.3     1  UNL1       -0.0559
      3 C           3.9520    1.0393   -1.0406 C.3     1  UNL1       -0.0521
      4 C           2.6094    1.1739   -0.5059 C.3     1  UNL1       -0.0402
      5 C           1.8630    0.0354    0.0450 C.3     1  UNL1       -0.0014
      6 N           0.5436    0.3975    0.4926 N.3     1  UNL1       -0.3052
      7 C           0.4238    1.2242    1.6099 C.3     1  UNL1       -0.0128
      8 C          -0.5576   -0.1312   -0.1606 C.3     1  UNL1        0.0024
      9 C          -1.8431    0.3857    0.4404 C.3     1  UNL1        0.0119
     10 C          -2.9809   -0.2294   -0.3211 C.3     1  UNL1        0.2682
     11 O          -2.8420    0.1574   -1.6500 O.3     1  UNL1       -0.3671
     12 P          -2.9524   -2.0295   -0.1685 P.3     1  UNL1        0.3710
     13 O          -2.2599   -2.7619   -1.5216 O.3     1  UNL1       -0.3217
     14 O          -2.0874   -2.3977    1.2420 O.3     1  UNL1       -0.3217
     15 O          -4.3534   -2.5691    0.0261 O.2     1  UNL1       -0.2551
     16 P          -4.5865    0.3900    0.2433 P.3     1  UNL1        0.3710
     17 O          -4.6514    0.6682    1.8863 O.3     1  UNL1       -0.3217
     18 O          -5.7823   -0.7456   -0.2004 O.3     1  UNL1       -0.3217
     19 O          -4.9017    1.6539   -0.5136 O.2     1  UNL1       -0.2551
     20 H           4.0998   -1.3995   -0.2912 H       1  UNL1        0.0230
     21 H           5.8261   -1.3791    0.2362 H       1  UNL1        0.0230
     22 H           4.6201   -0.8264    1.3851 H       1  UNL1        0.0230
     23 H           5.9750    0.4904   -0.9049 H       1  UNL1        0.0263
     24 H           5.4257    1.2613    0.5621 H       1  UNL1        0.0263
     25 H           4.2751    2.0278   -1.4904 H       1  UNL1        0.0266
     26 H           3.9474    0.3781   -1.9631 H       1  UNL1        0.0266
     27 H           1.9560    1.6520   -1.2935 H       1  UNL1        0.0278
     28 H           2.6097    1.9682    0.3025 H       1  UNL1        0.0278
     29 H           1.7376   -0.8031   -0.6744 H       1  UNL1        0.0426
     30 H           2.3225   -0.4338    0.9533 H       1  UNL1        0.0426
     31 H           1.3534    1.6171    2.0327 H       1  UNL1        0.0391
     32 H          -0.0246    0.6097    2.4466 H       1  UNL1        0.0391
     33 H          -0.2872    2.0888    1.5218 H       1  UNL1        0.0391
     34 H          -0.6405    0.0599   -1.2494 H       1  UNL1        0.0428
     35 H          -0.5350   -1.2469   -0.0730 H       1  UNL1        0.0428
     36 H          -1.9195    0.2073    1.5218 H       1  UNL1        0.0318
     37 H          -1.9074    1.4841    0.3022 H       1  UNL1        0.0318
     38 H          -2.9663    1.1389   -1.6799 H       1  UNL1        0.2117
     39 H          -2.5047   -2.2920   -2.3533 H       1  UNL1        0.2198
     40 H          -2.1514   -3.3566    1.4231 H       1  UNL1        0.2198
     41 H          -4.9139    1.6078    2.0524 H       1  UNL1        0.2198
     42 H          -5.8061   -0.8481   -1.1925 H       1  UNL1        0.2198
@<TRIPOS>BOND
     1     1     2    1
     2     2     3    1
     3     3     4    1
     4     4     5    1
     5     5     6    1
     6     6     7    1
     7     6     8    1
     8     8     9    1
     9     9    10    1
    10    10    11    1
    11    10    12    1
    12    12    13    1
    13    12    14    1
    14    12    15    2
    15    10    16    1
    16    16    17    1
    17    16    18    1
    18    16    19    2
    19     1    20    1
    20     1    21    1
    21     1    22    1
    22     2    23    1
    23     2    24    1
    24     3    25    1
    25     3    26    1
    26     4    27    1
    27     4    28    1
    28     5    29    1
    29     5    30    1
    30     7    31    1
    31     7    32    1
    32     7    33    1
    33     8    34    1
    34     8    35    1
    35     9    36    1
    36     9    37    1
    37    11    38    1
    38    13    39    1
    39    14    40    1
    40    17    41    1
    41    18    42    1
