@<TRIPOS>MOLECULE
*****
 56 59 0 0 0
SMALL
GASTEIGER

@<TRIPOS>ATOM
      1 C          -4.6188   -2.3387   -2.6273 C.3     1  UNL1       -0.0129
      2 N          -3.8570   -2.4720   -1.4077 N.3     1  UNL1       -0.3051
      3 C          -4.7330   -2.5765   -0.2702 C.3     1  UNL1       -0.0129
      4 C          -2.8858   -1.4029   -1.2545 C.3     1  UNL1        0.0325
      5 C          -2.1273   -1.5962    0.0261 C.3     1  UNL1        0.1023
      6 O          -1.1685   -0.6676    0.3259 O.3     1  UNL1       -0.4888
      7 C          -1.2074    0.6683    0.5741 C.ar    1  UNL1        0.1422
      8 C          -2.3373    1.4531    0.5942 C.ar    1  UNL1       -0.0103
      9 C          -2.3092    2.8290    0.8592 C.ar    1  UNL1       -0.0114
     10 C          -3.5348    3.6008    0.8651 C.ar    1  UNL1        0.0194
     11 C          -3.8109    4.7090    1.6225 C.ar    1  UNL1        0.0568
     12 N          -5.0699    5.0995    1.3030 N.ar    1  UNL1       -0.1817
     13 N          -5.5964    4.3062    0.3953 N.ar    1  UNL1       -0.2841
     14 C          -4.6526    3.3606    0.1066 C.ar    1  UNL1        0.0300
     15 C          -1.0764    3.3919    1.1080 C.ar    1  UNL1       -0.0520
     16 C           0.0867    2.6504    1.1006 C.ar    1  UNL1       -0.0363
     17 C           0.0120    1.2989    0.8345 C.ar    1  UNL1        0.0756
     18 N           1.1778    0.4927    0.8143 N.am    1  UNL1       -0.2823
     19 C           1.9040    0.3158   -0.4002 C.2     1  UNL1        0.2239
     20 O           1.4611    0.8986   -1.4131 O.2     1  UNL1       -0.2750
     21 C           3.1197   -0.5016   -0.5080 C.3     1  UNL1        0.0739
     22 C           2.8906   -1.9451   -0.1368 C.3     1  UNL1        0.1010
     23 O           3.9851   -2.5123    0.5584 O.3     1  UNL1       -0.4909
     24 C           5.2831   -2.0482    0.4125 C.ar    1  UNL1        0.1237
     25 C           6.3923   -2.8546    0.3756 C.ar    1  UNL1       -0.0197
     26 C           7.6631   -2.3171    0.2267 C.ar    1  UNL1       -0.0583
     27 C           7.7788   -0.9455    0.1167 C.ar    1  UNL1       -0.0613
     28 C           6.6923   -0.1017    0.1490 C.ar    1  UNL1       -0.0551
     29 C           5.4515   -0.6829    0.2984 C.ar    1  UNL1       -0.0049
     30 C           4.1914    0.1410    0.3468 C.3     1  UNL1       -0.0099
     31 H          -5.0159   -1.2952   -2.7581 H       1  UNL1        0.0391
     32 H          -4.0446   -2.6398   -3.5279 H       1  UNL1        0.0391
     33 H          -5.4935   -3.0181   -2.5629 H       1  UNL1        0.0391
     34 H          -5.1637   -1.5962    0.0292 H       1  UNL1        0.0391
     35 H          -4.2743   -3.1011    0.5810 H       1  UNL1        0.0391
     36 H          -5.6035   -3.1969   -0.5877 H       1  UNL1        0.0391
     37 H          -2.1160   -1.5388   -2.0760 H       1  UNL1        0.0460
     38 H          -3.2939   -0.4074   -1.3972 H       1  UNL1        0.0460
     39 H          -2.9172   -1.5272    0.8412 H       1  UNL1        0.0709
     40 H          -1.7720   -2.6602    0.1341 H       1  UNL1        0.0709
     41 H          -3.2945    1.0198    0.4148 H       1  UNL1        0.0661
     42 H          -3.1516    5.1825    2.3384 H       1  UNL1        0.0854
     43 H          -6.5530    4.3803   -0.0273 H       1  UNL1        0.1882
     44 H          -4.8288    2.5771   -0.6163 H       1  UNL1        0.0830
     45 H          -1.0455    4.4526    1.3133 H       1  UNL1        0.0624
     46 H           1.0543    3.1118    1.2997 H       1  UNL1        0.0637
     47 H           1.5323    0.0176    1.6571 H       1  UNL1        0.1549
     48 H           3.4841   -0.4576   -1.5522 H       1  UNL1        0.0431
     49 H           2.0066   -2.0639    0.5371 H       1  UNL1        0.0704
     50 H           2.6979   -2.5453   -1.0366 H       1  UNL1        0.0704
     51 H           6.2659   -3.9170    0.4639 H       1  UNL1        0.0654
     52 H           8.5436   -2.9330    0.1956 H       1  UNL1        0.0619
     53 H           8.7649   -0.5157    0.0003 H       1  UNL1        0.0618
     54 H           6.7735    0.9778    0.0634 H       1  UNL1        0.0621
     55 H           4.4669    1.1182   -0.1003 H       1  UNL1        0.0323
     56 H           3.8738    0.3227    1.3777 H       1  UNL1        0.0323
@<TRIPOS>BOND
     1     1     2    1
     2     2     3    1
     3     2     4    1
     4     4     5    1
     5     5     6    1
     6     6     7    1
     7     7     8   ar
     8     8     9   ar
     9     9    10    1
    10    10    11   ar
    11    11    12   ar
    12    12    13   ar
    13    13    14   ar
    14     9    15   ar
    15    15    16   ar
    16    16    17   ar
    17    17    18    1
    18    18    19   am
    19    19    20    2
    20    19    21    1
    21    21    22    1
    22    22    23    1
    23    23    24    1
    24    24    25   ar
    25    25    26   ar
    26    26    27   ar
    27    27    28   ar
    28    28    29   ar
    29    29    30    1
    30    17     7   ar
    31    30    21    1
    32    14    10   ar
    33    29    24   ar
    34     1    31    1
    35     1    32    1
    36     1    33    1
    37     3    34    1
    38     3    35    1
    39     3    36    1
    40     4    37    1
    41     4    38    1
    42     5    39    1
    43     5    40    1
    44     8    41    1
    45    11    42    1
    46    13    43    1
    47    14    44    1
    48    15    45    1
    49    16    46    1
    50    18    47    1
    51    21    48    1
    52    22    49    1
    53    22    50    1
    54    25    51    1
    55    26    52    1
    56    27    53    1
    57    28    54    1
    58    30    55    1
    59    30    56    1
