
     RDKit          3D

101106  0  0  0  0  0  0  0  0999 V2000
   -2.0021   -0.0532    0.2822 C   0  0  2  0  0  0  0  0  0  0  0  0
   -3.1772   -0.9312    0.5816 C   0  0  0  0  0  0  0  0  0  0  0  0
   -4.2695    0.0787    0.1869 C   0  0  1  0  0  0  0  0  0  0  0  0
   -3.7287    0.7090   -1.0475 C   0  0  2  0  0  0  0  0  0  0  0  0
   -4.4767    0.5296   -2.2083 O   0  0  0  0  0  0  0  0  0  0  0  0
   -4.9564    1.6233   -2.9481 C   0  0  0  0  0  0  0  0  0  0  0  0
   -5.7452    1.4397   -4.1723 C   0  0  0  0  0  0  0  0  0  0  0  0
   -4.6721    2.7879   -2.5027 O   0  0  0  0  0  0  0  0  0  0  0  0
   -2.3016    0.2274   -1.1765 C   0  0  2  0  0  0  0  0  0  0  0  0
   -2.1283   -0.9209   -2.0921 C   0  0  0  0  0  0  0  0  0  0  0  0
   -1.3036    1.2826   -1.5558 C   0  0  0  0  0  0  0  0  0  0  0  0
    0.0484    0.5454   -1.5654 C   0  0  0  0  0  0  0  0  0  0  0  0
    0.3738    0.2822   -0.1283 C   0  0  1  0  0  0  0  0  0  0  0  0
   -0.6501   -0.6088    0.5232 C   0  0  1  0  0  0  0  0  0  0  0  0
   -0.4464   -0.6306    2.0272 C   0  0  0  0  0  0  0  0  0  0  0  0
    0.9798   -0.8930    2.4062 C   0  0  0  0  0  0  0  0  0  0  0  0
    1.9661   -0.1520    1.5745 C   0  0  1  0  0  0  0  0  0  0  0  0
    3.3409   -0.3912    2.0685 C   0  0  0  0  0  0  0  0  0  0  0  0
    4.2549    0.5559    1.3411 C   0  0  2  0  0  0  0  0  0  0  0  0
    3.7690    1.8556    1.7156 O   0  0  0  0  0  0  0  0  0  0  0  0
    4.5932    2.7674    2.3458 C   0  0  0  0  0  0  0  0  0  0  0  0
    4.0080    4.1063    2.7048 C   0  0  0  0  0  0  0  0  0  0  0  0
    5.8078    2.5976    2.6600 O   0  0  0  0  0  0  0  0  0  0  0  0
    4.1859    0.4284   -0.1588 C   0  0  2  0  0  0  0  0  0  0  0  0
    2.8305    0.2629   -0.7270 C   0  0  0  0  0  0  0  0  0  0  0  0
    1.7545   -0.3476    0.0913 C   0  0  2  0  0  0  0  0  0  0  0  0
    1.5574   -1.7918   -0.2791 C   0  0  0  0  0  0  0  0  0  0  0  0
    5.2420   -0.3972   -0.6952 N   0  0  0  0  0  4  0  0  0  0  0  0
    4.9722   -0.8435   -2.0224 C   0  0  0  0  0  0  0  0  0  0  0  0
    5.5786   -1.5409    0.1254 C   0  0  0  0  0  0  0  0  0  0  0  0
    6.6140   -2.3773   -0.6125 C   0  0  0  0  0  0  0  0  0  0  0  0
    7.8382   -1.6438   -1.0095 C   0  0  0  0  0  0  0  0  0  0  0  0
    7.6140   -0.2346   -1.4348 C   0  0  0  0  0  0  0  0  0  0  0  0
    6.4864    0.3888   -0.7195 C   0  0  0  0  0  0  0  0  0  0  0  0
   -5.5784   -0.4205    0.1964 N   0  0  0  0  0  4  0  0  0  0  0  0
   -6.0269   -1.1520   -0.9558 C   0  0  0  0  0  0  0  0  0  0  0  0
   -6.5324    0.6507    0.3431 C   0  0  0  0  0  0  0  0  0  0  0  0
   -6.5868    1.2891    1.6870 C   0  0  0  0  0  0  0  0  0  0  0  0
   -6.9640    0.1818    2.6804 C   0  0  0  0  0  0  0  0  0  0  0  0
   -5.7289   -0.7291    2.6456 C   0  0  0  0  0  0  0  0  0  0  0  0
   -5.6912   -1.3707    1.3041 C   0  0  0  0  0  0  0  0  0  0  0  0
   -2.1453    0.9165    0.8157 H   0  0  0  0  0  0  0  0  0  0  0  0
   -3.1839   -1.8044   -0.1038 H   0  0  0  0  0  0  0  0  0  0  0  0
   -3.1672   -1.1640    1.6422 H   0  0  0  0  0  0  0  0  0  0  0  0
   -4.2121    0.8177    1.0426 H   0  0  0  0  0  0  0  0  0  0  0  0
   -3.6300    1.8168   -0.8910 H   0  0  0  0  0  0  0  0  0  0  0  0
   -5.9368    2.4354   -4.6128 H   0  0  0  0  0  0  0  0  0  0  0  0
   -6.7124    0.9813   -3.9220 H   0  0  0  0  0  0  0  0  0  0  0  0
   -5.1529    0.8833   -4.9230 H   0  0  0  0  0  0  0  0  0  0  0  0
   -1.4548   -1.7181   -1.7858 H   0  0  0  0  0  0  0  0  0  0  0  0
   -3.1003   -1.4415   -2.3390 H   0  0  0  0  0  0  0  0  0  0  0  0
   -1.8151   -0.5132   -3.0985 H   0  0  0  0  0  0  0  0  0  0  0  0
   -1.5092    1.7811   -2.5100 H   0  0  0  0  0  0  0  0  0  0  0  0
   -1.2550    2.0161   -0.7430 H   0  0  0  0  0  0  0  0  0  0  0  0
    0.0016   -0.3501   -2.1935 H   0  0  0  0  0  0  0  0  0  0  0  0
    0.6994    1.2532   -2.0632 H   0  0  0  0  0  0  0  0  0  0  0  0
    0.3389    1.2553    0.4075 H   0  0  0  0  0  0  0  0  0  0  0  0
   -0.6543   -1.6473    0.2074 H   0  0  0  0  0  0  0  0  0  0  0  0
   -0.8651    0.2739    2.5156 H   0  0  0  0  0  0  0  0  0  0  0  0
   -1.0553   -1.4860    2.4228 H   0  0  0  0  0  0  0  0  0  0  0  0
    1.0831   -0.4669    3.4489 H   0  0  0  0  0  0  0  0  0  0  0  0
    1.2184   -1.9747    2.5642 H   0  0  0  0  0  0  0  0  0  0  0  0
    1.7547    0.9440    1.7551 H   0  0  0  0  0  0  0  0  0  0  0  0
    3.3437   -0.0033    3.1330 H   0  0  0  0  0  0  0  0  0  0  0  0
    3.6771   -1.4167    2.1613 H   0  0  0  0  0  0  0  0  0  0  0  0
    5.3025    0.5169    1.6558 H   0  0  0  0  0  0  0  0  0  0  0  0
    2.9716    3.9851    3.0427 H   0  0  0  0  0  0  0  0  0  0  0  0
    4.6654    4.7031    3.3345 H   0  0  0  0  0  0  0  0  0  0  0  0
    3.9324    4.6409    1.7133 H   0  0  0  0  0  0  0  0  0  0  0  0
    4.5130    1.4746   -0.4758 H   0  0  0  0  0  0  0  0  0  0  0  0
    2.3990    1.2744   -1.0021 H   0  0  0  0  0  0  0  0  0  0  0  0
    2.8590   -0.2794   -1.6902 H   0  0  0  0  0  0  0  0  0  0  0  0
    2.4738   -2.2924   -0.6513 H   0  0  0  0  0  0  0  0  0  0  0  0
    0.8500   -1.8645   -1.1444 H   0  0  0  0  0  0  0  0  0  0  0  0
    1.2288   -2.4167    0.5733 H   0  0  0  0  0  0  0  0  0  0  0  0
    5.9333   -1.1885   -2.5030 H   0  0  0  0  0  0  0  0  0  0  0  0
    4.6139   -0.0416   -2.6996 H   0  0  0  0  0  0  0  0  0  0  0  0
    4.3435   -1.7579   -2.0465 H   0  0  0  0  0  0  0  0  0  0  0  0
    6.0220   -1.3049    1.0930 H   0  0  0  0  0  0  0  0  0  0  0  0
    4.7094   -2.2267    0.1609 H   0  0  0  0  0  0  0  0  0  0  0  0
    6.1229   -2.9521   -1.4471 H   0  0  0  0  0  0  0  0  0  0  0  0
    6.9011   -3.1747    0.1121 H   0  0  0  0  0  0  0  0  0  0  0  0
    8.6009   -1.7252   -0.1992 H   0  0  0  0  0  0  0  0  0  0  0  0
    8.3001   -2.1963   -1.8733 H   0  0  0  0  0  0  0  0  0  0  0  0
    8.5318    0.3369   -1.1004 H   0  0  0  0  0  0  0  0  0  0  0  0
    7.6354   -0.0732   -2.5473 H   0  0  0  0  0  0  0  0  0  0  0  0
    6.1944    1.3134   -1.2995 H   0  0  0  0  0  0  0  0  0  0  0  0
    6.7997    0.6987    0.2881 H   0  0  0  0  0  0  0  0  0  0  0  0
   -6.8697   -1.8506   -0.6705 H   0  0  0  0  0  0  0  0  0  0  0  0
   -5.2969   -1.7863   -1.4476 H   0  0  0  0  0  0  0  0  0  0  0  0
   -6.5195   -0.5026   -1.7338 H   0  0  0  0  0  0  0  0  0  0  0  0
   -6.3384    1.4183   -0.4020 H   0  0  0  0  0  0  0  0  0  0  0  0
   -7.5486    0.2137    0.1584 H   0  0  0  0  0  0  0  0  0  0  0  0
   -5.7001    1.8418    1.9952 H   0  0  0  0  0  0  0  0  0  0  0  0
   -7.4478    1.9748    1.6864 H   0  0  0  0  0  0  0  0  0  0  0  0
   -7.8700   -0.3103    2.3256 H   0  0  0  0  0  0  0  0  0  0  0  0
   -7.0366    0.6040    3.7073 H   0  0  0  0  0  0  0  0  0  0  0  0
   -4.8941   -0.0780    2.9048 H   0  0  0  0  0  0  0  0  0  0  0  0
   -5.9218   -1.5050    3.3840 H   0  0  0  0  0  0  0  0  0  0  0  0
   -4.9150   -2.1296    1.2289 H   0  0  0  0  0  0  0  0  0  0  0  0
   -6.6618   -1.8888    1.1590 H   0  0  0  0  0  0  0  0  0  0  0  0
  1  2  1  0
  2  3  1  0
  3  4  1  0
  4  5  1  0
  5  6  1  0
  6  7  1  0
  6  8  2  0
  4  9  1  0
  9 10  1  6
  9 11  1  0
 11 12  1  0
 12 13  1  0
 13 14  1  0
 14 15  1  0
 15 16  1  0
 16 17  1  0
 17 18  1  0
 18 19  1  0
 19 20  1  0
 20 21  1  0
 21 22  1  0
 21 23  2  0
 19 24  1  0
 24 25  1  0
 25 26  1  0
 26 27  1  1
 24 28  1  0
 28 29  1  0
 28 30  1  0
 30 31  1  0
 31 32  1  0
 32 33  1  0
 33 34  1  0
  3 35  1  0
 35 36  1  0
 35 37  1  0
 37 38  1  0
 38 39  1  0
 39 40  1  0
 40 41  1  0
  9  1  1  0
 26 13  1  0
 34 28  1  0
 41 35  1  0
 14  1  1  0
 26 17  1  0
  1 42  1  1
  2 43  1  0
  2 44  1  0
  3 45  1  1
  4 46  1  1
  7 47  1  0
  7 48  1  0
  7 49  1  0
 10 50  1  0
 10 51  1  0
 10 52  1  0
 11 53  1  0
 11 54  1  0
 12 55  1  0
 12 56  1  0
 13 57  1  1
 14 58  1  6
 15 59  1  0
 15 60  1  0
 16 61  1  0
 16 62  1  0
 17 63  1  6
 18 64  1  0
 18 65  1  0
 19 66  1  1
 22 67  1  0
 22 68  1  0
 22 69  1  0
 24 70  1  6
 25 71  1  0
 25 72  1  0
 27 73  1  0
 27 74  1  0
 27 75  1  0
 29 76  1  0
 29 77  1  0
 29 78  1  0
 30 79  1  0
 30 80  1  0
 31 81  1  0
 31 82  1  0
 32 83  1  0
 32 84  1  0
 33 85  1  0
 33 86  1  0
 34 87  1  0
 34 88  1  0
 36 89  1  0
 36 90  1  0
 36 91  1  0
 37 92  1  0
 37 93  1  0
 38 94  1  0
 38 95  1  0
 39 96  1  0
 39 97  1  0
 40 98  1  0
 40 99  1  0
 41100  1  0
 41101  1  0
M  CHG  2  28   1  35   1
M  END
$$$$
