
     RDKit          3D

138140  0  0  0  0  0  0  0  0999 V2000
   -6.5959   -2.0509   -0.0604 C   0  0  2  0  0  0  0  0  0  0  0  0
   -5.8735   -0.7362    0.0129 N   0  0  0  0  0  0  0  0  0  0  0  0
   -6.2080    0.4522    0.7181 C   0  0  0  0  0  0  0  0  0  0  0  0
   -7.3209    0.1912    1.2054 O   0  0  0  0  0  0  0  0  0  0  0  0
   -5.7668    1.8258    1.0749 C   0  0  2  0  0  0  0  0  0  0  0  0
   -6.6556    2.8667    0.4060 C   0  0  0  0  0  0  0  0  0  0  0  0
   -6.2104    4.2303    0.7835 C   0  0  0  0  0  0  0  0  0  0  0  0
   -6.7704    4.7698    1.9455 C   0  0  0  0  0  0  0  0  0  0  0  0
   -6.3778    6.0259    2.3381 C   0  0  0  0  0  0  0  0  0  0  0  0
   -5.4640    6.8208    1.6801 C   0  0  0  0  0  0  0  0  0  0  0  0
   -5.1455    8.0724    2.1731 O   0  0  0  0  0  0  0  0  0  0  0  0
   -4.1956    8.8424    1.4511 C   0  0  0  0  0  0  0  0  0  0  0  0
   -4.9344    6.2607    0.5431 C   0  0  0  0  0  0  0  0  0  0  0  0
   -5.2789    5.0077    0.0869 C   0  0  0  0  0  0  0  0  0  0  0  0
   -4.3800    2.0060    0.7224 N   0  0  0  0  0  0  0  0  0  0  0  0
   -3.1551    2.5578    1.0645 C   0  0  0  0  0  0  0  0  0  0  0  0
   -3.4835    3.2198    2.0780 O   0  0  0  0  0  0  0  0  0  0  0  0
   -1.7096    2.7584    0.8391 C   0  0  0  0  0  0  0  0  0  0  0  0
   -1.2423    4.0161    1.5066 C   0  0  0  0  0  0  0  0  0  0  0  0
    0.1927    4.2471    1.2283 C   0  0  0  0  0  0  0  0  0  0  0  0
    1.4214    3.2921    2.0283 S   0  0  0  0  0  0  0  0  0  0  0  0
    1.4276    1.5390    1.8467 C   0  0  0  0  0  0  0  0  0  0  0  0
    1.5610    1.0526    0.4413 C   0  0  2  0  0  0  0  0  0  0  0  0
    1.6115   -0.4287    0.4195 N   0  0  0  0  0  0  0  0  0  0  0  0
    0.7622   -1.5283    0.2287 C   0  0  0  0  0  0  0  0  0  0  0  0
   -0.2848   -0.8451    0.1262 O   0  0  0  0  0  0  0  0  0  0  0  0
    0.5635   -2.9924    0.1069 C   0  0  2  0  0  0  0  0  0  0  0  0
    1.1247   -3.4736   -1.2366 C   0  0  0  0  0  0  0  0  0  0  0  0
    0.9384   -4.9316   -1.3820 C   0  0  0  0  0  0  0  0  0  0  0  0
    0.3207   -5.8672   -2.2922 N   0  0  0  0  0  0  0  0  0  0  0  0
    1.3931   -5.7861   -0.5472 O   0  0  0  0  0  0  0  0  0  0  0  0
   -0.8561   -3.2881    0.0416 N   0  0  0  0  0  0  0  0  0  0  0  0
   -1.9423   -4.1151    0.3556 C   0  0  0  0  0  0  0  0  0  0  0  0
   -1.1945   -4.9519    0.9030 O   0  0  0  0  0  0  0  0  0  0  0  0
   -3.3749   -4.4165    0.3333 C   0  0  2  0  0  0  0  0  0  0  0  0
   -3.6288   -5.4294   -0.8275 C   0  0  0  0  0  0  0  0  0  0  0  0
   -2.9110   -6.7088   -0.6371 C   0  0  0  0  0  0  0  0  0  0  0  0
   -3.3662   -7.4275    0.5595 C   0  0  0  0  0  0  0  0  0  0  0  0
   -2.7503   -8.5401    1.1220 N   0  0  0  0  0  0  0  0  0  0  0  0
   -4.4204   -7.0373    1.1765 O   0  0  0  0  0  0  0  0  0  0  0  0
   -4.2080   -3.2925   -0.0487 N   0  0  0  0  0  0  0  0  0  0  0  0
   -5.5961   -3.1172    0.1485 C   0  0  0  0  0  0  0  0  0  0  0  0
   -5.9297   -4.2236    0.6065 O   0  0  0  0  0  0  0  0  0  0  0  0
    2.7102    1.5699   -0.2368 C   0  0  0  0  0  0  0  0  0  0  0  0
    2.6141    2.8170   -0.2097 O   0  0  0  0  0  0  0  0  0  0  0  0
    3.9380    1.6204   -0.9500 N   0  0  0  0  0  0  0  0  0  0  0  0
    4.4944    2.9054   -1.3264 C   0  0  0  0  0  0  0  0  0  0  0  0
    5.2012    2.5380   -2.6115 C   0  0  0  0  0  0  0  0  0  0  0  0
    5.1627    1.0402   -2.7650 C   0  0  0  0  0  0  0  0  0  0  0  0
    4.7717    0.5209   -1.3942 C   0  0  1  0  0  0  0  0  0  0  0  0
    6.0083    0.3328   -0.6409 C   0  0  0  0  0  0  0  0  0  0  0  0
    6.6334   -0.5890   -1.2227 O   0  0  0  0  0  0  0  0  0  0  0  0
    6.5316    0.9612    0.4992 N   0  0  0  0  0  0  0  0  0  0  0  0
    7.7916    0.6920    1.1359 C   0  0  1  0  0  0  0  0  0  0  0  0
    7.9240   -0.5578    1.9034 C   0  0  0  0  0  0  0  0  0  0  0  0
    7.0026   -0.7402    3.0693 C   0  0  0  0  0  0  0  0  0  0  0  0
    5.5657   -0.7348    2.6444 C   0  0  0  0  0  0  0  0  0  0  0  0
    7.2692    0.2892    4.1592 C   0  0  0  0  0  0  0  0  0  0  0  0
    8.9567    0.8022    0.1831 C   0  0  0  0  0  0  0  0  0  0  0  0
   10.0733    0.4150    0.6494 O   0  0  0  0  0  0  0  0  0  0  0  0
    8.9675    1.2803   -1.1487 N   0  0  0  0  0  0  0  0  0  0  0  0
   10.1814    1.3117   -1.9157 C   0  0  0  0  0  0  0  0  0  0  0  0
    9.9292    1.8577   -3.2755 C   0  0  0  0  0  0  0  0  0  0  0  0
   11.2104    1.8523   -3.9331 N   0  0  0  0  0  0  0  0  0  0  0  0
    9.2495    2.3251   -4.1915 O   0  0  0  0  0  0  0  0  0  0  0  0
   -7.2205   -2.0037   -1.4221 C   0  0  1  0  0  0  0  0  0  0  0  0
   -6.1692   -1.8794   -2.5160 C   0  0  0  0  0  0  0  0  0  0  0  0
   -8.2505   -3.0202   -1.7318 C   0  0  0  0  0  0  0  0  0  0  0  0
   -7.8179   -4.4477   -1.7000 C   0  0  0  0  0  0  0  0  0  0  0  0
   -7.3865   -2.0649    0.6708 H   0  0  0  0  0  0  0  0  0  0  0  0
   -5.0351   -0.2645   -0.3407 H   0  0  0  0  0  0  0  0  0  0  0  0
   -5.8740    1.9819    2.1527 H   0  0  0  0  0  0  0  0  0  0  0  0
   -6.6392    2.8138   -0.6960 H   0  0  0  0  0  0  0  0  0  0  0  0
   -7.6648    2.7053    0.8191 H   0  0  0  0  0  0  0  0  0  0  0  0
   -7.4993    4.1921    2.5142 H   0  0  0  0  0  0  0  0  0  0  0  0
   -6.8398    6.3936    3.2416 H   0  0  0  0  0  0  0  0  0  0  0  0
   -3.8568    9.7069    2.0737 H   0  0  0  0  0  0  0  0  0  0  0  0
   -4.6177    9.2323    0.5200 H   0  0  0  0  0  0  0  0  0  0  0  0
   -3.3430    8.1389    1.2444 H   0  0  0  0  0  0  0  0  0  0  0  0
   -4.2194    6.8113   -0.0245 H   0  0  0  0  0  0  0  0  0  0  0  0
   -4.8900    4.5380   -0.7910 H   0  0  0  0  0  0  0  0  0  0  0  0
   -3.9039    1.6355   -0.1193 H   0  0  0  0  0  0  0  0  0  0  0  0
   -1.1496    1.8853    1.2881 H   0  0  0  0  0  0  0  0  0  0  0  0
   -1.5024    2.7252   -0.2341 H   0  0  0  0  0  0  0  0  0  0  0  0
   -1.5076    3.9924    2.5767 H   0  0  0  0  0  0  0  0  0  0  0  0
   -1.8246    4.8649    1.0634 H   0  0  0  0  0  0  0  0  0  0  0  0
    0.3019    4.2492    0.1002 H   0  0  0  0  0  0  0  0  0  0  0  0
    0.3641    5.3581    1.4616 H   0  0  0  0  0  0  0  0  0  0  0  0
    2.3645    1.1678    2.4250 H   0  0  0  0  0  0  0  0  0  0  0  0
    0.6264    1.0252    2.4236 H   0  0  0  0  0  0  0  0  0  0  0  0
    0.6270    1.3660   -0.1161 H   0  0  0  0  0  0  0  0  0  0  0  0
    2.3795   -1.0976    0.5854 H   0  0  0  0  0  0  0  0  0  0  0  0
    1.1002   -3.5678    0.8729 H   0  0  0  0  0  0  0  0  0  0  0  0
    2.2431   -3.3114   -1.2051 H   0  0  0  0  0  0  0  0  0  0  0  0
    0.6376   -2.9711   -2.0817 H   0  0  0  0  0  0  0  0  0  0  0  0
    0.2551   -6.0574   -3.3322 H   0  0  0  0  0  0  0  0  0  0  0  0
    0.7427   -5.3681   -3.1055 H   0  0  0  0  0  0  0  0  0  0  0  0
   -1.5055   -2.6490   -0.4574 H   0  0  0  0  0  0  0  0  0  0  0  0
   -3.7318   -4.9152    1.2320 H   0  0  0  0  0  0  0  0  0  0  0  0
   -4.7241   -5.5105   -0.9076 H   0  0  0  0  0  0  0  0  0  0  0  0
   -3.2301   -4.8696   -1.7141 H   0  0  0  0  0  0  0  0  0  0  0  0
   -1.8199   -6.5591   -0.6563 H   0  0  0  0  0  0  0  0  0  0  0  0
   -3.1344   -7.3400   -1.5414 H   0  0  0  0  0  0  0  0  0  0  0  0
   -2.8688   -9.4812    0.6440 H   0  0  0  0  0  0  0  0  0  0  0  0
   -2.2824   -9.3351    1.5655 H   0  0  0  0  0  0  0  0  0  0  0  0
   -4.0543   -2.3964   -0.5203 H   0  0  0  0  0  0  0  0  0  0  0  0
    3.6869    3.6571   -1.5352 H   0  0  0  0  0  0  0  0  0  0  0  0
    5.1667    3.3522   -0.5946 H   0  0  0  0  0  0  0  0  0  0  0  0
    4.6782    3.0566   -3.4531 H   0  0  0  0  0  0  0  0  0  0  0  0
    6.2685    2.8397   -2.5624 H   0  0  0  0  0  0  0  0  0  0  0  0
    4.3415    0.7317   -3.4682 H   0  0  0  0  0  0  0  0  0  0  0  0
    6.1214    0.6168   -3.1306 H   0  0  0  0  0  0  0  0  0  0  0  0
    4.1742   -0.4179   -1.4759 H   0  0  0  0  0  0  0  0  0  0  0  0
    5.8997    1.6866    0.8875 H   0  0  0  0  0  0  0  0  0  0  0  0
    8.0308    1.5814    1.8431 H   0  0  0  0  0  0  0  0  0  0  0  0
    7.7686   -1.4366    1.2300 H   0  0  0  0  0  0  0  0  0  0  0  0
    8.9866   -0.6610    2.2394 H   0  0  0  0  0  0  0  0  0  0  0  0
    7.2159   -1.7352    3.5204 H   0  0  0  0  0  0  0  0  0  0  0  0
    5.4745   -1.2729    1.6822 H   0  0  0  0  0  0  0  0  0  0  0  0
    5.1293    0.2599    2.6132 H   0  0  0  0  0  0  0  0  0  0  0  0
    4.9249   -1.3254    3.3682 H   0  0  0  0  0  0  0  0  0  0  0  0
    6.9570   -0.1765    5.1161 H   0  0  0  0  0  0  0  0  0  0  0  0
    8.3544    0.4521    4.1815 H   0  0  0  0  0  0  0  0  0  0  0  0
    6.6779    1.2139    4.0171 H   0  0  0  0  0  0  0  0  0  0  0  0
    8.0786    1.6099   -1.5283 H   0  0  0  0  0  0  0  0  0  0  0  0
   10.6074    0.2818   -1.9943 H   0  0  0  0  0  0  0  0  0  0  0  0
   10.9424    1.9295   -1.3942 H   0  0  0  0  0  0  0  0  0  0  0  0
   11.6072    1.1864   -4.6520 H   0  0  0  0  0  0  0  0  0  0  0  0
   12.1512    2.2565   -4.0958 H   0  0  0  0  0  0  0  0  0  0  0  0
   -7.7661   -0.9991   -1.4753 H   0  0  0  0  0  0  0  0  0  0  0  0
   -5.5836   -0.9817   -2.2687 H   0  0  0  0  0  0  0  0  0  0  0  0
   -5.6012   -2.8066   -2.6136 H   0  0  0  0  0  0  0  0  0  0  0  0
   -6.7405   -1.6557   -3.4605 H   0  0  0  0  0  0  0  0  0  0  0  0
   -9.1034   -2.8911   -1.0064 H   0  0  0  0  0  0  0  0  0  0  0  0
   -8.6489   -2.8198   -2.7688 H   0  0  0  0  0  0  0  0  0  0  0  0
   -8.0771   -4.9604   -0.7619 H   0  0  0  0  0  0  0  0  0  0  0  0
   -8.3366   -5.0475   -2.5044 H   0  0  0  0  0  0  0  0  0  0  0  0
   -6.7375   -4.5741   -1.9080 H   0  0  0  0  0  0  0  0  0  0  0  0
  1  2  1  0
  2  3  1  0
  3  4  2  0
  3  5  1  0
  5  6  1  0
  6  7  1  0
  7  8  2  0
  8  9  1  0
  9 10  2  0
 10 11  1  0
 11 12  1  0
 10 13  1  0
 13 14  2  0
  5 15  1  0
 15 16  1  0
 16 17  2  0
 16 18  1  0
 18 19  1  0
 19 20  1  0
 20 21  1  0
 21 22  1  0
 22 23  1  0
 23 24  1  0
 24 25  1  0
 25 26  2  0
 25 27  1  0
 27 28  1  0
 28 29  1  0
 29 30  1  0
 29 31  2  0
 27 32  1  0
 32 33  1  0
 33 34  2  0
 33 35  1  0
 35 36  1  0
 36 37  1  0
 37 38  1  0
 38 39  1  0
 38 40  2  0
 35 41  1  0
 41 42  1  0
 42 43  2  0
 23 44  1  0
 44 45  2  0
 44 46  1  0
 46 47  1  0
 47 48  1  0
 48 49  1  0
 49 50  1  0
 50 51  1  0
 51 52  2  0
 51 53  1  0
 53 54  1  0
 54 55  1  0
 55 56  1  0
 56 57  1  0
 56 58  1  0
 54 59  1  0
 59 60  2  0
 59 61  1  0
 61 62  1  0
 62 63  1  0
 63 64  1  0
 63 65  2  0
  1 66  1  0
 66 67  1  0
 66 68  1  0
 68 69  1  0
 42  1  1  0
 50 46  1  0
 14  7  1  0
  1 70  1  1
  2 71  1  0
  5 72  1  1
  6 73  1  0
  6 74  1  0
  8 75  1  0
  9 76  1  0
 12 77  1  0
 12 78  1  0
 12 79  1  0
 13 80  1  0
 14 81  1  0
 15 82  1  0
 18 83  1  0
 18 84  1  0
 19 85  1  0
 19 86  1  0
 20 87  1  0
 20 88  1  0
 22 89  1  0
 22 90  1  0
 23 91  1  6
 24 92  1  0
 27 93  1  1
 28 94  1  0
 28 95  1  0
 30 96  1  0
 30 97  1  0
 32 98  1  0
 35 99  1  1
 36100  1  0
 36101  1  0
 37102  1  0
 37103  1  0
 39104  1  0
 39105  1  0
 41106  1  0
 47107  1  0
 47108  1  0
 48109  1  0
 48110  1  0
 49111  1  0
 49112  1  0
 50113  1  6
 53114  1  0
 54115  1  1
 55116  1  0
 55117  1  0
 56118  1  0
 57119  1  0
 57120  1  0
 57121  1  0
 58122  1  0
 58123  1  0
 58124  1  0
 61125  1  0
 62126  1  0
 62127  1  0
 64128  1  0
 64129  1  0
 66130  1  1
 67131  1  0
 67132  1  0
 67133  1  0
 68134  1  0
 68135  1  0
 69136  1  0
 69137  1  0
 69138  1  0
M  END
$$$$
