@<TRIPOS>MOLECULE
*****
 138 140 0 0 0
SMALL
GASTEIGER

@<TRIPOS>ATOM
      1 C          -6.5959   -2.0509   -0.0604 C.3     1  UNL1        0.1020
      2 N          -5.8735   -0.7362    0.0129 N.am    1  UNL1       -0.3022
      3 C          -6.2080    0.4522    0.7181 C.2     1  UNL1        0.2343
      4 O          -7.3209    0.1912    1.2054 O.2     1  UNL1       -0.2738
      5 C          -5.7668    1.8258    1.0749 C.3     1  UNL1        0.1033
      6 C          -6.6556    2.8667    0.4060 C.3     1  UNL1       -0.0007
      7 C          -6.2104    4.2303    0.7835 C.ar    1  UNL1       -0.0449
      8 C          -6.7704    4.7698    1.9455 C.ar    1  UNL1       -0.0550
      9 C          -6.3778    6.0259    2.3381 C.ar    1  UNL1       -0.0197
     10 C          -5.4640    6.8208    1.6801 C.ar    1  UNL1        0.1201
     11 O          -5.1455    8.0724    2.1731 O.3     1  UNL1       -0.4951
     12 C          -4.1956    8.8424    1.4511 C.3     1  UNL1        0.0788
     13 C          -4.9344    6.2607    0.5431 C.ar    1  UNL1       -0.0197
     14 C          -5.2789    5.0077    0.0869 C.ar    1  UNL1       -0.0550
     15 N          -4.3800    2.0060    0.7224 N.am    1  UNL1       -0.3037
     16 C          -3.1551    2.5578    1.0645 C.2     1  UNL1        0.2136
     17 O          -3.4835    3.2198    2.0780 O.2     1  UNL1       -0.2758
     18 C          -1.7096    2.7584    0.8391 C.3     1  UNL1        0.0247
     19 C          -1.2423    4.0161    1.5066 C.3     1  UNL1       -0.0357
     20 C           0.1927    4.2471    1.2283 C.3     1  UNL1       -0.0058
     21 S           1.4214    3.2921    2.0283 S.3     1  UNL1       -0.1584
     22 C           1.4276    1.5390    1.8467 C.3     1  UNL1        0.0207
     23 C           1.5610    1.0526    0.4413 C.3     1  UNL1        0.1086
     24 N           1.6115   -0.4287    0.4195 N.am    1  UNL1       -0.3017
     25 C           0.7622   -1.5283    0.2287 C.2     1  UNL1        0.2344
     26 O          -0.2848   -0.8451    0.1262 O.2     1  UNL1       -0.2737
     27 C           0.5635   -2.9924    0.1069 C.3     1  UNL1        0.1076
     28 C           1.1247   -3.4736   -1.2366 C.3     1  UNL1        0.0506
     29 C           0.9384   -4.9316   -1.3820 C.2     1  UNL1        0.2127
     30 N           0.3207   -5.8672   -2.2922 N.am    1  UNL1       -0.3293
     31 O           1.3931   -5.7861   -0.5472 O.2     1  UNL1       -0.2760
     32 N          -0.8561   -3.2881    0.0416 N.am    1  UNL1       -0.3020
     33 C          -1.9423   -4.1151    0.3556 C.2     1  UNL1        0.2340
     34 O          -1.1945   -4.9519    0.9030 O.2     1  UNL1       -0.2738
     35 C          -3.3749   -4.4165    0.3333 C.3     1  UNL1        0.0999
     36 C          -3.6288   -5.4294   -0.8275 C.3     1  UNL1       -0.0177
     37 C          -2.9110   -6.7088   -0.6371 C.3     1  UNL1        0.0259
     38 C          -3.3662   -7.4275    0.5595 C.2     1  UNL1        0.2106
     39 N          -2.7503   -8.5401    1.1220 N.am    1  UNL1       -0.3293
     40 O          -4.4204   -7.0373    1.1765 O.2     1  UNL1       -0.2760
     41 N          -4.2080   -3.2925   -0.0487 N.am    1  UNL1       -0.3025
     42 C          -5.5961   -3.1172    0.1485 C.2     1  UNL1        0.2342
     43 O          -5.9297   -4.2236    0.6065 O.2     1  UNL1       -0.2738
     44 C           2.7102    1.5699   -0.2368 C.2     1  UNL1        0.2373
     45 O           2.6141    2.8170   -0.2097 O.2     1  UNL1       -0.2735
     46 N           3.9380    1.6204   -0.9500 N.am    1  UNL1       -0.2884
     47 C           4.4944    2.9054   -1.3264 C.3     1  UNL1        0.0156
     48 C           5.2012    2.5380   -2.6115 C.3     1  UNL1       -0.0350
     49 C           5.1627    1.0402   -2.7650 C.3     1  UNL1       -0.0243
     50 C           4.7717    0.5209   -1.3942 C.3     1  UNL1        0.1023
     51 C           6.0083    0.3328   -0.6409 C.2     1  UNL1        0.2342
     52 O           6.6334   -0.5890   -1.2227 O.2     1  UNL1       -0.2738
     53 N           6.5316    0.9612    0.4992 N.am    1  UNL1       -0.3025
     54 C           7.7916    0.6920    1.1359 C.3     1  UNL1        0.0996
     55 C           7.9240   -0.5578    1.9034 C.3     1  UNL1       -0.0236
     56 C           7.0026   -0.7402    3.0693 C.3     1  UNL1       -0.0446
     57 C           5.5657   -0.7348    2.6444 C.3     1  UNL1       -0.0626
     58 C           7.2692    0.2892    4.1592 C.3     1  UNL1       -0.0626
     59 C           8.9567    0.8022    0.1831 C.2     1  UNL1        0.2338
     60 O          10.0733    0.4150    0.6494 O.2     1  UNL1       -0.2738
     61 N           8.9675    1.2803   -1.1487 N.am    1  UNL1       -0.3052
     62 C          10.1814    1.3117   -1.9157 C.3     1  UNL1        0.0879
     63 C           9.9292    1.8577   -3.2755 C.2     1  UNL1        0.2277
     64 N          11.2104    1.8523   -3.9331 N.am    1  UNL1       -0.3280
     65 O           9.2495    2.3251   -4.1915 O.2     1  UNL1       -0.2743
     66 C          -7.2205   -2.0037   -1.4221 C.3     1  UNL1       -0.0171
     67 C          -6.1692   -1.8794   -2.5160 C.3     1  UNL1       -0.0603
     68 C          -8.2505   -3.0202   -1.7318 C.3     1  UNL1       -0.0512
     69 C          -7.8179   -4.4477   -1.7000 C.3     1  UNL1       -0.0650
     70 H          -7.3865   -2.0649    0.6708 H       1  UNL1        0.0597
     71 H          -5.0351   -0.2645   -0.3407 H       1  UNL1        0.1495
     72 H          -5.8740    1.9819    2.1527 H       1  UNL1        0.0598
     73 H          -6.6392    2.8138   -0.6960 H       1  UNL1        0.0336
     74 H          -7.6648    2.7053    0.8191 H       1  UNL1        0.0336
     75 H          -7.4993    4.1921    2.5142 H       1  UNL1        0.0621
     76 H          -6.8398    6.3936    3.2416 H       1  UNL1        0.0654
     77 H          -3.8568    9.7069    2.0737 H       1  UNL1        0.0660
     78 H          -4.6177    9.2323    0.5200 H       1  UNL1        0.0660
     79 H          -3.3430    8.1389    1.2444 H       1  UNL1        0.0660
     80 H          -4.2194    6.8113   -0.0245 H       1  UNL1        0.0654
     81 H          -4.8900    4.5380   -0.7910 H       1  UNL1        0.0621
     82 H          -3.9039    1.6355   -0.1193 H       1  UNL1        0.1495
     83 H          -1.1496    1.8853    1.2881 H       1  UNL1        0.0359
     84 H          -1.5024    2.7252   -0.2341 H       1  UNL1        0.0359
     85 H          -1.5076    3.9924    2.5767 H       1  UNL1        0.0278
     86 H          -1.8246    4.8649    1.0634 H       1  UNL1        0.0278
     87 H           0.3019    4.2492    0.1002 H       1  UNL1        0.0376
     88 H           0.3641    5.3581    1.4616 H       1  UNL1        0.0376
     89 H           2.3645    1.1678    2.4250 H       1  UNL1        0.0399
     90 H           0.6264    1.0252    2.4236 H       1  UNL1        0.0399
     91 H           0.6270    1.3660   -0.1161 H       1  UNL1        0.0603
     92 H           2.3795   -1.0976    0.5854 H       1  UNL1        0.1495
     93 H           1.1002   -3.5678    0.8729 H       1  UNL1        0.0599
     94 H           2.2431   -3.3114   -1.2051 H       1  UNL1        0.0381
     95 H           0.6376   -2.9711   -2.0817 H       1  UNL1        0.0381
     96 H           0.2551   -6.0574   -3.3322 H       1  UNL1        0.1449
     97 H           0.7427   -5.3681   -3.1055 H       1  UNL1        0.1449
     98 H          -1.5055   -2.6490   -0.4574 H       1  UNL1        0.1495
     99 H          -3.7318   -4.9152    1.2320 H       1  UNL1        0.0595
    100 H          -4.7241   -5.5105   -0.9076 H       1  UNL1        0.0292
    101 H          -3.2301   -4.8696   -1.7141 H       1  UNL1        0.0292
    102 H          -1.8199   -6.5591   -0.6563 H       1  UNL1        0.0359
    103 H          -3.1344   -7.3400   -1.5414 H       1  UNL1        0.0359
    104 H          -2.8688   -9.4812    0.6440 H       1  UNL1        0.1449
    105 H          -2.2824   -9.3351    1.5655 H       1  UNL1        0.1449
    106 H          -4.0543   -2.3964   -0.5203 H       1  UNL1        0.1495
    107 H           3.6869    3.6571   -1.5352 H       1  UNL1        0.0465
    108 H           5.1667    3.3522   -0.5946 H       1  UNL1        0.0465
    109 H           4.6782    3.0566   -3.4531 H       1  UNL1        0.0281
    110 H           6.2685    2.8397   -2.5624 H       1  UNL1        0.0281
    111 H           4.3415    0.7317   -3.4682 H       1  UNL1        0.0288
    112 H           6.1214    0.6168   -3.1306 H       1  UNL1        0.0288
    113 H           4.1742   -0.4179   -1.4759 H       1  UNL1        0.0597
    114 H           5.8997    1.6866    0.8875 H       1  UNL1        0.1495
    115 H           8.0308    1.5814    1.8431 H       1  UNL1        0.0594
    116 H           7.7686   -1.4366    1.2300 H       1  UNL1        0.0290
    117 H           8.9866   -0.6610    2.2394 H       1  UNL1        0.0290
    118 H           7.2159   -1.7352    3.5204 H       1  UNL1        0.0296
    119 H           5.4745   -1.2729    1.6822 H       1  UNL1        0.0232
    120 H           5.1293    0.2599    2.6132 H       1  UNL1        0.0232
    121 H           4.9249   -1.3254    3.3682 H       1  UNL1        0.0232
    122 H           6.9570   -0.1765    5.1161 H       1  UNL1        0.0232
    123 H           8.3544    0.4521    4.1815 H       1  UNL1        0.0232
    124 H           6.6779    1.2139    4.0171 H       1  UNL1        0.0232
    125 H           8.0786    1.6099   -1.5283 H       1  UNL1        0.1492
    126 H          10.6074    0.2818   -1.9943 H       1  UNL1        0.0558
    127 H          10.9424    1.9295   -1.3942 H       1  UNL1        0.0558
    128 H          11.6072    1.1864   -4.6520 H       1  UNL1        0.1450
    129 H          12.1512    2.2565   -4.0958 H       1  UNL1        0.1450
    130 H          -7.7661   -0.9991   -1.4753 H       1  UNL1        0.0321
    131 H          -5.5836   -0.9817   -2.2687 H       1  UNL1        0.0233
    132 H          -5.6012   -2.8066   -2.6136 H       1  UNL1        0.0233
    133 H          -6.7405   -1.6557   -3.4605 H       1  UNL1        0.0233
    134 H          -9.1034   -2.8911   -1.0064 H       1  UNL1        0.0266
    135 H          -8.6489   -2.8198   -2.7688 H       1  UNL1        0.0266
    136 H          -8.0771   -4.9604   -0.7619 H       1  UNL1        0.0230
    137 H          -8.3366   -5.0475   -2.5044 H       1  UNL1        0.0230
    138 H          -6.7375   -4.5741   -1.9080 H       1  UNL1        0.0230
@<TRIPOS>BOND
     1     1     2    1
     2     2     3   am
     3     3     4    2
     4     3     5    1
     5     5     6    1
     6     6     7    1
     7     7     8   ar
     8     8     9   ar
     9     9    10   ar
    10    10    11    1
    11    11    12    1
    12    10    13   ar
    13    13    14   ar
    14     5    15    1
    15    15    16   am
    16    16    17    2
    17    16    18    1
    18    18    19    1
    19    19    20    1
    20    20    21    1
    21    21    22    1
    22    22    23    1
    23    23    24    1
    24    24    25   am
    25    25    26    2
    26    25    27    1
    27    27    28    1
    28    28    29    1
    29    29    30   am
    30    29    31    2
    31    27    32    1
    32    32    33   am
    33    33    34    2
    34    33    35    1
    35    35    36    1
    36    36    37    1
    37    37    38    1
    38    38    39   am
    39    38    40    2
    40    35    41    1
    41    41    42   am
    42    42    43    2
    43    23    44    1
    44    44    45    2
    45    44    46   am
    46    46    47    1
    47    47    48    1
    48    48    49    1
    49    49    50    1
    50    50    51    1
    51    51    52    2
    52    51    53   am
    53    53    54    1
    54    54    55    1
    55    55    56    1
    56    56    57    1
    57    56    58    1
    58    54    59    1
    59    59    60    2
    60    59    61   am
    61    61    62    1
    62    62    63    1
    63    63    64   am
    64    63    65    2
    65     1    66    1
    66    66    67    1
    67    66    68    1
    68    68    69    1
    69    42     1    1
    70    50    46    1
    71    14     7   ar
    72     1    70    1
    73     2    71    1
    74     5    72    1
    75     6    73    1
    76     6    74    1
    77     8    75    1
    78     9    76    1
    79    12    77    1
    80    12    78    1
    81    12    79    1
    82    13    80    1
    83    14    81    1
    84    15    82    1
    85    18    83    1
    86    18    84    1
    87    19    85    1
    88    19    86    1
    89    20    87    1
    90    20    88    1
    91    22    89    1
    92    22    90    1
    93    23    91    1
    94    24    92    1
    95    27    93    1
    96    28    94    1
    97    28    95    1
    98    30    96    1
    99    30    97    1
   100    32    98    1
   101    35    99    1
   102    36   100    1
   103    36   101    1
   104    37   102    1
   105    37   103    1
   106    39   104    1
   107    39   105    1
   108    41   106    1
   109    47   107    1
   110    47   108    1
   111    48   109    1
   112    48   110    1
   113    49   111    1
   114    49   112    1
   115    50   113    1
   116    53   114    1
   117    54   115    1
   118    55   116    1
   119    55   117    1
   120    56   118    1
   121    57   119    1
   122    57   120    1
   123    57   121    1
   124    58   122    1
   125    58   123    1
   126    58   124    1
   127    61   125    1
   128    62   126    1
   129    62   127    1
   130    64   128    1
   131    64   129    1
   132    66   130    1
   133    67   131    1
   134    67   132    1
   135    67   133    1
   136    68   134    1
   137    68   135    1
   138    69   136    1
   139    69   137    1
   140    69   138    1
