@<TRIPOS>MOLECULE
*****
 80 80 0 0 0
SMALL
GASTEIGER

@<TRIPOS>ATOM
      1 C           8.3983   -1.0462   -1.5575 C.3     1  UNL1       -0.0652
      2 C           8.4599   -1.5606   -0.1291 C.3     1  UNL1       -0.0545
      3 C           7.4001   -2.5395    0.1383 C.3     1  UNL1       -0.0376
      4 C           5.9671   -2.2336    0.0422 C.3     1  UNL1        0.0116
      5 N           5.4658   -1.2580    0.9414 N.am    1  UNL1       -0.3151
      6 C           5.7230    0.1156    0.9915 C.2     1  UNL1        0.2159
      7 O           6.4700    0.6558    0.1545 O.2     1  UNL1       -0.2755
      8 C           5.1253    1.0053    2.0370 C.3     1  UNL1        0.0351
      9 C           5.6289    0.4930    3.3908 C.3     1  UNL1       -0.0540
     10 C           3.6297    1.0041    1.9838 C.3     1  UNL1       -0.0145
     11 C           3.1506    1.4793    0.6533 C.3     1  UNL1        0.0725
     12 O           3.5816    2.7701    0.3776 O.3     1  UNL1       -0.3902
     13 C           1.6727    1.3024    0.4500 C.3     1  UNL1        0.0471
     14 N           0.8745    2.1558    1.2689 N.3     1  UNL1       -0.3239
     15 C           1.3519    1.5117   -1.0122 C.3     1  UNL1        0.0328
     16 N          -0.0903    1.3473   -1.2577 N.am    1  UNL1       -0.2934
     17 C          -0.5404    0.0518   -1.5742 C.2     1  UNL1        0.2469
     18 O           0.2415   -0.9289   -1.6526 O.2     1  UNL1       -0.2700
     19 C          -1.9553   -0.2613   -1.8371 C.ar    1  UNL1        0.0377
     20 C          -2.4999   -0.1257   -3.0837 C.ar    1  UNL1       -0.0461
     21 C          -3.8196   -0.4307   -3.2870 C.ar    1  UNL1       -0.0187
     22 C          -4.6062   -0.8806   -2.2165 C.ar    1  UNL1        0.1272
     23 O          -5.9195   -1.1672   -2.4942 O.3     1  UNL1       -0.4945
     24 C          -6.4468   -1.0183   -3.7783 C.3     1  UNL1        0.0788
     25 C          -4.0632   -1.0179   -0.9653 C.ar    1  UNL1        0.0171
     26 C          -4.8320   -1.4768    0.1785 C.2     1  UNL1       -0.0549
     27 C          -6.0969   -1.8072    0.2278 C.2     1  UNL1       -0.0812
     28 C          -6.7209   -2.2671    1.5312 C.3     1  UNL1       -0.0109
     29 C          -7.8250   -1.3034    1.8695 C.3     1  UNL1        0.0507
     30 O          -8.4755   -1.6135    3.0405 O.3     1  UNL1       -0.3827
     31 C          -9.4655   -0.6494    3.2412 C.3     1  UNL1        0.0365
     32 C          -2.7218   -0.6984   -0.8007 C.ar    1  UNL1       -0.0390
     33 C          -0.9333    2.5151   -1.1681 C.3     1  UNL1        0.0207
     34 C          -2.0038    2.3491   -0.1461 C.3     1  UNL1       -0.0467
     35 C          -1.5693    2.8769   -2.4954 C.3     1  UNL1       -0.0467
     36 H           7.3433   -1.0941   -1.8839 H       1  UNL1        0.0230
     37 H           8.7320    0.0246   -1.5527 H       1  UNL1        0.0230
     38 H           9.0678   -1.6720   -2.1895 H       1  UNL1        0.0230
     39 H           8.5833   -0.7166    0.5503 H       1  UNL1        0.0263
     40 H           9.4982   -2.0914   -0.0135 H       1  UNL1        0.0263
     41 H           7.6256   -2.9707    1.1943 H       1  UNL1        0.0280
     42 H           7.6313   -3.4923   -0.4819 H       1  UNL1        0.0280
     43 H           5.7099   -1.8952   -1.0112 H       1  UNL1        0.0462
     44 H           5.4261   -3.2279    0.1856 H       1  UNL1        0.0462
     45 H           4.7718   -1.5723    1.7308 H       1  UNL1        0.1487
     46 H           5.5375    2.0108    1.9081 H       1  UNL1        0.0392
     47 H           6.6074    0.9717    3.5987 H       1  UNL1        0.0237
     48 H           5.6575   -0.6075    3.4262 H       1  UNL1        0.0237
     49 H           4.9332    0.8177    4.2031 H       1  UNL1        0.0237
     50 H           3.2407    0.0032    2.2587 H       1  UNL1        0.0298
     51 H           3.2808    1.6802    2.8171 H       1  UNL1        0.0298
     52 H           3.6532    0.8244   -0.1186 H       1  UNL1        0.0609
     53 H           3.2146    3.4558    0.9589 H       1  UNL1        0.2098
     54 H           1.4389    0.2440    0.7514 H       1  UNL1        0.0499
     55 H           0.4116    1.6599    2.0678 H       1  UNL1        0.1186
     56 H           1.2930    3.0584    1.5161 H       1  UNL1        0.1186
     57 H           1.7065    2.4760   -1.3905 H       1  UNL1        0.0481
     58 H           1.8866    0.7357   -1.5972 H       1  UNL1        0.0481
     59 H          -1.9243    0.2142   -3.9232 H       1  UNL1        0.0626
     60 H          -4.2931   -0.3368   -4.2651 H       1  UNL1        0.0654
     61 H          -5.8926   -1.6892   -4.4905 H       1  UNL1        0.0660
     62 H          -7.5051   -1.3646   -3.8312 H       1  UNL1        0.0660
     63 H          -6.3959    0.0143   -4.1769 H       1  UNL1        0.0660
     64 H          -4.2926   -1.5682    1.1566 H       1  UNL1        0.0621
     65 H          -6.6923   -1.7512   -0.6583 H       1  UNL1        0.0573
     66 H          -5.9407   -2.3522    2.2876 H       1  UNL1        0.0330
     67 H          -7.1107   -3.2846    1.3091 H       1  UNL1        0.0330
     68 H          -7.3534   -0.2997    2.0138 H       1  UNL1        0.0563
     69 H          -8.4966   -1.2198    0.9959 H       1  UNL1        0.0563
     70 H         -10.1507   -0.7091    2.3554 H       1  UNL1        0.0523
     71 H          -9.9946   -0.7745    4.1995 H       1  UNL1        0.0523
     72 H          -8.9624    0.3545    3.1631 H       1  UNL1        0.0523
     73 H          -2.2918   -0.8098    0.1979 H       1  UNL1        0.0632
     74 H          -0.3271    3.4225   -0.8868 H       1  UNL1        0.0495
     75 H          -1.7956    1.6226    0.6494 H       1  UNL1        0.0247
     76 H          -2.9753    2.1762   -0.6664 H       1  UNL1        0.0247
     77 H          -2.1645    3.3342    0.3846 H       1  UNL1        0.0247
     78 H          -1.0809    2.3777   -3.3392 H       1  UNL1        0.0247
     79 H          -1.5006    3.9919   -2.6645 H       1  UNL1        0.0247
     80 H          -2.6655    2.6806   -2.4447 H       1  UNL1        0.0247
@<TRIPOS>BOND
     1     1     2    1
     2     2     3    1
     3     3     4    1
     4     4     5    1
     5     5     6   am
     6     6     7    2
     7     6     8    1
     8     8     9    1
     9     8    10    1
    10    10    11    1
    11    11    12    1
    12    11    13    1
    13    13    14    1
    14    13    15    1
    15    15    16    1
    16    16    17   am
    17    17    18    2
    18    17    19    1
    19    19    20   ar
    20    20    21   ar
    21    21    22   ar
    22    22    23    1
    23    23    24    1
    24    22    25   ar
    25    25    26    1
    26    26    27    2
    27    27    28    1
    28    28    29    1
    29    29    30    1
    30    30    31    1
    31    25    32   ar
    32    16    33    1
    33    33    34    1
    34    33    35    1
    35    32    19   ar
    36     1    36    1
    37     1    37    1
    38     1    38    1
    39     2    39    1
    40     2    40    1
    41     3    41    1
    42     3    42    1
    43     4    43    1
    44     4    44    1
    45     5    45    1
    46     8    46    1
    47     9    47    1
    48     9    48    1
    49     9    49    1
    50    10    50    1
    51    10    51    1
    52    11    52    1
    53    12    53    1
    54    13    54    1
    55    14    55    1
    56    14    56    1
    57    15    57    1
    58    15    58    1
    59    20    59    1
    60    21    60    1
    61    24    61    1
    62    24    62    1
    63    24    63    1
    64    26    64    1
    65    27    65    1
    66    28    66    1
    67    28    67    1
    68    29    68    1
    69    29    69    1
    70    31    70    1
    71    31    71    1
    72    31    72    1
    73    32    73    1
    74    33    74    1
    75    34    75    1
    76    34    76    1
    77    34    77    1
    78    35    78    1
    79    35    79    1
    80    35    80    1
