@<TRIPOS>MOLECULE
*****
 60 62 0 0 0
SMALL
GASTEIGER

@<TRIPOS>ATOM
      1 C           9.6747   -1.1156   -0.2610 C.3     1  UNL1       -0.0453
      2 C           8.2596   -0.8628    0.1925 C.3     1  UNL1        0.0697
      3 S           7.5740    0.5839   -0.5952 S.O2    1  UNL1        0.0136
      4 O           7.5890    0.3925   -2.0731 O.2     1  UNL1       -0.1679
      5 O           8.4459    1.7449   -0.2047 O.2     1  UNL1       -0.1679
      6 C           5.9410    0.7817   -0.0004 C.ar    1  UNL1        0.1769
      7 C           4.8684    0.7578   -0.8849 C.ar    1  UNL1       -0.0090
      8 C           3.5629    0.9077   -0.4769 C.ar    1  UNL1        0.0047
      9 C           2.3334    0.9273   -1.1024 C.ar    1  UNL1       -0.0332
     10 C           1.3758    1.1180   -0.1317 C.ar    1  UNL1        0.0200
     11 C          -0.0658    1.2564   -0.2958 C.3     1  UNL1        0.0250
     12 C          -0.8497   -0.0719   -0.1153 C.3     1  UNL1        0.1664
     13 O          -0.4781   -0.4064    1.2255 O.3     1  UNL1       -0.3793
     14 C          -2.2359    0.3967   -0.1992 C.3     1  UNL1       -0.0059
     15 C          -3.3800   -0.5632   -0.0678 C.3     1  UNL1       -0.0062
     16 C          -3.3535   -1.2914    1.2229 C.3     1  UNL1       -0.0557
     17 C          -3.4432   -1.3243   -1.3521 C.3     1  UNL1       -0.0557
     18 C          -4.6298    0.3009   -0.0378 C.ar    1  UNL1       -0.0294
     19 C          -4.5427    1.6928   -0.1633 C.ar    1  UNL1       -0.0546
     20 C          -5.6779    2.4751   -0.1342 C.ar    1  UNL1       -0.0261
     21 C          -6.8904    1.8889    0.0171 C.ar    1  UNL1        0.1241
     22 F          -8.0580    2.6001    0.0551 F       1  UNL1       -0.2055
     23 C          -6.9670    0.5348    0.1379 C.ar    1  UNL1       -0.0141
     24 C          -5.8429   -0.3194    0.1159 C.ar    1  UNL1        0.0429
     25 C          -6.1061   -1.7088    0.2338 C.2     1  UNL1        0.2419
     26 N          -7.4179   -2.1336    0.7023 N.am    1  UNL1       -0.3253
     27 O          -5.3836   -2.6552    0.0006 O.2     1  UNL1       -0.2704
     28 C          -0.2605   -1.0326   -1.0238 C.3     1  UNL1        0.4186
     29 F          -0.7663   -2.3115   -1.0625 F       1  UNL1       -0.1676
     30 F          -0.0854   -0.5217   -2.3032 F       1  UNL1       -0.1676
     31 F           1.0600   -1.2643   -0.5541 F       1  UNL1       -0.1676
     32 N           2.0411    1.2088    1.0461 N.ar    1  UNL1       -0.3566
     33 C           3.3618    1.0882    0.8908 C.ar    1  UNL1        0.0651
     34 C           4.4222    1.1126    1.7717 C.ar    1  UNL1        0.0536
     35 N           5.6692    0.9599    1.3038 N.ar    1  UNL1       -0.2348
     36 H           9.8974   -0.5732   -1.1882 H       1  UNL1        0.0245
     37 H          10.4128   -0.9173    0.5439 H       1  UNL1        0.0245
     38 H           9.7515   -2.2106   -0.4877 H       1  UNL1        0.0245
     39 H           7.5774   -1.6948   -0.0129 H       1  UNL1        0.0502
     40 H           8.2371   -0.6579    1.2920 H       1  UNL1        0.0502
     41 H           5.0226    0.6169   -1.9543 H       1  UNL1        0.0659
     42 H           2.1965    0.8141   -2.1675 H       1  UNL1        0.0641
     43 H          -0.3538    1.6319   -1.3193 H       1  UNL1        0.0358
     44 H          -0.5089    2.0254    0.4009 H       1  UNL1        0.0358
     45 H           0.0126   -1.2707    1.2348 H       1  UNL1        0.2106
     46 H          -2.3609    0.9500   -1.1415 H       1  UNL1        0.0304
     47 H          -2.3541    1.1204    0.6469 H       1  UNL1        0.0304
     48 H          -4.2733   -1.2522    1.8371 H       1  UNL1        0.0238
     49 H          -3.0545   -2.3497    1.1255 H       1  UNL1        0.0238
     50 H          -2.6152   -0.7983    1.9548 H       1  UNL1        0.0238
     51 H          -3.2870   -2.3949   -1.3226 H       1  UNL1        0.0238
     52 H          -4.4188   -1.1613   -1.9235 H       1  UNL1        0.0238
     53 H          -2.7314   -0.8494   -2.1309 H       1  UNL1        0.0238
     54 H          -3.5743    2.1567   -0.2915 H       1  UNL1        0.0622
     55 H          -5.5653    3.5387   -0.2337 H       1  UNL1        0.0646
     56 H          -7.9630    0.0698    0.2580 H       1  UNL1        0.0654
     57 H          -7.4474   -2.5976    1.6177 H       1  UNL1        0.1453
     58 H          -8.2206   -1.9478    0.1014 H       1  UNL1        0.1453
     59 H           1.5872    1.3553    1.9701 H       1  UNL1        0.1656
     60 H           4.2892    1.2504    2.8287 H       1  UNL1        0.0851
@<TRIPOS>BOND
     1     1     2    1
     2     2     3    1
     3     3     4    2
     4     3     5    2
     5     3     6    1
     6     6     7   ar
     7     7     8   ar
     8     8     9   ar
     9     9    10   ar
    10    10    11    1
    11    11    12    1
    12    12    13    1
    13    12    14    1
    14    14    15    1
    15    15    16    1
    16    15    17    1
    17    15    18    1
    18    18    19   ar
    19    19    20   ar
    20    20    21   ar
    21    21    22    1
    22    21    23   ar
    23    23    24   ar
    24    24    25    1
    25    25    26   am
    26    25    27    2
    27    12    28    1
    28    28    29    1
    29    28    30    1
    30    28    31    1
    31    10    32   ar
    32    32    33   ar
    33    33    34   ar
    34    34    35   ar
    35    35     6   ar
    36    33     8   ar
    37    24    18   ar
    38     1    36    1
    39     1    37    1
    40     1    38    1
    41     2    39    1
    42     2    40    1
    43     7    41    1
    44     9    42    1
    45    11    43    1
    46    11    44    1
    47    13    45    1
    48    14    46    1
    49    14    47    1
    50    16    48    1
    51    16    49    1
    52    16    50    1
    53    17    51    1
    54    17    52    1
    55    17    53    1
    56    19    54    1
    57    20    55    1
    58    23    56    1
    59    26    57    1
    60    26    58    1
    61    32    59    1
    62    34    60    1
