
     RDKit          3D

 41 43  0  0  0  0  0  0  0  0999 V2000
    5.6777    3.0702   -2.0334 C   0  0  0  0  0  0  0  0  0  0  0  0
    5.2320    2.1474   -1.0193 N   0  0  0  0  0  0  0  0  0  0  0  0
    3.9954    1.4786   -1.2028 C   0  0  0  0  0  0  0  0  0  0  0  0
    3.2553    1.6327   -2.1906 O   0  0  0  0  0  0  0  0  0  0  0  0
    3.5685    0.5843   -0.2156 O   0  0  0  0  0  0  0  0  0  0  0  0
    2.3684   -0.0938   -0.3484 C   0  0  0  0  0  0  0  0  0  0  0  0
    2.2677   -1.3256   -0.9595 C   0  0  0  0  0  0  0  0  0  0  0  0
    1.0435   -1.9769   -1.0748 C   0  0  0  0  0  0  0  0  0  0  0  0
   -0.1159   -1.3847   -0.5664 C   0  0  0  0  0  0  0  0  0  0  0  0
   -0.0092   -0.1582    0.0414 C   0  0  0  0  0  0  0  0  0  0  0  0
    1.2330    0.4939    0.1536 C   0  0  0  0  0  0  0  0  0  0  0  0
   -1.3513    0.2355    0.4900 C   0  0  2  0  0  0  0  0  0  0  0  0
   -1.6167    1.7089    0.3251 C   0  0  0  0  0  0  0  0  0  0  0  0
   -1.5799   -0.2196    1.9181 C   0  0  0  0  0  0  0  0  0  0  0  0
   -2.8005   -1.1080    1.8716 C   0  0  0  0  0  0  0  0  0  0  0  0
   -3.3692   -0.9944    0.5581 N   0  0  0  0  0  0  0  0  0  0  0  0
   -4.4352   -0.0264    0.5807 C   0  0  0  0  0  0  0  0  0  0  0  0
   -2.2781   -0.6313   -0.2833 C   0  0  2  0  0  0  0  0  0  0  0  0
   -1.4842   -1.8156   -0.5515 N   0  0  0  0  0  0  0  0  0  0  0  0
   -1.8940   -3.1838   -0.7776 C   0  0  0  0  0  0  0  0  0  0  0  0
    6.3935    3.8143   -1.5957 H   0  0  0  0  0  0  0  0  0  0  0  0
    6.1925    2.5050   -2.8369 H   0  0  0  0  0  0  0  0  0  0  0  0
    4.8578    3.6545   -2.4876 H   0  0  0  0  0  0  0  0  0  0  0  0
    5.8100    1.9666   -0.1514 H   0  0  0  0  0  0  0  0  0  0  0  0
    3.1500   -1.8157   -1.3660 H   0  0  0  0  0  0  0  0  0  0  0  0
    0.9658   -2.9450   -1.5556 H   0  0  0  0  0  0  0  0  0  0  0  0
    1.2647    1.4410    0.6310 H   0  0  0  0  0  0  0  0  0  0  0  0
   -2.2697    2.0835    1.1427 H   0  0  0  0  0  0  0  0  0  0  0  0
   -0.6312    2.2328    0.4540 H   0  0  0  0  0  0  0  0  0  0  0  0
   -1.9970    1.9926   -0.6564 H   0  0  0  0  0  0  0  0  0  0  0  0
   -1.7760    0.6385    2.5929 H   0  0  0  0  0  0  0  0  0  0  0  0
   -0.7087   -0.8350    2.2791 H   0  0  0  0  0  0  0  0  0  0  0  0
   -3.5364   -0.7719    2.6372 H   0  0  0  0  0  0  0  0  0  0  0  0
   -2.5112   -2.1727    2.0610 H   0  0  0  0  0  0  0  0  0  0  0  0
   -5.3696   -0.5629    0.8718 H   0  0  0  0  0  0  0  0  0  0  0  0
   -4.6347    0.4036   -0.4277 H   0  0  0  0  0  0  0  0  0  0  0  0
   -4.2540    0.7423    1.3418 H   0  0  0  0  0  0  0  0  0  0  0  0
   -2.6144   -0.1608   -1.2432 H   0  0  0  0  0  0  0  0  0  0  0  0
   -2.6202   -3.2560   -1.6164 H   0  0  0  0  0  0  0  0  0  0  0  0
   -2.4026   -3.5518    0.1229 H   0  0  0  0  0  0  0  0  0  0  0  0
   -1.0160   -3.8361   -0.9281 H   0  0  0  0  0  0  0  0  0  0  0  0
  1  2  1  0
  2  3  1  0
  3  4  2  0
  3  5  1  0
  5  6  1  0
  6  7  2  0
  7  8  1  0
  8  9  2  0
  9 10  1  0
 10 11  2  0
 10 12  1  0
 12 13  1  1
 12 14  1  0
 14 15  1  0
 15 16  1  0
 16 17  1  0
 16 18  1  0
 18 19  1  0
 19 20  1  0
 11  6  1  0
 18 12  1  0
 19  9  1  0
  1 21  1  0
  1 22  1  0
  1 23  1  0
  2 24  1  0
  7 25  1  0
  8 26  1  0
 11 27  1  0
 13 28  1  0
 13 29  1  0
 13 30  1  0
 14 31  1  0
 14 32  1  0
 15 33  1  0
 15 34  1  0
 17 35  1  0
 17 36  1  0
 17 37  1  0
 18 38  1  6
 20 39  1  0
 20 40  1  0
 20 41  1  0
M  END
$$$$
