@<TRIPOS>MOLECULE
*****
 41 43 0 0 0
SMALL
GASTEIGER

@<TRIPOS>ATOM
      1 C           5.6777    3.0702   -2.0334 C.3     1  UNL1        0.0032
      2 N           5.2320    2.1474   -1.0193 N.am    1  UNL1       -0.2839
      3 C           3.9954    1.4786   -1.2028 C.2     1  UNL1        0.4053
      4 O           3.2553    1.6327   -2.1906 O.2     1  UNL1       -0.2260
      5 O           3.5685    0.5843   -0.2156 O.3     1  UNL1       -0.4115
      6 C           2.3684   -0.0938   -0.3484 C.ar    1  UNL1        0.1336
      7 C           2.2677   -1.3256   -0.9595 C.ar    1  UNL1       -0.0174
      8 C           1.0435   -1.9769   -1.0748 C.ar    1  UNL1       -0.0369
      9 C          -0.1159   -1.3847   -0.5664 C.ar    1  UNL1        0.0347
     10 C          -0.0092   -0.1582    0.0414 C.ar    1  UNL1       -0.0139
     11 C           1.2330    0.4939    0.1536 C.ar    1  UNL1       -0.0136
     12 C          -1.3513    0.2355    0.4900 C.3     1  UNL1        0.0279
     13 C          -1.6167    1.7089    0.3251 C.3     1  UNL1       -0.0525
     14 C          -1.5799   -0.2196    1.9181 C.3     1  UNL1       -0.0277
     15 C          -2.8005   -1.1080    1.8716 C.3     1  UNL1        0.0012
     16 N          -3.3692   -0.9944    0.5581 N.3     1  UNL1       -0.2867
     17 C          -4.4352   -0.0264    0.5807 C.3     1  UNL1       -0.0111
     18 C          -2.2781   -0.6313   -0.2833 C.3     1  UNL1        0.0860
     19 N          -1.4842   -1.8156   -0.5515 N.pl3   1  UNL1       -0.3162
     20 C          -1.8940   -3.1838   -0.7776 C.3     1  UNL1        0.0022
     21 H           6.3935    3.8143   -1.5957 H       1  UNL1        0.0427
     22 H           6.1925    2.5050   -2.8369 H       1  UNL1        0.0427
     23 H           4.8578    3.6545   -2.4876 H       1  UNL1        0.0427
     24 H           5.8100    1.9666   -0.1514 H       1  UNL1        0.1517
     25 H           3.1500   -1.8157   -1.3660 H       1  UNL1        0.0655
     26 H           0.9658   -2.9450   -1.5556 H       1  UNL1        0.0637
     27 H           1.2647    1.4410    0.6310 H       1  UNL1        0.0658
     28 H          -2.2697    2.0835    1.1427 H       1  UNL1        0.0239
     29 H          -0.6312    2.2328    0.4540 H       1  UNL1        0.0239
     30 H          -1.9970    1.9926   -0.6564 H       1  UNL1        0.0239
     31 H          -1.7760    0.6385    2.5929 H       1  UNL1        0.0287
     32 H          -0.7087   -0.8350    2.2791 H       1  UNL1        0.0287
     33 H          -3.5364   -0.7719    2.6372 H       1  UNL1        0.0427
     34 H          -2.5112   -2.1727    2.0610 H       1  UNL1        0.0427
     35 H          -5.3696   -0.5629    0.8718 H       1  UNL1        0.0391
     36 H          -4.6347    0.4036   -0.4277 H       1  UNL1        0.0391
     37 H          -4.2540    0.7423    1.3418 H       1  UNL1        0.0391
     38 H          -2.6144   -0.1608   -1.2432 H       1  UNL1        0.0680
     39 H          -2.6202   -3.2560   -1.6164 H       1  UNL1        0.0428
     40 H          -2.4026   -3.5518    0.1229 H       1  UNL1        0.0428
     41 H          -1.0160   -3.8361   -0.9281 H       1  UNL1        0.0428
@<TRIPOS>BOND
     1     1     2    1
     2     2     3   am
     3     3     4    2
     4     3     5    1
     5     5     6    1
     6     6     7   ar
     7     7     8   ar
     8     8     9   ar
     9     9    10   ar
    10    10    11   ar
    11    10    12    1
    12    12    13    1
    13    12    14    1
    14    14    15    1
    15    15    16    1
    16    16    17    1
    17    16    18    1
    18    18    19    1
    19    19    20    1
    20    11     6   ar
    21    18    12    1
    22    19     9    1
    23     1    21    1
    24     1    22    1
    25     1    23    1
    26     2    24    1
    27     7    25    1
    28     8    26    1
    29    11    27    1
    30    13    28    1
    31    13    29    1
    32    13    30    1
    33    14    31    1
    34    14    32    1
    35    15    33    1
    36    15    34    1
    37    17    35    1
    38    17    36    1
    39    17    37    1
    40    18    38    1
    41    20    39    1
    42    20    40    1
    43    20    41    1
