@<TRIPOS>MOLECULE
*****
 48 50 0 0 0
SMALL
GASTEIGER

@<TRIPOS>ATOM
      1 O           5.3417   -2.1424    1.3289 O.2     1  UNL1       -0.2731
      2 C           5.2349   -0.9245    1.0394 C.2     1  UNL1        0.2412
      3 C           6.0310    0.0811    1.7805 C.3     1  UNL1        0.1204
      4 O           6.8127   -0.5619    2.7374 O.3     1  UNL1       -0.3858
      5 N           4.3473   -0.5584    0.0042 N.am    1  UNL1       -0.2966
      6 C           3.5855   -1.5678   -0.6984 C.3     1  UNL1        0.0306
      7 C           2.1428   -1.1029   -0.9185 C.3     1  UNL1        0.0320
      8 N           2.0594    0.2715   -1.2223 N.am    1  UNL1       -0.2825
      9 C           0.8561    0.9990   -1.2572 C.2     1  UNL1        0.3050
     10 O           0.9224    2.2664   -1.5547 O.2     1  UNL1       -0.2524
     11 N          -0.4437    0.5392   -1.0103 N.am    1  UNL1       -0.2825
     12 C          -0.9081   -0.7549   -0.6543 C.3     1  UNL1        0.0319
     13 C          -2.4269   -0.8758   -0.7400 C.3     1  UNL1        0.0281
     14 N          -3.0721    0.1932   -0.0106 N.pl3   1  UNL1       -0.3269
     15 C          -4.3735    0.1083    0.5374 C.ar    1  UNL1        0.0299
     16 C          -5.1676   -1.0014    0.2257 C.ar    1  UNL1       -0.0393
     17 C          -6.4325   -1.1302    0.7392 C.ar    1  UNL1       -0.0416
     18 C          -6.9758   -0.1814    1.5786 C.ar    1  UNL1        0.0411
     19 CL         -8.6034   -0.3728    2.2234 Cl      1  UNL1       -0.0835
     20 C          -6.2261    0.9107    1.9002 C.ar    1  UNL1       -0.0416
     21 C          -4.9373    1.0322    1.3712 C.ar    1  UNL1       -0.0393
     22 C          -2.3174    1.4300    0.1544 C.3     1  UNL1        0.0281
     23 C          -1.5209    1.5625   -1.1497 C.3     1  UNL1        0.0319
     24 C           3.3123    0.9963   -1.5272 C.3     1  UNL1        0.0320
     25 C           4.2282    0.8533   -0.3262 C.3     1  UNL1        0.0306
     26 H           6.6888    0.6761    1.1253 H       1  UNL1        0.0654
     27 H           5.3480    0.7749    2.3338 H       1  UNL1        0.0654
     28 H           7.0358   -1.4915    2.4781 H       1  UNL1        0.2100
     29 H           3.5206   -2.4882   -0.0843 H       1  UNL1        0.0480
     30 H           4.0674   -1.8289   -1.6604 H       1  UNL1        0.0480
     31 H           1.5361   -1.3487   -0.0323 H       1  UNL1        0.0480
     32 H           1.7919   -1.6809   -1.8146 H       1  UNL1        0.0480
     33 H          -0.4550   -1.5174   -1.3016 H       1  UNL1        0.0480
     34 H          -0.6823   -1.0317    0.4061 H       1  UNL1        0.0480
     35 H          -2.7677   -1.8595   -0.3821 H       1  UNL1        0.0479
     36 H          -2.7004   -0.7763   -1.8027 H       1  UNL1        0.0479
     37 H          -4.7903   -1.7866   -0.4368 H       1  UNL1        0.0636
     38 H          -7.0590   -1.9971    0.4986 H       1  UNL1        0.0633
     39 H          -6.6197    1.6713    2.5535 H       1  UNL1        0.0633
     40 H          -4.3722    1.9123    1.6534 H       1  UNL1        0.0636
     41 H          -1.5801    1.2857    0.9559 H       1  UNL1        0.0479
     42 H          -2.9698    2.3168    0.2933 H       1  UNL1        0.0479
     43 H          -2.2099    1.2505   -1.9592 H       1  UNL1        0.0480
     44 H          -1.1181    2.5655   -1.2754 H       1  UNL1        0.0480
     45 H           3.7538    0.5268   -2.4049 H       1  UNL1        0.0480
     46 H           3.1125    2.0659   -1.6688 H       1  UNL1        0.0480
     47 H           5.2060    1.3314   -0.5289 H       1  UNL1        0.0480
     48 H           3.7947    1.3602    0.5579 H       1  UNL1        0.0480
@<TRIPOS>BOND
     1     1     2    2
     2     2     3    1
     3     3     4    1
     4     2     5   am
     5     5     6    1
     6     6     7    1
     7     7     8    1
     8     8     9   am
     9     9    10    2
    10     9    11   am
    11    11    12    1
    12    12    13    1
    13    13    14    1
    14    14    15    1
    15    15    16   ar
    16    16    17   ar
    17    17    18   ar
    18    18    19    1
    19    18    20   ar
    20    20    21   ar
    21    14    22    1
    22    22    23    1
    23     8    24    1
    24    24    25    1
    25    25     5    1
    26    23    11    1
    27    21    15   ar
    28     3    26    1
    29     3    27    1
    30     4    28    1
    31     6    29    1
    32     6    30    1
    33     7    31    1
    34     7    32    1
    35    12    33    1
    36    12    34    1
    37    13    35    1
    38    13    36    1
    39    16    37    1
    40    17    38    1
    41    20    39    1
    42    21    40    1
    43    22    41    1
    44    22    42    1
    45    23    43    1
    46    23    44    1
    47    24    45    1
    48    24    46    1
    49    25    47    1
    50    25    48    1
