@<TRIPOS>MOLECULE
*****
 51 54 0 0 0
SMALL
GASTEIGER

@<TRIPOS>ATOM
      1 C         -10.0520    0.6418    0.7215 C.3     1  UNL1       -0.0382
      2 C          -8.8455    0.4656   -0.1496 C.ar    1  UNL1       -0.0306
      3 C          -9.0156    0.4445   -1.5143 C.ar    1  UNL1        0.0306
      4 N          -7.9216    0.2859   -2.2673 N.ar    1  UNL1       -0.2612
      5 C          -6.6912    0.1516   -1.6804 C.ar    1  UNL1        0.0488
      6 C          -6.4779    0.1667   -0.3359 C.ar    1  UNL1        0.0522
      7 N          -5.2445    0.0341    0.3114 N.am    1  UNL1       -0.2802
      8 C          -3.9647   -0.1405   -0.2373 C.2     1  UNL1        0.2484
      9 O          -3.8570   -0.1913   -1.4757 O.2     1  UNL1       -0.2699
     10 C          -2.7265   -0.2695    0.5480 C.ar    1  UNL1        0.0390
     11 C          -2.6880   -0.2328    1.9225 C.ar    1  UNL1       -0.0495
     12 C          -1.4762   -0.3615    2.6047 C.ar    1  UNL1       -0.0590
     13 C          -0.2820   -0.5282    1.9566 C.ar    1  UNL1       -0.0362
     14 C          -0.3135   -0.5658    0.5787 C.ar    1  UNL1        0.0661
     15 N           0.8973   -0.7376   -0.1758 N.ar    1  UNL1       -0.2380
     16 C           2.0641   -1.1633    0.3434 C.ar    1  UNL1        0.0525
     17 C           2.9450   -1.1815   -0.7165 C.ar    1  UNL1        0.0729
     18 N           4.3086   -1.5689   -0.6369 N.am    1  UNL1       -0.2665
     19 C           5.3362   -0.6357   -0.3578 C.2     1  UNL1        0.3082
     20 O           5.0186    0.5831   -0.1746 O.2     1  UNL1       -0.2521
     21 N           6.7062   -0.9524   -0.2648 N.am    1  UNL1       -0.2679
     22 C           7.7167    0.0280    0.0207 C.ar    1  UNL1        0.0531
     23 C           8.3456    0.7221   -0.9925 C.ar    1  UNL1       -0.0390
     24 C           9.3087    1.6562   -0.7163 C.ar    1  UNL1       -0.0599
     25 C           9.6847    1.9382    0.5668 C.ar    1  UNL1       -0.0603
     26 C           9.0663    1.2540    1.5893 C.ar    1  UNL1       -0.0416
     27 C           8.0897    0.3069    1.3064 C.ar    1  UNL1        0.0622
     28 CL          7.3043   -0.5624    2.6100 Cl      1  UNL1       -0.0816
     29 C           2.2819   -0.7623   -1.8610 C.ar    1  UNL1        0.0710
     30 N           1.0336   -0.5042   -1.4712 N.ar    1  UNL1       -0.1729
     31 C          -1.5106   -0.4386   -0.0939 C.ar    1  UNL1       -0.0241
     32 C          -7.6248    0.3334    0.4627 C.ar    1  UNL1       -0.0346
     33 H         -10.8622    1.1697    0.1802 H       1  UNL1        0.0278
     34 H         -10.4557   -0.3080    1.0740 H       1  UNL1        0.0278
     35 H          -9.7260    1.2522    1.5802 H       1  UNL1        0.0278
     36 H         -10.0164    0.5549   -1.9541 H       1  UNL1        0.0832
     37 H          -5.8214    0.0237   -2.3345 H       1  UNL1        0.0848
     38 H          -5.2463    0.0669    1.3831 H       1  UNL1        0.1552
     39 H          -3.6153   -0.1021    2.4714 H       1  UNL1        0.0625
     40 H          -1.4770   -0.3290    3.6811 H       1  UNL1        0.0618
     41 H           0.6694   -0.6297    2.4781 H       1  UNL1        0.0639
     42 H           2.3102   -1.4422    1.3591 H       1  UNL1        0.0850
     43 H           4.5919   -2.5642   -0.7839 H       1  UNL1        0.1565
     44 H           6.9834   -1.9596   -0.4145 H       1  UNL1        0.1564
     45 H           8.0477    0.4987   -2.0098 H       1  UNL1        0.0637
     46 H           9.7966    2.1970   -1.5372 H       1  UNL1        0.0618
     47 H          10.4561    2.6889    0.7532 H       1  UNL1        0.0618
     48 H           9.3269    1.4394    2.6243 H       1  UNL1        0.0633
     49 H           2.6692   -0.6569   -2.8697 H       1  UNL1        0.0867
     50 H          -1.5349   -0.4685   -1.1870 H       1  UNL1        0.0646
     51 H          -7.5124    0.3530    1.5499 H       1  UNL1        0.0640
@<TRIPOS>BOND
     1     1     2    1
     2     2     3   ar
     3     3     4   ar
     4     4     5   ar
     5     5     6   ar
     6     6     7    1
     7     7     8   am
     8     8     9    2
     9     8    10    1
    10    10    11   ar
    11    11    12   ar
    12    12    13   ar
    13    13    14   ar
    14    14    15    1
    15    15    16   ar
    16    16    17   ar
    17    17    18    1
    18    18    19   am
    19    19    20    2
    20    19    21   am
    21    21    22    1
    22    22    23   ar
    23    23    24   ar
    24    24    25   ar
    25    25    26   ar
    26    26    27   ar
    27    27    28    1
    28    17    29   ar
    29    29    30   ar
    30    14    31   ar
    31     6    32   ar
    32    32     2   ar
    33    31    10   ar
    34    30    15   ar
    35    27    22   ar
    36     1    33    1
    37     1    34    1
    38     1    35    1
    39     3    36    1
    40     5    37    1
    41     7    38    1
    42    11    39    1
    43    12    40    1
    44    13    41    1
    45    16    42    1
    46    18    43    1
    47    21    44    1
    48    23    45    1
    49    24    46    1
    50    25    47    1
    51    26    48    1
    52    29    49    1
    53    31    50    1
    54    32    51    1
