
     RDKit          3D

 39 42  0  0  0  0  0  0  0  0999 V2000
   -0.4748    3.7040    1.2892 C   0  0  0  0  0  0  0  0  0  0  0  0
   -0.4481    2.3453    0.6825 C   0  0  0  0  0  0  0  0  0  0  0  0
   -0.6036    2.1849   -0.6249 C   0  0  0  0  0  0  0  0  0  0  0  0
   -1.1515    0.9419   -1.2361 C   0  0  1  0  0  0  0  0  0  0  0  0
   -0.0571    0.2997   -2.0589 C   0  0  0  0  0  0  0  0  0  0  0  0
    1.0570   -0.1784   -1.2038 C   0  0  0  0  0  0  0  0  0  0  0  0
    2.2588   -0.4157   -1.7989 N   0  0  0  0  0  0  0  0  0  0  0  0
    3.2981   -0.8476   -1.0664 C   0  0  0  0  0  0  0  0  0  0  0  0
    4.4284   -1.0727   -1.6157 O   0  0  0  0  0  0  0  0  0  0  0  0
    3.1524   -1.0489    0.2721 C   0  0  0  0  0  0  0  0  0  0  0  0
    1.9444   -0.8129    0.8841 C   0  0  0  0  0  0  0  0  0  0  0  0
    0.8733   -0.3707    0.1446 C   0  0  0  0  0  0  0  0  0  0  0  0
   -0.3924   -0.1312    0.8363 C   0  0  2  0  0  0  0  0  0  0  0  0
   -0.2393    1.1678    1.6030 C   0  0  0  0  0  0  0  0  0  0  0  0
   -0.6889   -1.2442    1.6940 N   0  0  0  0  0  0  0  0  0  0  0  0
   -0.5949   -2.4576    0.9138 C   0  0  0  0  0  0  0  0  0  0  0  0
   -1.3440   -2.4148   -0.3852 C   0  0  0  0  0  0  0  0  0  0  0  0
   -2.2340   -1.2041   -0.5077 C   0  0  0  0  0  0  0  0  0  0  0  0
   -1.5767    0.0607   -0.0836 C   0  0  2  0  0  0  0  0  0  0  0  0
    0.1872    4.3902    0.7291 H   0  0  0  0  0  0  0  0  0  0  0  0
   -1.5310    4.0741    1.1963 H   0  0  0  0  0  0  0  0  0  0  0  0
   -0.2493    3.6718    2.3538 H   0  0  0  0  0  0  0  0  0  0  0  0
   -0.3198    2.9942   -1.2838 H   0  0  0  0  0  0  0  0  0  0  0  0
   -2.0167    1.1179   -1.8796 H   0  0  0  0  0  0  0  0  0  0  0  0
    0.3598    1.0772   -2.7364 H   0  0  0  0  0  0  0  0  0  0  0  0
   -0.4272   -0.5206   -2.6865 H   0  0  0  0  0  0  0  0  0  0  0  0
    2.4117   -0.2742   -2.8198 H   0  0  0  0  0  0  0  0  0  0  0  0
    4.0078   -1.4036    0.8706 H   0  0  0  0  0  0  0  0  0  0  0  0
    1.8852   -0.9890    1.9470 H   0  0  0  0  0  0  0  0  0  0  0  0
    0.7898    1.2566    2.0079 H   0  0  0  0  0  0  0  0  0  0  0  0
   -0.9403    1.2235    2.4558 H   0  0  0  0  0  0  0  0  0  0  0  0
   -0.0639   -1.3412    2.5023 H   0  0  0  0  0  0  0  0  0  0  0  0
   -0.9717   -3.2860    1.5820 H   0  0  0  0  0  0  0  0  0  0  0  0
    0.4516   -2.7510    0.6914 H   0  0  0  0  0  0  0  0  0  0  0  0
   -2.0101   -3.3087   -0.4180 H   0  0  0  0  0  0  0  0  0  0  0  0
   -0.6994   -2.4843   -1.2788 H   0  0  0  0  0  0  0  0  0  0  0  0
   -2.5986   -1.1805   -1.5685 H   0  0  0  0  0  0  0  0  0  0  0  0
   -3.1493   -1.4231    0.1002 H   0  0  0  0  0  0  0  0  0  0  0  0
   -2.3230    0.6514    0.4967 H   0  0  0  0  0  0  0  0  0  0  0  0
  1  2  1  0
  2  3  2  0
  3  4  1  0
  4  5  1  0
  5  6  1  0
  6  7  1  0
  7  8  1  0
  8  9  2  0
  8 10  1  0
 10 11  2  0
 11 12  1  0
 12 13  1  0
 13 14  1  0
 13 15  1  1
 15 16  1  0
 16 17  1  0
 17 18  1  0
 18 19  1  0
 14  2  1  0
 19  4  1  0
 12  6  2  0
 19 13  1  0
  1 20  1  0
  1 21  1  0
  1 22  1  0
  3 23  1  0
  4 24  1  6
  5 25  1  0
  5 26  1  0
  7 27  1  0
 10 28  1  0
 11 29  1  0
 14 30  1  0
 14 31  1  0
 15 32  1  0
 16 33  1  0
 16 34  1  0
 17 35  1  0
 17 36  1  0
 18 37  1  0
 18 38  1  0
 19 39  1  1
M  END
$$$$
