@<TRIPOS>MOLECULE
*****
 39 42 0 0 0
SMALL
GASTEIGER

@<TRIPOS>ATOM
      1 C          -0.4748    3.7040    1.2892 C.3     1  UNL1       -0.0437
      2 C          -0.4481    2.3453    0.6825 C.2     1  UNL1       -0.0742
      3 C          -0.6036    2.1849   -0.6249 C.2     1  UNL1       -0.0812
      4 C          -1.1515    0.9419   -1.2361 C.3     1  UNL1       -0.0125
      5 C          -0.0571    0.2997   -2.0589 C.3     1  UNL1       -0.0055
      6 C           1.0570   -0.1784   -1.2038 C.ar    1  UNL1        0.0246
      7 N           2.2588   -0.4157   -1.7989 N.ar    1  UNL1       -0.3259
      8 C           3.2981   -0.8476   -1.0664 C.ar    1  UNL1        0.2489
      9 O           4.4284   -1.0727   -1.6157 O.2     1  UNL1       -0.2679
     10 C           3.1524   -1.0489    0.2721 C.ar    1  UNL1        0.0031
     11 C           1.9444   -0.8129    0.8841 C.ar    1  UNL1       -0.0500
     12 C           0.8733   -0.3707    0.1446 C.ar    1  UNL1       -0.0074
     13 C          -0.3924   -0.1312    0.8363 C.3     1  UNL1        0.0531
     14 C          -0.2393    1.1678    1.6030 C.3     1  UNL1       -0.0092
     15 N          -0.6889   -1.2442    1.6940 N.3     1  UNL1       -0.3062
     16 C          -0.5949   -2.4576    0.9138 C.3     1  UNL1       -0.0033
     17 C          -1.3440   -2.4148   -0.3852 C.3     1  UNL1       -0.0401
     18 C          -2.2340   -1.2041   -0.5077 C.3     1  UNL1       -0.0465
     19 C          -1.5767    0.0607   -0.0836 C.3     1  UNL1       -0.0116
     20 H           0.1872    4.3902    0.7291 H       1  UNL1        0.0274
     21 H          -1.5310    4.0741    1.1963 H       1  UNL1        0.0274
     22 H          -0.2493    3.6718    2.3538 H       1  UNL1        0.0274
     23 H          -0.3198    2.9942   -1.2838 H       1  UNL1        0.0575
     24 H          -2.0167    1.1179   -1.8796 H       1  UNL1        0.0350
     25 H           0.3598    1.0772   -2.7364 H       1  UNL1        0.0333
     26 H          -0.4272   -0.5206   -2.6865 H       1  UNL1        0.0333
     27 H           2.4117   -0.2742   -2.8198 H       1  UNL1        0.1686
     28 H           4.0078   -1.4036    0.8706 H       1  UNL1        0.0672
     29 H           1.8852   -0.9890    1.9470 H       1  UNL1        0.0623
     30 H           0.7898    1.2566    2.0079 H       1  UNL1        0.0331
     31 H          -0.9403    1.2235    2.4558 H       1  UNL1        0.0331
     32 H          -0.0639   -1.3412    2.5023 H       1  UNL1        0.1228
     33 H          -0.9717   -3.2860    1.5820 H       1  UNL1        0.0424
     34 H           0.4516   -2.7510    0.6914 H       1  UNL1        0.0424
     35 H          -2.0101   -3.3087   -0.4180 H       1  UNL1        0.0278
     36 H          -0.6994   -2.4843   -1.2788 H       1  UNL1        0.0278
     37 H          -2.5986   -1.1805   -1.5685 H       1  UNL1        0.0269
     38 H          -3.1493   -1.4231    0.1002 H       1  UNL1        0.0269
     39 H          -2.3230    0.6514    0.4967 H       1  UNL1        0.0328
@<TRIPOS>BOND
     1     1     2    1
     2     2     3    2
     3     3     4    1
     4     4     5    1
     5     5     6    1
     6     6     7   ar
     7     7     8   ar
     8     8     9    2
     9     8    10   ar
    10    10    11   ar
    11    11    12   ar
    12    12    13    1
    13    13    14    1
    14    13    15    1
    15    15    16    1
    16    16    17    1
    17    17    18    1
    18    18    19    1
    19    14     2    1
    20    19     4    1
    21    12     6   ar
    22    19    13    1
    23     1    20    1
    24     1    21    1
    25     1    22    1
    26     3    23    1
    27     4    24    1
    28     5    25    1
    29     5    26    1
    30     7    27    1
    31    10    28    1
    32    11    29    1
    33    14    30    1
    34    14    31    1
    35    15    32    1
    36    16    33    1
    37    16    34    1
    38    17    35    1
    39    17    36    1
    40    18    37    1
    41    18    38    1
    42    19    39    1
