@<TRIPOS>MOLECULE
*****
 37 38 0 0 0
SMALL
GASTEIGER

@<TRIPOS>ATOM
      1 O          -6.5688   -1.9984    1.1950 O.3     1  UNL1       -0.4771
      2 C          -5.4569   -1.5760    1.8827 C.2     1  UNL1        0.3369
      3 O          -5.8412   -1.1900    3.0116 O.2     1  UNL1       -0.2451
      4 C          -4.0626   -1.5314    1.5015 C.ar    1  UNL1        0.0624
      5 C          -3.2040   -1.0235    2.4350 C.ar    1  UNL1       -0.0458
      6 C          -1.8443   -0.8734    2.3168 C.ar    1  UNL1       -0.0361
      7 C          -1.3413   -1.3059    1.0762 C.ar    1  UNL1        0.0771
      8 N           0.0733   -1.1547    0.8263 N.am    1  UNL1       -0.2660
      9 C           0.1885    0.1111    0.2165 C.2     1  UNL1        0.3105
     10 O          -0.6006    1.0676   -0.1330 O.2     1  UNL1       -0.2521
     11 N           1.5883    0.1860   -0.0028 N.am    1  UNL1       -0.2359
     12 C           2.0316    1.4511   -0.6699 C.2     1  UNL1        0.2529
     13 O           1.1605    2.3175   -0.9706 O.2     1  UNL1       -0.2697
     14 C           3.1774    2.2371   -1.2007 C.ar    1  UNL1        0.0583
     15 C           3.4262    2.3564   -2.5400 C.ar    1  UNL1       -0.0101
     16 C           4.5501    3.0870   -2.9044 C.ar    1  UNL1        0.1592
     17 F           4.8773    3.2617   -4.2099 F       1  UNL1       -0.2025
     18 C           5.3074    3.6238   -1.9015 C.ar    1  UNL1        0.1598
     19 F           6.4255    4.3503   -2.1953 F       1  UNL1       -0.2024
     20 C           5.0628    3.5092   -0.5490 C.ar    1  UNL1       -0.0045
     21 C           3.9429    2.7797   -0.1911 C.ar    1  UNL1        0.0560
     22 CL          3.5896    2.6053    1.5169 Cl      1  UNL1       -0.0827
     23 C          -2.1909   -1.8224    0.1208 C.ar    1  UNL1        0.1519
     24 O          -1.6344   -2.2456   -1.1031 O.3     1  UNL1       -0.4038
     25 C          -1.2313   -3.6041   -1.1788 C.3     1  UNL1        0.5753
     26 F          -2.3961   -4.3405   -0.9666 F       1  UNL1       -0.1328
     27 F          -0.7363   -3.9233   -2.4135 F       1  UNL1       -0.1328
     28 F          -0.2998   -3.8510   -0.1935 F       1  UNL1       -0.1328
     29 C          -3.5316   -1.9475    0.2958 C.ar    1  UNL1       -0.0038
     30 H          -7.3434   -1.3667    0.9800 H       1  UNL1        0.2954
     31 H          -3.5711   -0.6744    3.4210 H       1  UNL1        0.0626
     32 H          -1.2011   -0.4658    3.0801 H       1  UNL1        0.0637
     33 H           0.8976   -1.7996    1.0272 H       1  UNL1        0.1565
     34 H           2.5329    0.2496   -0.1570 H       1  UNL1        0.1594
     35 H           2.7741    1.8978   -3.2777 H       1  UNL1        0.0655
     36 H           5.6843    3.9492    0.2320 H       1  UNL1        0.0662
     37 H          -4.2347   -2.3464   -0.4174 H       1  UNL1        0.0663
@<TRIPOS>BOND
     1     1     2    1
     2     2     3    2
     3     2     4    1
     4     4     5   ar
     5     5     6   ar
     6     6     7   ar
     7     7     8    1
     8     8     9   am
     9     9    10    2
    10     9    11   am
    11    11    12   am
    12    12    13    2
    13    12    14    1
    14    14    15   ar
    15    15    16   ar
    16    16    17    1
    17    16    18   ar
    18    18    19    1
    19    18    20   ar
    20    20    21   ar
    21    21    22    1
    22     7    23   ar
    23    23    24    1
    24    24    25    1
    25    25    26    1
    26    25    27    1
    27    25    28    1
    28    23    29   ar
    29    29     4   ar
    30    21    14   ar
    31     1    30    1
    32     5    31    1
    33     6    32    1
    34     8    33    1
    35    11    34    1
    36    15    35    1
    37    20    36    1
    38    29    37    1
