
     RDKit          3D

 40 41  0  0  0  0  0  0  0  0999 V2000
   -0.8305   -1.3829   -2.2992 C   0  0  0  0  0  0  0  0  0  0  0  0
   -0.1388   -0.0946   -1.9077 C   0  0  0  0  0  0  0  0  0  0  0  0
   -0.4499    0.2228   -0.4691 C   0  0  0  0  0  0  0  0  0  0  0  0
    0.5256    0.2669    0.3827 C   0  0  0  0  0  0  0  0  0  0  0  0
    0.2254    0.5996    1.8288 C   0  0  0  0  0  0  0  0  0  0  0  0
    0.6373   -0.5978    2.6463 C   0  0  0  0  0  0  0  0  0  0  0  0
    1.9203   -0.0514    0.1066 C   0  0  0  0  0  0  0  0  0  0  0  0
    2.3296   -1.2181   -0.4547 C   0  0  0  0  0  0  0  0  0  0  0  0
    3.6552   -1.4445   -0.7022 C   0  0  0  0  0  0  0  0  0  0  0  0
    4.5807   -0.4790   -0.3769 C   0  0  0  0  0  0  0  0  0  0  0  0
    5.9077   -0.7415   -0.6398 O   0  0  0  0  0  0  0  0  0  0  0  0
    4.1886    0.7167    0.1962 C   0  0  0  0  0  0  0  0  0  0  0  0
    2.8564    0.9421    0.4434 C   0  0  0  0  0  0  0  0  0  0  0  0
   -1.8866    0.4065   -0.1126 C   0  0  0  0  0  0  0  0  0  0  0  0
   -2.6274    1.2914   -0.8998 C   0  0  0  0  0  0  0  0  0  0  0  0
   -3.9564    1.5167   -0.6989 C   0  0  0  0  0  0  0  0  0  0  0  0
   -4.5685    0.8354    0.3240 C   0  0  0  0  0  0  0  0  0  0  0  0
   -5.9358    1.0343    0.5704 O   0  0  0  0  0  0  0  0  0  0  0  0
   -3.8738   -0.0333    1.1084 C   0  0  0  0  0  0  0  0  0  0  0  0
   -2.5125   -0.2536    0.8894 C   0  0  0  0  0  0  0  0  0  0  0  0
   -0.2752   -1.8735   -3.1025 H   0  0  0  0  0  0  0  0  0  0  0  0
   -1.8693   -1.1989   -2.6534 H   0  0  0  0  0  0  0  0  0  0  0  0
   -0.9083   -2.0242   -1.4047 H   0  0  0  0  0  0  0  0  0  0  0  0
    0.9273   -0.2141   -2.0468 H   0  0  0  0  0  0  0  0  0  0  0  0
   -0.5561    0.7330   -2.5578 H   0  0  0  0  0  0  0  0  0  0  0  0
   -0.7616    0.9874    2.0001 H   0  0  0  0  0  0  0  0  0  0  0  0
    0.9317    1.4441    2.1389 H   0  0  0  0  0  0  0  0  0  0  0  0
    0.2560   -0.4510    3.6901 H   0  0  0  0  0  0  0  0  0  0  0  0
    1.7637   -0.6189    2.6425 H   0  0  0  0  0  0  0  0  0  0  0  0
    0.2780   -1.5144    2.1734 H   0  0  0  0  0  0  0  0  0  0  0  0
    1.5679   -1.9708   -0.6854 H   0  0  0  0  0  0  0  0  0  0  0  0
    3.9218   -2.3983   -1.1544 H   0  0  0  0  0  0  0  0  0  0  0  0
    6.5378   -0.0307   -0.9229 H   0  0  0  0  0  0  0  0  0  0  0  0
    4.9466    1.4545    0.4397 H   0  0  0  0  0  0  0  0  0  0  0  0
    2.5510    1.8724    0.8899 H   0  0  0  0  0  0  0  0  0  0  0  0
   -2.1168    1.8180   -1.7033 H   0  0  0  0  0  0  0  0  0  0  0  0
   -4.5320    2.1947   -1.3010 H   0  0  0  0  0  0  0  0  0  0  0  0
   -6.4397    1.8178    0.1768 H   0  0  0  0  0  0  0  0  0  0  0  0
   -4.3098   -0.6049    1.9398 H   0  0  0  0  0  0  0  0  0  0  0  0
   -1.9598   -0.9576    1.5058 H   0  0  0  0  0  0  0  0  0  0  0  0
  1  2  1  0
  2  3  1  0
  3  4  2  0
  4  5  1  0
  5  6  1  0
  4  7  1  0
  7  8  2  0
  8  9  1  0
  9 10  2  0
 10 11  1  0
 10 12  1  0
 12 13  2  0
  3 14  1  0
 14 15  2  0
 15 16  1  0
 16 17  2  0
 17 18  1  0
 17 19  1  0
 19 20  2  0
 13  7  1  0
 20 14  1  0
  1 21  1  0
  1 22  1  0
  1 23  1  0
  2 24  1  0
  2 25  1  0
  5 26  1  0
  5 27  1  0
  6 28  1  0
  6 29  1  0
  6 30  1  0
  8 31  1  0
  9 32  1  0
 11 33  1  0
 12 34  1  0
 13 35  1  0
 15 36  1  0
 16 37  1  0
 18 38  1  0
 19 39  1  0
 20 40  1  0
M  END
$$$$
