@<TRIPOS>MOLECULE
*****
 40 41 0 0 0
SMALL
GASTEIGER

@<TRIPOS>ATOM
      1 C          -0.8305   -1.3829   -2.2992 C.3     1  UNL1       -0.0612
      2 C          -0.1388   -0.0946   -1.9077 C.3     1  UNL1       -0.0297
      3 C          -0.4499    0.2228   -0.4691 C.2     1  UNL1       -0.0368
      4 C           0.5256    0.2669    0.3827 C.2     1  UNL1       -0.0368
      5 C           0.2254    0.5996    1.8288 C.3     1  UNL1       -0.0297
      6 C           0.6373   -0.5978    2.6463 C.3     1  UNL1       -0.0612
      7 C           1.9203   -0.0514    0.1066 C.ar    1  UNL1       -0.0214
      8 C           2.3296   -1.2181   -0.4547 C.ar    1  UNL1       -0.0509
      9 C           3.6552   -1.4445   -0.7022 C.ar    1  UNL1       -0.0196
     10 C           4.5807   -0.4790   -0.3769 C.ar    1  UNL1        0.1169
     11 O           5.9077   -0.7415   -0.6398 O.3     1  UNL1       -0.5068
     12 C           4.1886    0.7167    0.1962 C.ar    1  UNL1       -0.0196
     13 C           2.8564    0.9421    0.4434 C.ar    1  UNL1       -0.0509
     14 C          -1.8866    0.4065   -0.1126 C.ar    1  UNL1       -0.0214
     15 C          -2.6274    1.2914   -0.8998 C.ar    1  UNL1       -0.0509
     16 C          -3.9564    1.5167   -0.6989 C.ar    1  UNL1       -0.0196
     17 C          -4.5685    0.8354    0.3240 C.ar    1  UNL1        0.1169
     18 O          -5.9358    1.0343    0.5704 O.3     1  UNL1       -0.5068
     19 C          -3.8738   -0.0333    1.1084 C.ar    1  UNL1       -0.0196
     20 C          -2.5125   -0.2536    0.8894 C.ar    1  UNL1       -0.0509
     21 H          -0.2752   -1.8735   -3.1025 H       1  UNL1        0.0233
     22 H          -1.8693   -1.1989   -2.6534 H       1  UNL1        0.0233
     23 H          -0.9083   -2.0242   -1.4047 H       1  UNL1        0.0233
     24 H           0.9273   -0.2141   -2.0468 H       1  UNL1        0.0311
     25 H          -0.5561    0.7330   -2.5578 H       1  UNL1        0.0311
     26 H          -0.7616    0.9874    2.0001 H       1  UNL1        0.0311
     27 H           0.9317    1.4441    2.1389 H       1  UNL1        0.0311
     28 H           0.2560   -0.4510    3.6901 H       1  UNL1        0.0233
     29 H           1.7637   -0.6189    2.6425 H       1  UNL1        0.0233
     30 H           0.2780   -1.5144    2.1734 H       1  UNL1        0.0233
     31 H           1.5679   -1.9708   -0.6854 H       1  UNL1        0.0625
     32 H           3.9218   -2.3983   -1.1544 H       1  UNL1        0.0654
     33 H           6.5378   -0.0307   -0.9229 H       1  UNL1        0.2921
     34 H           4.9466    1.4545    0.4397 H       1  UNL1        0.0654
     35 H           2.5510    1.8724    0.8899 H       1  UNL1        0.0625
     36 H          -2.1168    1.8180   -1.7033 H       1  UNL1        0.0625
     37 H          -4.5320    2.1947   -1.3010 H       1  UNL1        0.0654
     38 H          -6.4397    1.8178    0.1768 H       1  UNL1        0.2921
     39 H          -4.3098   -0.6049    1.9398 H       1  UNL1        0.0654
     40 H          -1.9598   -0.9576    1.5058 H       1  UNL1        0.0625
@<TRIPOS>BOND
     1     1     2    1
     2     2     3    1
     3     3     4    2
     4     4     5    1
     5     5     6    1
     6     4     7    1
     7     7     8   ar
     8     8     9   ar
     9     9    10   ar
    10    10    11    1
    11    10    12   ar
    12    12    13   ar
    13     3    14    1
    14    14    15   ar
    15    15    16   ar
    16    16    17   ar
    17    17    18    1
    18    17    19   ar
    19    19    20   ar
    20    13     7   ar
    21    20    14   ar
    22     1    21    1
    23     1    22    1
    24     1    23    1
    25     2    24    1
    26     2    25    1
    27     5    26    1
    28     5    27    1
    29     6    28    1
    30     6    29    1
    31     6    30    1
    32     8    31    1
    33     9    32    1
    34    11    33    1
    35    12    34    1
    36    13    35    1
    37    15    36    1
    38    16    37    1
    39    18    38    1
    40    19    39    1
    41    20    40    1
