@<TRIPOS>MOLECULE
*****
 53 55 0 0 0
SMALL
GASTEIGER

@<TRIPOS>ATOM
      1 C           0.6444   -2.0491    2.3876 C.2     0  UNK0       -0.0951
      2 C           1.8061   -1.8604    1.8683 C.2     0  UNK0       -0.0472
      3 C           2.8214   -2.9665    2.1512 C.3     0  UNK0       -0.0396
      4 C           2.2273   -0.7714    1.0028 C.ar    0  UNK0        0.0166
      5 C           3.6080   -0.5716    0.8521 C.ar    0  UNK0        0.0374
      6 N           4.0860    0.4144    0.0974 N.ar    0  UNK0       -0.2542
      7 C           3.3158    1.3042   -0.5859 C.ar    0  UNK0        0.0755
      8 C           3.9431    2.3509   -1.3794 C.ar    0  UNK0        0.0369
      9 C           5.3423    2.4175   -1.3962 C.ar    0  UNK0       -0.0314
     10 C           6.0514    3.3448   -2.0971 C.ar    0  UNK0        0.0418
     11 CL          7.7939    3.3421   -2.0505 Cl      0  UNK0       -0.0835
     12 C           5.3787    4.2721   -2.8322 C.ar    0  UNK0       -0.0406
     13 C           4.0125    4.2575   -2.8549 C.ar    0  UNK0       -0.0244
     14 C           3.3041    3.2943   -2.1262 C.ar    0  UNK0        0.1326
     15 F           1.9634    3.3250   -2.1845 F       0  UNK0       -0.2048
     16 C           1.9668    1.1370   -0.4640 C.ar    0  UNK0       -0.0138
     17 C           1.4386    0.0983    0.3275 C.ar    0  UNK0        0.0423
     18 N           0.0058   -0.0519    0.3621 N.pl3   0  UNK0       -0.3133
     19 C          -0.6042   -1.1775   -0.2590 C.ar    0  UNK0        0.0465
     20 C           0.2273   -2.0961   -0.9393 C.ar    0  UNK0       -0.0217
     21 C          -0.3107   -3.1954   -1.5507 C.ar    0  UNK0        0.0293
     22 N          -1.6293   -3.4060   -1.5072 N.ar    0  UNK0       -0.2624
     23 C          -2.4201   -2.5498   -0.8711 C.ar    0  UNK0        0.0415
     24 C          -1.9445   -1.3986   -0.2190 C.ar    0  UNK0        0.0758
     25 C          -2.8632   -0.5089    0.4661 C.2     0  UNK0        0.2476
     26 O          -2.5253    0.5307    1.1065 O.2     0  UNK0       -0.2701
     27 N          -4.2901   -0.7148    0.4928 N.am    1  ALA1       -0.3065
     28 CA         -5.1892    0.1992    1.1917 C.3     1  ALA1        0.0437
     29 CB         -6.0088   -0.6457    2.1420 C.3     1  ALA1       -0.0445
     30 C          -6.1712    0.8382    0.2218 C.3     1  ALA1        0.0623
     31 O          -7.0114    1.7026    0.9196 O.3     1  ALA1       -0.3932
     32 H           0.4476   -2.9592    2.9781 H       0  UNK0        0.0538
     33 H          -0.1630   -1.3499    2.3274 H       0  UNK0        0.0538
     34 H           3.3631   -3.1356    1.2025 H       0  UNK0        0.0278
     35 H           2.3542   -3.8562    2.5655 H       0  UNK0        0.0278
     36 H           3.5238   -2.5267    2.8852 H       0  UNK0        0.0278
     37 H           4.2725   -1.2586    1.3820 H       0  UNK0        0.0836
     38 H           5.8667    1.6690   -0.8025 H       0  UNK0        0.0639
     39 H           5.9083    5.0314   -3.4075 H       0  UNK0        0.0633
     40 H           3.4626    4.9986   -3.4425 H       0  UNK0        0.0647
     41 H           1.2573    1.7735   -0.9525 H       0  UNK0        0.0658
     42 H          -0.4868    0.6967    0.8495 H       0  UNK0        0.1522
     43 H           1.2751   -1.9065   -0.9640 H       0  UNK0        0.0651
     44 H           0.3101   -3.9116   -2.0773 H       0  UNK0        0.0830
     45 H          -3.4806   -2.7380   -0.8466 H       0  UNK0        0.0838
     46 H          -4.6870   -1.5286    0.0047 H       1  ALA1        0.1494
     47 HA         -4.6532    1.0173    1.6819 H       1  ALA1        0.0518
     48 HB1        -6.2593   -0.0979    3.0736 H       1  ALA1        0.0248
     49 HB2        -6.9226   -0.9943    1.6143 H       1  ALA1        0.0248
     50 HB3        -5.3715   -1.4975    2.4551 H       1  ALA1        0.0248
     51 H1         -6.8222   -0.0057   -0.1437 H       1  ALA1        0.0575
     52 H2         -5.6653    1.3604   -0.5975 H       1  ALA1        0.0575
     53 H          -6.4988    2.3543    1.4675 H       1  ALA1        0.2095
@<TRIPOS>BOND
     1     1     2    2
     2     2     3    1
     3     2     4    1
     4     4     5   ar
     5     5     6   ar
     6     6     7   ar
     7     7     8    1
     8     8     9   ar
     9     9    10   ar
    10    10    11    1
    11    10    12   ar
    12    12    13   ar
    13    13    14   ar
    14    14    15    1
    15     7    16   ar
    16    16    17   ar
    17    17    18    1
    18    18    19    1
    19    19    20   ar
    20    20    21   ar
    21    21    22   ar
    22    22    23   ar
    23    23    24   ar
    24    24    25    1
    25    25    26    2
    26    25    27   am
    27    27    28    1
    28    28    29    1
    29    28    30    1
    30    30    31    1
    31    17     4   ar
    32    24    19   ar
    33    14     8   ar
    34     1    32    1
    35     1    33    1
    36     3    34    1
    37     3    35    1
    38     3    36    1
    39     5    37    1
    40     9    38    1
    41    12    39    1
    42    13    40    1
    43    16    41    1
    44    18    42    1
    45    20    43    1
    46    21    44    1
    47    23    45    1
    48    27    46    1
    49    28    47    1
    50    29    48    1
    51    29    49    1
    52    29    50    1
    53    30    51    1
    54    30    52    1
    55    31    53    1
