
     RDKit          3D

 53 55  0  0  0  0  0  0  0  0999 V2000
    0.6444   -2.0491    2.3876 C   0  0  0  0  0  0  0  0  0  0  0  0
    1.8061   -1.8604    1.8683 C   0  0  0  0  0  0  0  0  0  0  0  0
    2.8214   -2.9665    2.1512 C   0  0  0  0  0  0  0  0  0  0  0  0
    2.2273   -0.7714    1.0028 C   0  0  0  0  0  0  0  0  0  0  0  0
    3.6080   -0.5716    0.8521 C   0  0  0  0  0  0  0  0  0  0  0  0
    4.0860    0.4144    0.0974 N   0  0  0  0  0  0  0  0  0  0  0  0
    3.3158    1.3042   -0.5859 C   0  0  0  0  0  0  0  0  0  0  0  0
    3.9431    2.3509   -1.3794 C   0  0  0  0  0  0  0  0  0  0  0  0
    5.3423    2.4175   -1.3962 C   0  0  0  0  0  0  0  0  0  0  0  0
    6.0514    3.3448   -2.0971 C   0  0  0  0  0  0  0  0  0  0  0  0
    7.7939    3.3421   -2.0505 Cl  0  0  0  0  0  0  0  0  0  0  0  0
    5.3787    4.2721   -2.8322 C   0  0  0  0  0  0  0  0  0  0  0  0
    4.0125    4.2575   -2.8549 C   0  0  0  0  0  0  0  0  0  0  0  0
    3.3041    3.2943   -2.1262 C   0  0  0  0  0  0  0  0  0  0  0  0
    1.9634    3.3250   -2.1845 F   0  0  0  0  0  0  0  0  0  0  0  0
    1.9668    1.1370   -0.4640 C   0  0  0  0  0  0  0  0  0  0  0  0
    1.4386    0.0983    0.3275 C   0  0  0  0  0  0  0  0  0  0  0  0
    0.0058   -0.0519    0.3621 N   0  0  0  0  0  0  0  0  0  0  0  0
   -0.6042   -1.1775   -0.2590 C   0  0  0  0  0  0  0  0  0  0  0  0
    0.2273   -2.0961   -0.9393 C   0  0  0  0  0  0  0  0  0  0  0  0
   -0.3107   -3.1954   -1.5507 C   0  0  0  0  0  0  0  0  0  0  0  0
   -1.6293   -3.4060   -1.5072 N   0  0  0  0  0  0  0  0  0  0  0  0
   -2.4201   -2.5498   -0.8711 C   0  0  0  0  0  0  0  0  0  0  0  0
   -1.9445   -1.3986   -0.2190 C   0  0  0  0  0  0  0  0  0  0  0  0
   -2.8632   -0.5089    0.4661 C   0  0  0  0  0  0  0  0  0  0  0  0
   -2.5253    0.5307    1.1065 O   0  0  0  0  0  0  0  0  0  0  0  0
   -4.2901   -0.7148    0.4928 N   0  0  0  0  0  0  0  0  0  0  0  0
   -5.1892    0.1992    1.1917 C   0  0  2  0  0  0  0  0  0  0  0  0
   -6.0088   -0.6457    2.1420 C   0  0  0  0  0  0  0  0  0  0  0  0
   -6.1712    0.8382    0.2218 C   0  0  0  0  0  0  0  0  0  0  0  0
   -7.0114    1.7026    0.9196 O   0  0  0  0  0  0  0  0  0  0  0  0
    0.4476   -2.9592    2.9781 H   0  0  0  0  0  0  0  0  0  0  0  0
   -0.1630   -1.3499    2.3274 H   0  0  0  0  0  0  0  0  0  0  0  0
    3.3631   -3.1356    1.2025 H   0  0  0  0  0  0  0  0  0  0  0  0
    2.3542   -3.8562    2.5655 H   0  0  0  0  0  0  0  0  0  0  0  0
    3.5238   -2.5267    2.8852 H   0  0  0  0  0  0  0  0  0  0  0  0
    4.2725   -1.2586    1.3820 H   0  0  0  0  0  0  0  0  0  0  0  0
    5.8667    1.6690   -0.8025 H   0  0  0  0  0  0  0  0  0  0  0  0
    5.9083    5.0314   -3.4075 H   0  0  0  0  0  0  0  0  0  0  0  0
    3.4626    4.9986   -3.4425 H   0  0  0  0  0  0  0  0  0  0  0  0
    1.2573    1.7735   -0.9525 H   0  0  0  0  0  0  0  0  0  0  0  0
   -0.4868    0.6967    0.8495 H   0  0  0  0  0  0  0  0  0  0  0  0
    1.2751   -1.9065   -0.9640 H   0  0  0  0  0  0  0  0  0  0  0  0
    0.3101   -3.9116   -2.0773 H   0  0  0  0  0  0  0  0  0  0  0  0
   -3.4806   -2.7380   -0.8466 H   0  0  0  0  0  0  0  0  0  0  0  0
   -4.6870   -1.5286    0.0047 H   0  0  0  0  0  0  0  0  0  0  0  0
   -4.6532    1.0173    1.6819 H   0  0  0  0  0  0  0  0  0  0  0  0
   -6.2593   -0.0979    3.0736 H   0  0  0  0  0  0  0  0  0  0  0  0
   -6.9226   -0.9943    1.6143 H   0  0  0  0  0  0  0  0  0  0  0  0
   -5.3715   -1.4975    2.4551 H   0  0  0  0  0  0  0  0  0  0  0  0
   -6.8222   -0.0057   -0.1437 H   0  0  0  0  0  0  0  0  0  0  0  0
   -5.6653    1.3604   -0.5975 H   0  0  0  0  0  0  0  0  0  0  0  0
   -6.4988    2.3543    1.4675 H   0  0  0  0  0  0  0  0  0  0  0  0
  1  2  2  3
  2  3  1  0
  2  4  1  0
  4  5  2  0
  5  6  1  0
  6  7  2  0
  7  8  1  0
  8  9  2  0
  9 10  1  0
 10 11  1  0
 10 12  2  0
 12 13  1  0
 13 14  2  0
 14 15  1  0
  7 16  1  0
 16 17  2  0
 17 18  1  0
 18 19  1  0
 19 20  2  0
 20 21  1  0
 21 22  2  0
 22 23  1  0
 23 24  2  0
 24 25  1  0
 25 26  2  0
 25 27  1  0
 27 28  1  0
 28 29  1  0
 28 30  1  0
 30 31  1  0
 17  4  1  0
 24 19  1  0
 14  8  1  0
  1 32  1  0
  1 33  1  0
  3 34  1  0
  3 35  1  0
  3 36  1  0
  5 37  1  0
  9 38  1  0
 12 39  1  0
 13 40  1  0
 16 41  1  0
 18 42  1  0
 20 43  1  0
 21 44  1  0
 23 45  1  0
 27 46  1  0
 28 47  1  1
 29 48  1  0
 29 49  1  0
 29 50  1  0
 30 51  1  0
 30 52  1  0
 31 53  1  0
M  END
$$$$
