
     RDKit          3D

 41 43  0  0  0  0  0  0  0  0999 V2000
   -2.0532   -0.2791   -1.2480 C   0  0  1  0  0  0  0  0  0  0  0  0
   -1.9770   -1.8424   -0.3284 S   0  0  0  0  0  0  0  0  0  0  0  0
   -3.5196   -1.9305    0.5673 C   0  0  0  0  0  0  0  0  0  0  0  0
   -4.2234   -0.6414    0.7319 C   0  0  0  0  0  0  0  0  0  0  0  0
   -5.5425   -0.7227    1.4097 C   0  0  0  0  0  0  0  0  0  0  0  0
   -3.8154    0.5410    0.3492 C   0  0  0  0  0  0  0  0  0  0  0  0
   -2.5812    0.6881   -0.2987 N   0  0  0  0  0  0  0  0  0  0  0  0
   -1.3970    1.4656   -0.5055 C   0  0  0  0  0  0  0  0  0  0  0  0
   -0.9584    2.6151   -0.1863 O   0  0  0  0  0  0  0  0  0  0  0  0
   -0.7249    0.4179   -1.3067 C   0  0  1  0  0  0  0  0  0  0  0  0
    0.3265   -0.1988   -0.5221 N   0  0  0  0  0  0  0  0  0  0  0  0
    1.6132   -0.5016   -0.9912 C   0  0  0  0  0  0  0  0  0  0  0  0
    1.7813   -0.1748   -2.2113 O   0  0  0  0  0  0  0  0  0  0  0  0
    2.6471   -1.1330   -0.1402 C   0  0  2  0  0  0  0  0  0  0  0  0
    2.1328   -1.3718    1.1863 N   0  0  0  0  0  0  0  0  0  0  0  0
    3.8972   -0.3415   -0.0870 C   0  0  0  0  0  0  0  0  0  0  0  0
    4.9827   -0.7209   -0.8699 C   0  0  0  0  0  0  0  0  0  0  0  0
    6.2081   -0.0539   -0.9023 C   0  0  0  0  0  0  0  0  0  0  0  0
    6.3171    1.0525   -0.0914 C   0  0  0  0  0  0  0  0  0  0  0  0
    5.2703    1.4791    0.7108 C   0  0  0  0  0  0  0  0  0  0  0  0
    4.0743    0.7674    0.6953 C   0  0  0  0  0  0  0  0  0  0  0  0
   -4.6240    1.7578    0.5819 C   0  0  0  0  0  0  0  0  0  0  0  0
   -4.2263    3.0257    0.1922 O   0  0  0  0  0  0  0  0  0  0  0  0
   -5.7280    1.8851    1.1260 O   0  0  0  0  0  0  0  0  0  0  0  0
   -2.6427   -0.2887   -2.1669 H   0  0  0  0  0  0  0  0  0  0  0  0
   -3.4418   -2.5004    1.5225 H   0  0  0  0  0  0  0  0  0  0  0  0
   -4.2169   -2.5575   -0.0635 H   0  0  0  0  0  0  0  0  0  0  0  0
   -5.8288   -1.7552    1.7011 H   0  0  0  0  0  0  0  0  0  0  0  0
   -6.3328   -0.3243    0.7210 H   0  0  0  0  0  0  0  0  0  0  0  0
   -5.5866   -0.1005    2.3289 H   0  0  0  0  0  0  0  0  0  0  0  0
   -0.4828    0.6624   -2.3486 H   0  0  0  0  0  0  0  0  0  0  0  0
    0.0575   -0.4186    0.4718 H   0  0  0  0  0  0  0  0  0  0  0  0
    2.8929   -2.1524   -0.5598 H   0  0  0  0  0  0  0  0  0  0  0  0
    2.2990   -2.3424    1.5350 H   0  0  0  0  0  0  0  0  0  0  0  0
    2.4688   -0.6883    1.8742 H   0  0  0  0  0  0  0  0  0  0  0  0
    4.8465   -1.6085   -1.4985 H   0  0  0  0  0  0  0  0  0  0  0  0
    6.9596   -0.4570   -1.5535 H   0  0  0  0  0  0  0  0  0  0  0  0
    7.2738    1.5597   -0.1273 H   0  0  0  0  0  0  0  0  0  0  0  0
    5.4114    2.3520    1.3258 H   0  0  0  0  0  0  0  0  0  0  0  0
    3.2685    1.1068    1.3213 H   0  0  0  0  0  0  0  0  0  0  0  0
   -4.8250    3.7299   -0.2142 H   0  0  0  0  0  0  0  0  0  0  0  0
  1  2  1  0
  2  3  1  0
  3  4  1  0
  4  5  1  0
  4  6  2  0
  6  7  1  0
  7  8  1  0
  8  9  2  0
  8 10  1  0
 10 11  1  0
 11 12  1  0
 12 13  2  0
 12 14  1  0
 14 15  1  0
 14 16  1  0
 16 17  2  0
 17 18  1  0
 18 19  2  0
 19 20  1  0
 20 21  2  0
  6 22  1  0
 22 23  1  0
 22 24  2  0
  7  1  1  0
 21 16  1  0
 10  1  1  0
  1 25  1  6
  3 26  1  0
  3 27  1  0
  5 28  1  0
  5 29  1  0
  5 30  1  0
 10 31  1  6
 11 32  1  0
 14 33  1  6
 15 34  1  0
 15 35  1  0
 17 36  1  0
 18 37  1  0
 19 38  1  0
 20 39  1  0
 21 40  1  0
 23 41  1  0
M  END
$$$$
