@<TRIPOS>MOLECULE
*****
 41 43 0 0 0
SMALL
GASTEIGER

@<TRIPOS>ATOM
      1 C          -2.0532   -0.2791   -1.2480 C.3     1  UNL1        0.1042
      2 S          -1.9770   -1.8424   -0.3284 S.3     1  UNL1       -0.1311
      3 C          -3.5196   -1.9305    0.5673 C.3     1  UNL1        0.0186
      4 C          -4.2234   -0.6414    0.7319 C.2     1  UNL1       -0.0344
      5 C          -5.5425   -0.7227    1.4097 C.3     1  UNL1       -0.0407
      6 CA         -3.8154    0.5410    0.3492 C.2     1  UNL1        0.1217
      7 N          -2.5812    0.6881   -0.2987 N.am    1  UNL1       -0.2490
      8 C          -1.3970    1.4656   -0.5055 C.2     1  UNL1        0.2440
      9 O          -0.9584    2.6151   -0.1863 O.2     1  UNL1       -0.2731
     10 CA         -0.7249    0.4179   -1.3067 C.3     1  UNL1        0.1284
     11 N           0.3265   -0.1988   -0.5221 N.am    1  UNL1       -0.3002
     12 C           1.6132   -0.5016   -0.9912 C.2     1  UNL1        0.2350
     13 O           1.7813   -0.1748   -2.2113 O.2     1  UNL1       -0.2737
     14 CA          2.6471   -1.1330   -0.1402 C.3     1  UNL1        0.1079
     15 N           2.1328   -1.3718    1.1863 N.3     1  UNL1       -0.3163
     16 C           3.8972   -0.3415   -0.0870 C.ar    1  UNL1       -0.0219
     17 C           4.9827   -0.7209   -0.8699 C.ar    1  UNL1       -0.0566
     18 C           6.2081   -0.0539   -0.9023 C.ar    1  UNL1       -0.0614
     19 C           6.3171    1.0525   -0.0914 C.ar    1  UNL1       -0.0617
     20 C           5.2703    1.4791    0.7108 C.ar    1  UNL1       -0.0614
     21 C           4.0743    0.7674    0.6953 C.ar    1  UNL1       -0.0566
     22 C          -4.6240    1.7578    0.5819 C.2     1  UNL1        0.3513
     23 O          -4.2263    3.0257    0.1922 O.3     1  UNL1       -0.4763
     24 OXT        -5.7280    1.8851    1.1260 O.2     1  UNL1       -0.2437
     25 H          -2.6427   -0.2887   -2.1669 H       1  UNL1        0.0644
     26 H          -3.4418   -2.5004    1.5225 H       1  UNL1        0.0423
     27 H          -4.2169   -2.5575   -0.0635 H       1  UNL1        0.0423
     28 H          -5.8288   -1.7552    1.7011 H       1  UNL1        0.0275
     29 H          -6.3328   -0.3243    0.7210 H       1  UNL1        0.0275
     30 H          -5.5866   -0.1005    2.3289 H       1  UNL1        0.0275
     31 HA         -0.4828    0.6624   -2.3486 H       1  UNL1        0.0622
     32 H           0.0575   -0.4186    0.4718 H       1  UNL1        0.1496
     33 HA          2.8929   -2.1524   -0.5598 H       1  UNL1        0.0605
     34 H1          2.2990   -2.3424    1.5350 H       1  UNL1        0.1192
     35 H2          2.4688   -0.6883    1.8742 H       1  UNL1        0.1192
     36 H           4.8465   -1.6085   -1.4985 H       1  UNL1        0.0621
     37 H           6.9596   -0.4570   -1.5535 H       1  UNL1        0.0618
     38 H           7.2738    1.5597   -0.1273 H       1  UNL1        0.0618
     39 H           5.4114    2.3520    1.3258 H       1  UNL1        0.0618
     40 H           3.2685    1.1068    1.3213 H       1  UNL1        0.0621
     41 H          -4.8250    3.7299   -0.2142 H       1  UNL1        0.2954
@<TRIPOS>BOND
     1     1     2    1
     2     2     3    1
     3     3     4    1
     4     4     5    1
     5     4     6    2
     6     6     7    1
     7     7     8   am
     8     8     9    2
     9     8    10    1
    10    10    11    1
    11    11    12   am
    12    12    13    2
    13    12    14    1
    14    14    15    1
    15    14    16    1
    16    16    17   ar
    17    17    18   ar
    18    18    19   ar
    19    19    20   ar
    20    20    21   ar
    21     6    22    1
    22    22    23    1
    23    22    24    2
    24     7     1    1
    25    21    16   ar
    26    10     1    1
    27     1    25    1
    28     3    26    1
    29     3    27    1
    30     5    28    1
    31     5    29    1
    32     5    30    1
    33    10    31    1
    34    11    32    1
    35    14    33    1
    36    15    34    1
    37    15    35    1
    38    17    36    1
    39    18    37    1
    40    19    38    1
    41    20    39    1
    42    21    40    1
    43    23    41    1
