@<TRIPOS>MOLECULE
*****
 28 31 0 0 0
SMALL
GASTEIGER

@<TRIPOS>ATOM
      1 O           0.4647    1.2804   -3.4318 O.2     1  UNL1       -0.2445
      2 C           0.5166    0.8216   -2.2608 C.ar    1  UNL1        0.3454
      3 O           1.6766    0.5734   -1.6634 O.2     1  UNL1       -0.4178
      4 C           1.7733    0.0974   -0.4498 C.ar    1  UNL1        0.1854
      5 C           3.0020   -0.1562    0.1593 C.ar    1  UNL1        0.2022
      6 O           4.1785    0.0984   -0.5288 O.3     1  UNL1       -0.5009
      7 C           3.0985   -0.6579    1.4383 C.ar    1  UNL1        0.1628
      8 O           4.3140   -0.9122    2.0498 O.3     1  UNL1       -0.5032
      9 C           1.9038   -0.9062    2.1109 C.ar    1  UNL1       -0.0017
     10 C           0.6725   -0.6655    1.5347 C.ar    1  UNL1        0.0744
     11 C          -0.5267   -0.9011    2.1748 C.ar    1  UNL1        0.3454
     12 O          -0.4897   -1.3608    3.3484 O.2     1  UNL1       -0.2445
     13 O          -1.6728   -0.6467    1.5609 O.2     1  UNL1       -0.4178
     14 C          -1.7700   -0.1748    0.3579 C.ar    1  UNL1        0.1854
     15 C          -2.9697    0.0905   -0.2821 C.ar    1  UNL1        0.2022
     16 O          -4.1251   -0.1772    0.4389 O.3     1  UNL1       -0.5009
     17 C          -3.0537    0.5929   -1.5634 C.ar    1  UNL1        0.1628
     18 O          -4.3036    0.8248   -2.1164 O.3     1  UNL1       -0.5032
     19 C          -1.8769    0.8563   -2.2738 C.ar    1  UNL1       -0.0017
     20 C          -0.6869    0.5907   -1.6327 C.ar    1  UNL1        0.0744
     21 C          -0.6090    0.0856   -0.3444 C.ar    1  UNL1        0.0468
     22 C           0.6115   -0.1619    0.2497 C.ar    1  UNL1        0.0468
     23 H           4.4523    1.0419   -0.7650 H       1  UNL1        0.2924
     24 H           4.6331   -0.3867    2.8589 H       1  UNL1        0.2923
     25 H           1.9527   -1.3003    3.1166 H       1  UNL1        0.0664
     26 H          -4.2508   -1.1492    0.7375 H       1  UNL1        0.2924
     27 H          -4.9768    1.3553   -1.5526 H       1  UNL1        0.2923
     28 H          -1.9384    1.2474   -3.2714 H       1  UNL1        0.0664
@<TRIPOS>BOND
     1     1     2    2
     2     2     3   ar
     3     3     4   ar
     4     4     5   ar
     5     5     6    1
     6     5     7   ar
     7     7     8    1
     8     7     9   ar
     9     9    10   ar
    10    10    11   ar
    11    11    12    2
    12    11    13   ar
    13    13    14   ar
    14    14    15   ar
    15    15    16    1
    16    15    17   ar
    17    17    18    1
    18    17    19   ar
    19    19    20   ar
    20    20    21   ar
    21    21    22   ar
    22    20     2   ar
    23    22     4   ar
    24    22    10   ar
    25    21    14   ar
    26     6    23    1
    27     8    24    1
    28     9    25    1
    29    16    26    1
    30    18    27    1
    31    19    28    1
