
     RDKit          3D

 28 31  0  0  0  0  0  0  0  0999 V2000
    0.4647    1.2804   -3.4318 O   0  0  0  0  0  0  0  0  0  0  0  0
    0.5166    0.8216   -2.2608 C   0  0  0  0  0  0  0  0  0  0  0  0
    1.6766    0.5734   -1.6634 O   0  0  0  0  0  0  0  0  0  0  0  0
    1.7733    0.0974   -0.4498 C   0  0  0  0  0  0  0  0  0  0  0  0
    3.0020   -0.1562    0.1593 C   0  0  0  0  0  0  0  0  0  0  0  0
    4.1785    0.0984   -0.5288 O   0  0  0  0  0  0  0  0  0  0  0  0
    3.0985   -0.6579    1.4383 C   0  0  0  0  0  0  0  0  0  0  0  0
    4.3140   -0.9122    2.0498 O   0  0  0  0  0  0  0  0  0  0  0  0
    1.9038   -0.9062    2.1109 C   0  0  0  0  0  0  0  0  0  0  0  0
    0.6725   -0.6655    1.5347 C   0  0  0  0  0  0  0  0  0  0  0  0
   -0.5267   -0.9011    2.1748 C   0  0  0  0  0  0  0  0  0  0  0  0
   -0.4897   -1.3608    3.3484 O   0  0  0  0  0  0  0  0  0  0  0  0
   -1.6728   -0.6467    1.5609 O   0  0  0  0  0  0  0  0  0  0  0  0
   -1.7700   -0.1748    0.3579 C   0  0  0  0  0  0  0  0  0  0  0  0
   -2.9697    0.0905   -0.2821 C   0  0  0  0  0  0  0  0  0  0  0  0
   -4.1251   -0.1772    0.4389 O   0  0  0  0  0  0  0  0  0  0  0  0
   -3.0537    0.5929   -1.5634 C   0  0  0  0  0  0  0  0  0  0  0  0
   -4.3036    0.8248   -2.1164 O   0  0  0  0  0  0  0  0  0  0  0  0
   -1.8769    0.8563   -2.2738 C   0  0  0  0  0  0  0  0  0  0  0  0
   -0.6869    0.5907   -1.6327 C   0  0  0  0  0  0  0  0  0  0  0  0
   -0.6090    0.0856   -0.3444 C   0  0  0  0  0  0  0  0  0  0  0  0
    0.6115   -0.1619    0.2497 C   0  0  0  0  0  0  0  0  0  0  0  0
    4.4523    1.0419   -0.7650 H   0  0  0  0  0  0  0  0  0  0  0  0
    4.6331   -0.3867    2.8589 H   0  0  0  0  0  0  0  0  0  0  0  0
    1.9527   -1.3003    3.1166 H   0  0  0  0  0  0  0  0  0  0  0  0
   -4.2508   -1.1492    0.7375 H   0  0  0  0  0  0  0  0  0  0  0  0
   -4.9768    1.3553   -1.5526 H   0  0  0  0  0  0  0  0  0  0  0  0
   -1.9384    1.2474   -3.2714 H   0  0  0  0  0  0  0  0  0  0  0  0
  1  2  2  0
  2  3  1  0
  3  4  1  0
  4  5  2  0
  5  6  1  0
  5  7  1  0
  7  8  1  0
  7  9  2  0
  9 10  1  0
 10 11  1  0
 11 12  2  0
 11 13  1  0
 13 14  1  0
 14 15  1  0
 15 16  1  0
 15 17  2  0
 17 18  1  0
 17 19  1  0
 19 20  2  0
 20 21  1  0
 21 22  1  0
 20  2  1  0
 22  4  1  0
 22 10  2  0
 21 14  2  0
  6 23  1  0
  8 24  1  0
  9 25  1  0
 16 26  1  0
 18 27  1  0
 19 28  1  0
M  END
$$$$
