@<TRIPOS>MOLECULE
*****
 60 64 0 0 0
SMALL
GASTEIGER

@<TRIPOS>ATOM
      1 N         -10.1782    2.2541   -0.5055 N.am    1  UNL1       -0.3228
      2 C          -9.2818    1.7169    0.4859 C.2     1  UNL1        0.2769
      3 O          -9.6381    1.5528    1.6806 O.2     1  UNL1       -0.2671
      4 C          -7.9221    1.3448    0.1262 C.ar    1  UNL1        0.1903
      5 C          -7.0059    0.8234    1.0087 C.ar    1  UNL1       -0.0034
      6 C          -5.8496    0.6071    0.2877 C.ar    1  UNL1        0.0227
      7 C          -4.5971    0.1117    0.5904 C.ar    1  UNL1       -0.0299
      8 C          -3.5661   -0.0222   -0.2986 C.ar    1  UNL1        0.0305
      9 C          -3.8770    0.3902   -1.5754 C.ar    1  UNL1       -0.0372
     10 C          -5.1030    0.8950   -1.9539 C.ar    1  UNL1       -0.0170
     11 C          -6.1065    1.0045   -1.0028 C.ar    1  UNL1        0.1360
     12 O          -7.3419    1.4332   -1.0534 O.2     1  UNL1       -0.4502
     13 N          -2.2905   -0.5411    0.0463 N.pl3   1  UNL1       -0.3274
     14 C          -1.9773   -1.0314    1.3721 C.3     1  UNL1        0.0250
     15 C          -0.9730   -2.1214    1.1749 C.3     1  UNL1        0.0147
     16 N           0.2988   -1.5253    0.7358 N.3     1  UNL1       -0.2994
     17 C           0.6891   -0.4808    1.6054 C.3     1  UNL1       -0.0010
     18 C           2.1217   -0.2470    1.8300 C.3     1  UNL1       -0.0399
     19 C           3.0739   -0.0011    0.7683 C.3     1  UNL1       -0.0478
     20 C           3.4608   -1.0693   -0.1912 C.3     1  UNL1       -0.0257
     21 C           4.4712   -0.4235   -1.1286 C.ar    1  UNL1       -0.0223
     22 C           4.3695    0.0376   -2.4142 C.ar    1  UNL1        0.0059
     23 N           5.5635    0.5254   -2.7957 N.ar    1  UNL1       -0.3604
     24 C           6.4851    0.4187   -1.8228 C.ar    1  UNL1        0.0468
     25 C           5.8041   -0.1741   -0.7806 C.ar    1  UNL1        0.0040
     26 C           6.5149   -0.4174    0.3887 C.ar    1  UNL1       -0.0349
     27 C           7.8427   -0.1064    0.5684 C.ar    1  UNL1        0.0525
     28 C           8.4883    0.4801   -0.4840 C.ar    1  UNL1       -0.0424
     29 C           7.8181    0.7435   -1.6753 C.ar    1  UNL1       -0.0366
     30 C           8.5167   -0.3857    1.8039 C.1     1  UNL1        0.0992
     31 N           9.0489   -0.5891    2.7920 N.1     1  UNL1       -0.1909
     32 C           0.0608   -1.0123   -0.6316 C.3     1  UNL1        0.0147
     33 C          -1.2957   -0.5741   -0.9559 C.3     1  UNL1        0.0250
     34 H         -10.6114    1.7519   -1.2957 H       1  UNL1        0.1453
     35 H         -10.2406    3.2590   -0.1793 H       1  UNL1        0.1453
     36 H          -7.1368    0.6153    2.0570 H       1  UNL1        0.0663
     37 H          -4.4821   -0.1748    1.6258 H       1  UNL1        0.0643
     38 H          -3.1406    0.3336   -2.3709 H       1  UNL1        0.0637
     39 H          -5.2940    1.2049   -2.9722 H       1  UNL1        0.0655
     40 H          -2.9141   -1.4279    1.8595 H       1  UNL1        0.0476
     41 H          -1.5940   -0.1725    1.9342 H       1  UNL1        0.0476
     42 H          -1.3201   -2.8631    0.4552 H       1  UNL1        0.0442
     43 H          -0.7455   -2.5992    2.1472 H       1  UNL1        0.0442
     44 H           0.1801   -0.6561    2.6282 H       1  UNL1        0.0427
     45 H           0.1564    0.4604    1.2670 H       1  UNL1        0.0427
     46 H           2.5635   -1.1198    2.4638 H       1  UNL1        0.0278
     47 H           2.1847    0.6255    2.6046 H       1  UNL1        0.0278
     48 H           4.0327    0.4141    1.2562 H       1  UNL1        0.0269
     49 H           2.7228    0.8715    0.1181 H       1  UNL1        0.0269
     50 H           2.6636   -1.4982   -0.7432 H       1  UNL1        0.0314
     51 H           4.0820   -1.8698    0.3128 H       1  UNL1        0.0314
     52 H           3.4403   -0.0201   -2.9630 H       1  UNL1        0.0810
     53 H           5.7543    0.9452   -3.7529 H       1  UNL1        0.1653
     54 H           6.0357   -0.8889    1.2585 H       1  UNL1        0.0637
     55 H           9.5457    0.7289   -0.3444 H       1  UNL1        0.0631
     56 H           8.3476    1.2091   -2.4981 H       1  UNL1        0.0639
     57 H           0.7478   -0.1492   -0.7380 H       1  UNL1        0.0442
     58 H           0.4207   -1.7988   -1.3284 H       1  UNL1        0.0442
     59 H          -1.3221    0.4462   -1.4583 H       1  UNL1        0.0476
     60 H          -1.7010   -1.2441   -1.7767 H       1  UNL1        0.0476
@<TRIPOS>BOND
     1     1     2   am
     2     2     3    2
     3     2     4    1
     4     4     5   ar
     5     5     6   ar
     6     6     7   ar
     7     7     8   ar
     8     8     9   ar
     9     9    10   ar
    10    10    11   ar
    11    11    12   ar
    12     8    13    1
    13    13    14    1
    14    14    15    1
    15    15    16    1
    16    16    17    1
    17    17    18    1
    18    18    19    1
    19    19    20    1
    20    20    21    1
    21    21    22   ar
    22    22    23   ar
    23    23    24   ar
    24    24    25   ar
    25    25    26   ar
    26    26    27   ar
    27    27    28   ar
    28    28    29   ar
    29    27    30    1
    30    30    31    3
    31    16    32    1
    32    32    33    1
    33    12     4   ar
    34    33    13    1
    35    11     6   ar
    36    25    21   ar
    37    29    24   ar
    38     1    34    1
    39     1    35    1
    40     5    36    1
    41     7    37    1
    42     9    38    1
    43    10    39    1
    44    14    40    1
    45    14    41    1
    46    15    42    1
    47    15    43    1
    48    17    44    1
    49    17    45    1
    50    18    46    1
    51    18    47    1
    52    19    48    1
    53    19    49    1
    54    20    50    1
    55    20    51    1
    56    22    52    1
    57    23    53    1
    58    26    54    1
    59    28    55    1
    60    29    56    1
    61    32    57    1
    62    32    58    1
    63    33    59    1
    64    33    60    1
