@<TRIPOS>MOLECULE
*****
 55 59 0 0 0
SMALL
GASTEIGER

@<TRIPOS>ATOM
      1 C          -3.1842   -3.3478    2.9287 C.3     1  UNL1       -0.0374
      2 C          -2.9967   -2.4711    1.7525 C.ar    1  UNL1       -0.0164
      3 C          -1.7870   -1.8546    1.5404 C.ar    1  UNL1       -0.0161
      4 C          -1.5597   -1.0226    0.4524 C.ar    1  UNL1        0.1313
      5 N          -0.2889   -0.4044    0.2726 N.am    1  UNL1       -0.2388
      6 C           0.8040   -0.9506   -0.4510 C.2     1  UNL1        0.2553
      7 O           0.8347   -2.0573   -1.0475 O.2     1  UNL1       -0.2695
      8 C           1.9418   -0.0164   -0.4110 C.ar    1  UNL1        0.0722
      9 C           3.2468    0.2079   -0.8123 C.ar    1  UNL1        0.0668
     10 C           4.0633   -0.6932   -1.6132 C.2     1  UNL1        0.2483
     11 O           4.0189   -0.5620   -2.8610 O.2     1  UNL1       -0.2699
     12 N           4.8837   -1.6872   -1.0220 N.am    1  UNL1       -0.3036
     13 C           5.6779   -2.5601   -1.8542 C.3     1  UNL1        0.0031
     14 C           4.9519   -1.8577    0.4105 C.3     1  UNL1        0.0031
     15 C           3.5907    1.4464   -0.2954 C.ar    1  UNL1        0.0175
     16 N           2.5277    1.9139    0.3747 N.ar    1  UNL1       -0.3503
     17 C           2.5199    3.1912    1.0521 C.3     1  UNL1        0.0117
     18 C           1.5125    1.0534    0.3247 C.ar    1  UNL1        0.0570
     19 C           0.1196    0.8663    0.7807 C.3     1  UNL1        0.0986
     20 C          -0.6798    1.9959    0.2719 C.ar    1  UNL1       -0.0207
     21 C          -1.1198    2.9710    1.1431 C.ar    1  UNL1       -0.0550
     22 C          -1.8722    4.0581    0.7428 C.ar    1  UNL1       -0.0431
     23 C          -2.2139    4.2007   -0.5829 C.ar    1  UNL1        0.0410
     24 CL         -3.1711    5.5741   -1.1240 Cl      1  UNL1       -0.0835
     25 C          -1.7804    3.2302   -1.4733 C.ar    1  UNL1       -0.0431
     26 C          -1.0272    2.1474   -1.0543 C.ar    1  UNL1       -0.0550
     27 N          -2.5891   -0.8451   -0.3949 N.ar    1  UNL1       -0.2108
     28 C          -3.7989   -1.4162   -0.2493 C.ar    1  UNL1        0.1803
     29 C          -4.0002   -2.2389    0.8399 C.ar    1  UNL1        0.1345
     30 N          -5.2829   -2.6653    0.7321 N.ar    1  UNL1       -0.1276
     31 N          -5.8082   -2.1280   -0.3541 N.ar    1  UNL1       -0.0635
     32 N          -4.9331   -1.3593   -0.9799 N.ar    1  UNL1       -0.2297
     33 C          -5.1417   -0.6016   -2.2081 C.3     1  UNL1        0.0341
     34 H          -2.7982   -4.3781    2.7503 H       1  UNL1        0.0278
     35 H          -4.2497   -3.4587    3.2131 H       1  UNL1        0.0278
     36 H          -2.6387   -2.9488    3.8150 H       1  UNL1        0.0278
     37 H          -0.9363   -1.9887    2.2222 H       1  UNL1        0.0655
     38 H           5.9764   -3.4739   -1.3268 H       1  UNL1        0.0428
     39 H           6.5609   -1.9679   -2.2090 H       1  UNL1        0.0428
     40 H           5.0777   -2.7717   -2.7759 H       1  UNL1        0.0428
     41 H           4.0076   -1.5416    0.8969 H       1  UNL1        0.0428
     42 H           5.0817   -2.9342    0.6516 H       1  UNL1        0.0428
     43 H           5.7791   -1.2997    0.8801 H       1  UNL1        0.0428
     44 H           4.5678    1.8853   -0.4529 H       1  UNL1        0.0817
     45 H           1.8409    3.1439    1.9374 H       1  UNL1        0.0456
     46 H           2.2166    4.0015    0.3686 H       1  UNL1        0.0456
     47 H           3.5156    3.4634    1.4533 H       1  UNL1        0.0456
     48 H           0.0676    0.8404    1.8797 H       1  UNL1        0.0620
     49 H          -0.8888    2.9280    2.2134 H       1  UNL1        0.0621
     50 H          -2.2170    4.8205    1.4196 H       1  UNL1        0.0632
     51 H          -2.0656    3.3710   -2.5086 H       1  UNL1        0.0632
     52 H          -0.6991    1.4022   -1.7630 H       1  UNL1        0.0621
     53 H          -5.6270   -1.2703   -2.9312 H       1  UNL1        0.0474
     54 H          -4.1883   -0.1791   -2.5374 H       1  UNL1        0.0474
     55 H          -5.8417    0.2397   -2.0274 H       1  UNL1        0.0474
@<TRIPOS>BOND
     1     1     2    1
     2     2     3   ar
     3     3     4   ar
     4     4     5    1
     5     5     6   am
     6     6     7    2
     7     6     8    1
     8     8     9   ar
     9     9    10    1
    10    10    11    2
    11    10    12   am
    12    12    13    1
    13    12    14    1
    14     9    15   ar
    15    15    16   ar
    16    16    17    1
    17    16    18   ar
    18    18    19    1
    19    19    20    1
    20    20    21   ar
    21    21    22   ar
    22    22    23   ar
    23    23    24    1
    24    23    25   ar
    25    25    26   ar
    26     4    27   ar
    27    27    28   ar
    28    28    29   ar
    29    29    30   ar
    30    30    31   ar
    31    31    32   ar
    32    32    33    1
    33    29     2   ar
    34    19     5    1
    35    26    20   ar
    36    32    28   ar
    37    18     8   ar
    38     1    34    1
    39     1    35    1
    40     1    36    1
    41     3    37    1
    42    13    38    1
    43    13    39    1
    44    13    40    1
    45    14    41    1
    46    14    42    1
    47    14    43    1
    48    15    44    1
    49    17    45    1
    50    17    46    1
    51    17    47    1
    52    19    48    1
    53    21    49    1
    54    22    50    1
    55    25    51    1
    56    26    52    1
    57    33    53    1
    58    33    54    1
    59    33    55    1
