@<TRIPOS>MOLECULE
*****
 57 60 0 0 0
SMALL
GASTEIGER

@<TRIPOS>ATOM
      1 C           0.5740   -0.9029   -0.2663 C.3     1  UNL1       -0.0262
      2 C           1.3562   -2.0923    0.0988 C.3     1  UNL1       -0.0436
      3 C           2.7958   -1.5875    0.0533 C.3     1  UNL1       -0.0071
      4 C           3.5377   -1.9172    1.3050 C.3     1  UNL1       -0.0594
      5 C           2.7227   -0.1101   -0.2568 C.3     1  UNL1        0.1340
      6 O           2.6670    0.1258   -1.6271 O.3     1  UNL1       -0.3802
      7 C           3.8196    0.6846    0.3096 C.2     1  UNL1        0.1904
      8 O           4.5503    1.1041    1.2200 O.2     1  UNL1       -0.2919
      9 C           4.6745    1.5744   -0.5617 C.3     1  UNL1        0.1052
     10 O           5.6403    2.2183    0.2096 O.3     1  UNL1       -0.3874
     11 C           1.3743    0.2474    0.3142 C.3     1  UNL1        0.0096
     12 C           1.3759    0.2619    1.8056 C.3     1  UNL1       -0.0562
     13 C           0.7936    1.4849   -0.3257 C.3     1  UNL1       -0.0151
     14 C          -0.6801    1.6120   -0.1428 C.3     1  UNL1        0.0910
     15 O          -0.9524    2.1760    1.0768 O.3     1  UNL1       -0.3886
     16 C          -1.4425    0.3685   -0.4714 C.3     1  UNL1        0.1528
     17 F          -1.2005    0.0760   -1.8009 F       1  UNL1       -0.2377
     18 C          -0.8033   -0.7794    0.3232 C.3     1  UNL1        0.0029
     19 C          -1.5959   -2.0365    0.2494 C.3     1  UNL1       -0.0117
     20 C          -2.9940   -1.7130    0.7298 C.3     1  UNL1        0.1237
     21 F          -3.6847   -2.9023    0.8609 F       1  UNL1       -0.2407
     22 C          -3.6103   -0.8254   -0.2821 C.2     1  UNL1       -0.0198
     23 C          -4.6135   -1.2113   -1.0556 C.2     1  UNL1       -0.0121
     24 C          -5.1014   -0.2126   -2.0007 C.2     1  UNL1        0.1788
     25 O          -6.0358   -0.5087   -2.7514 O.2     1  UNL1       -0.2879
     26 C          -4.5168    1.1218   -2.0820 C.2     1  UNL1       -0.0179
     27 C          -3.5214    1.3564   -1.2418 C.2     1  UNL1       -0.0674
     28 C          -2.9056    0.4701   -0.2249 C.3     1  UNL1        0.0469
     29 C          -3.2378    1.0626    1.1308 C.3     1  UNL1       -0.0492
     30 H           0.5264   -0.7798   -1.3598 H       1  UNL1        0.0311
     31 H           1.1165   -2.5619    1.0646 H       1  UNL1        0.0272
     32 H           1.2104   -2.8720   -0.6818 H       1  UNL1        0.0272
     33 H           3.3138   -2.0598   -0.8157 H       1  UNL1        0.0330
     34 H           2.8436   -2.5124    1.9612 H       1  UNL1        0.0233
     35 H           4.3764   -2.6382    1.0927 H       1  UNL1        0.0233
     36 H           3.9955   -1.0822    1.8323 H       1  UNL1        0.0233
     37 H           3.5266   -0.0356   -2.0728 H       1  UNL1        0.2108
     38 H           5.2144    0.9724   -1.3160 H       1  UNL1        0.0637
     39 H           4.0806    2.3315   -1.0726 H       1  UNL1        0.0637
     40 H           5.8321    3.0888   -0.1986 H       1  UNL1        0.2100
     41 H           2.3529    0.6185    2.2434 H       1  UNL1        0.0236
     42 H           0.6101    0.9043    2.2611 H       1  UNL1        0.0236
     43 H           1.2166   -0.7477    2.2558 H       1  UNL1        0.0236
     44 H           1.2776    2.3609    0.1716 H       1  UNL1        0.0297
     45 H           1.0850    1.5078   -1.3858 H       1  UNL1        0.0297
     46 H          -1.0029    2.3775   -0.9119 H       1  UNL1        0.0626
     47 H          -0.9543    3.1825    1.0578 H       1  UNL1        0.2099
     48 H          -0.8005   -0.4247    1.3769 H       1  UNL1        0.0336
     49 H          -1.1020   -2.7813    0.8812 H       1  UNL1        0.0300
     50 H          -1.7025   -2.3690   -0.8098 H       1  UNL1        0.0300
     51 H          -2.9761   -1.2369    1.7268 H       1  UNL1        0.0699
     52 H          -5.0171   -2.2063   -0.9642 H       1  UNL1        0.0656
     53 H          -4.8349    1.8950   -2.7579 H       1  UNL1        0.0653
     54 H          -3.0339    2.3299   -1.2442 H       1  UNL1        0.0583
     55 H          -4.2454    0.7008    1.4657 H       1  UNL1        0.0242
     56 H          -2.5528    0.7293    1.9353 H       1  UNL1        0.0242
     57 H          -3.3423    2.1634    1.0896 H       1  UNL1        0.0242
@<TRIPOS>BOND
     1     1     2    1
     2     2     3    1
     3     3     4    1
     4     3     5    1
     5     5     6    1
     6     5     7    1
     7     7     8    2
     8     7     9    1
     9     9    10    1
    10     5    11    1
    11    11    12    1
    12    11    13    1
    13    13    14    1
    14    14    15    1
    15    14    16    1
    16    16    17    1
    17    16    18    1
    18    18    19    1
    19    19    20    1
    20    20    21    1
    21    20    22    1
    22    22    23    2
    23    23    24    1
    24    24    25    2
    25    24    26    1
    26    26    27    2
    27    27    28    1
    28    28    29    1
    29    11     1    1
    30    28    16    1
    31    18     1    1
    32    28    22    1
    33     1    30    1
    34     2    31    1
    35     2    32    1
    36     3    33    1
    37     4    34    1
    38     4    35    1
    39     4    36    1
    40     6    37    1
    41     9    38    1
    42     9    39    1
    43    10    40    1
    44    12    41    1
    45    12    42    1
    46    12    43    1
    47    13    44    1
    48    13    45    1
    49    14    46    1
    50    15    47    1
    51    18    48    1
    52    19    49    1
    53    19    50    1
    54    20    51    1
    55    23    52    1
    56    26    53    1
    57    27    54    1
    58    29    55    1
    59    29    56    1
    60    29    57    1
