
     RDKit          3D

 57 60  0  0  0  0  0  0  0  0999 V2000
    0.5740   -0.9029   -0.2663 C   0  0  2  0  0  0  0  0  0  0  0  0
    1.3562   -2.0923    0.0988 C   0  0  0  0  0  0  0  0  0  0  0  0
    2.7958   -1.5875    0.0533 C   0  0  2  0  0  0  0  0  0  0  0  0
    3.5377   -1.9172    1.3050 C   0  0  0  0  0  0  0  0  0  0  0  0
    2.7227   -0.1101   -0.2568 C   0  0  2  0  0  0  0  0  0  0  0  0
    2.6670    0.1258   -1.6271 O   0  0  0  0  0  0  0  0  0  0  0  0
    3.8196    0.6846    0.3096 C   0  0  0  0  0  0  0  0  0  0  0  0
    4.5503    1.1041    1.2200 O   0  0  0  0  0  0  0  0  0  0  0  0
    4.6745    1.5744   -0.5617 C   0  0  0  0  0  0  0  0  0  0  0  0
    5.6403    2.2183    0.2096 O   0  0  0  0  0  0  0  0  0  0  0  0
    1.3743    0.2474    0.3142 C   0  0  2  0  0  0  0  0  0  0  0  0
    1.3759    0.2619    1.8056 C   0  0  0  0  0  0  0  0  0  0  0  0
    0.7936    1.4849   -0.3257 C   0  0  0  0  0  0  0  0  0  0  0  0
   -0.6801    1.6120   -0.1428 C   0  0  2  0  0  0  0  0  0  0  0  0
   -0.9524    2.1760    1.0768 O   0  0  0  0  0  0  0  0  0  0  0  0
   -1.4425    0.3685   -0.4714 C   0  0  1  0  0  0  0  0  0  0  0  0
   -1.2005    0.0760   -1.8009 F   0  0  0  0  0  0  0  0  0  0  0  0
   -0.8033   -0.7794    0.3232 C   0  0  1  0  0  0  0  0  0  0  0  0
   -1.5959   -2.0365    0.2494 C   0  0  0  0  0  0  0  0  0  0  0  0
   -2.9940   -1.7130    0.7298 C   0  0  2  0  0  0  0  0  0  0  0  0
   -3.6847   -2.9023    0.8609 F   0  0  0  0  0  0  0  0  0  0  0  0
   -3.6103   -0.8254   -0.2821 C   0  0  0  0  0  0  0  0  0  0  0  0
   -4.6135   -1.2113   -1.0556 C   0  0  0  0  0  0  0  0  0  0  0  0
   -5.1014   -0.2126   -2.0007 C   0  0  0  0  0  0  0  0  0  0  0  0
   -6.0358   -0.5087   -2.7514 O   0  0  0  0  0  0  0  0  0  0  0  0
   -4.5168    1.1218   -2.0820 C   0  0  0  0  0  0  0  0  0  0  0  0
   -3.5214    1.3564   -1.2418 C   0  0  0  0  0  0  0  0  0  0  0  0
   -2.9056    0.4701   -0.2249 C   0  0  2  0  0  0  0  0  0  0  0  0
   -3.2378    1.0626    1.1308 C   0  0  0  0  0  0  0  0  0  0  0  0
    0.5264   -0.7798   -1.3598 H   0  0  0  0  0  0  0  0  0  0  0  0
    1.1165   -2.5619    1.0646 H   0  0  0  0  0  0  0  0  0  0  0  0
    1.2104   -2.8720   -0.6818 H   0  0  0  0  0  0  0  0  0  0  0  0
    3.3138   -2.0598   -0.8157 H   0  0  0  0  0  0  0  0  0  0  0  0
    2.8436   -2.5124    1.9612 H   0  0  0  0  0  0  0  0  0  0  0  0
    4.3764   -2.6382    1.0927 H   0  0  0  0  0  0  0  0  0  0  0  0
    3.9955   -1.0822    1.8323 H   0  0  0  0  0  0  0  0  0  0  0  0
    3.5266   -0.0356   -2.0728 H   0  0  0  0  0  0  0  0  0  0  0  0
    5.2144    0.9724   -1.3160 H   0  0  0  0  0  0  0  0  0  0  0  0
    4.0806    2.3315   -1.0726 H   0  0  0  0  0  0  0  0  0  0  0  0
    5.8321    3.0888   -0.1986 H   0  0  0  0  0  0  0  0  0  0  0  0
    2.3529    0.6185    2.2434 H   0  0  0  0  0  0  0  0  0  0  0  0
    0.6101    0.9043    2.2611 H   0  0  0  0  0  0  0  0  0  0  0  0
    1.2166   -0.7477    2.2558 H   0  0  0  0  0  0  0  0  0  0  0  0
    1.2776    2.3609    0.1716 H   0  0  0  0  0  0  0  0  0  0  0  0
    1.0850    1.5078   -1.3858 H   0  0  0  0  0  0  0  0  0  0  0  0
   -1.0029    2.3775   -0.9119 H   0  0  0  0  0  0  0  0  0  0  0  0
   -0.9543    3.1825    1.0578 H   0  0  0  0  0  0  0  0  0  0  0  0
   -0.8005   -0.4247    1.3769 H   0  0  0  0  0  0  0  0  0  0  0  0
   -1.1020   -2.7813    0.8812 H   0  0  0  0  0  0  0  0  0  0  0  0
   -1.7025   -2.3690   -0.8098 H   0  0  0  0  0  0  0  0  0  0  0  0
   -2.9761   -1.2369    1.7268 H   0  0  0  0  0  0  0  0  0  0  0  0
   -5.0171   -2.2063   -0.9642 H   0  0  0  0  0  0  0  0  0  0  0  0
   -4.8349    1.8950   -2.7579 H   0  0  0  0  0  0  0  0  0  0  0  0
   -3.0339    2.3299   -1.2442 H   0  0  0  0  0  0  0  0  0  0  0  0
   -4.2454    0.7008    1.4657 H   0  0  0  0  0  0  0  0  0  0  0  0
   -2.5528    0.7293    1.9353 H   0  0  0  0  0  0  0  0  0  0  0  0
   -3.3423    2.1634    1.0896 H   0  0  0  0  0  0  0  0  0  0  0  0
  1  2  1  0
  2  3  1  0
  3  4  1  0
  3  5  1  0
  5  6  1  6
  5  7  1  0
  7  8  2  0
  7  9  1  0
  9 10  1  0
  5 11  1  0
 11 12  1  1
 11 13  1  0
 13 14  1  0
 14 15  1  0
 14 16  1  0
 16 17  1  6
 16 18  1  0
 18 19  1  0
 19 20  1  0
 20 21  1  0
 20 22  1  0
 22 23  2  0
 23 24  1  0
 24 25  2  0
 24 26  1  0
 26 27  2  0
 27 28  1  0
 28 29  1  1
 11  1  1  0
 28 16  1  0
 18  1  1  0
 28 22  1  0
  1 30  1  6
  2 31  1  0
  2 32  1  0
  3 33  1  6
  4 34  1  0
  4 35  1  0
  4 36  1  0
  6 37  1  0
  9 38  1  0
  9 39  1  0
 10 40  1  0
 12 41  1  0
 12 42  1  0
 12 43  1  0
 13 44  1  0
 13 45  1  0
 14 46  1  6
 15 47  1  0
 18 48  1  1
 19 49  1  0
 19 50  1  0
 20 51  1  1
 23 52  1  0
 26 53  1  0
 27 54  1  0
 29 55  1  0
 29 56  1  0
 29 57  1  0
M  END
$$$$
