@<TRIPOS>MOLECULE
*****
 46 47 0 0 0
SMALL
GASTEIGER

@<TRIPOS>ATOM
      1 C          -4.3009   -2.9592    1.0426 C.3     1  UNL1       -0.0650
      2 C          -3.4789   -2.0725    0.1212 C.3     1  UNL1       -0.0518
      3 C          -2.2956   -1.5769    0.9324 C.3     1  UNL1       -0.0245
      4 C          -1.4308   -0.7044    0.1265 C.ar    1  UNL1       -0.0052
      5 C          -0.2267   -1.2432   -0.3558 C.ar    1  UNL1       -0.0516
      6 C           0.6074   -0.4574   -1.1162 C.ar    1  UNL1       -0.0422
      7 C           1.8874   -0.9737   -1.6336 C.3     1  UNL1        0.0023
      8 C           3.0732   -0.5761   -0.8773 C.ar    1  UNL1        0.0146
      9 C           3.9056    0.4205   -1.3557 C.ar    1  UNL1        0.0379
     10 N           4.9755    0.7426   -0.6112 N.ar    1  UNL1       -0.2227
     11 C           5.2970    0.1732    0.5570 C.ar    1  UNL1        0.2142
     12 N           6.4670    0.5791    1.2946 N.pl3   1  UNL1       -0.3274
     13 N           4.4792   -0.8011    1.0195 N.ar    1  UNL1       -0.1999
     14 C           3.3718   -1.1813    0.3153 C.ar    1  UNL1        0.1247
     15 N           2.5983   -2.2135    0.9114 N.pl3   1  UNL1       -0.3428
     16 C           0.2196    0.8285   -1.3700 C.ar    1  UNL1       -0.0516
     17 C          -0.9595    1.4019   -0.9145 C.ar    1  UNL1       -0.0054
     18 C          -1.2789    2.8148   -1.2466 C.3     1  UNL1       -0.0271
     19 C          -1.0324    3.7669   -0.1031 C.3     1  UNL1       -0.0611
     20 C          -1.7836    0.6042   -0.1555 C.ar    1  UNL1        0.1264
     21 O          -2.9736    1.1073    0.3300 O.3     1  UNL1       -0.4946
     22 C          -3.1798    1.7364    1.5552 C.3     1  UNL1        0.0788
     23 H          -5.2847   -3.1885    0.5737 H       1  UNL1        0.0230
     24 H          -4.4246   -2.4502    2.0212 H       1  UNL1        0.0230
     25 H          -3.7440   -3.8904    1.2142 H       1  UNL1        0.0230
     26 H          -4.1337   -1.2383   -0.2136 H       1  UNL1        0.0266
     27 H          -3.0676   -2.6735   -0.7184 H       1  UNL1        0.0266
     28 H          -2.6325   -1.0616    1.8603 H       1  UNL1        0.0314
     29 H          -1.7358   -2.4696    1.2719 H       1  UNL1        0.0314
     30 H           0.0483   -2.2580   -0.1447 H       1  UNL1        0.0624
     31 H           1.8073   -2.0907   -1.7532 H       1  UNL1        0.0363
     32 H           2.0128   -0.6138   -2.6966 H       1  UNL1        0.0363
     33 H           3.6915    0.9247   -2.3099 H       1  UNL1        0.0834
     34 H           7.2447    0.9728    0.7251 H       1  UNL1        0.1452
     35 H           6.5710    0.5035    2.3120 H       1  UNL1        0.1452
     36 H           2.2090   -2.1358    1.8825 H       1  UNL1        0.1437
     37 H           2.4339   -3.0657    0.3227 H       1  UNL1        0.1437
     38 H           0.8635    1.4437   -1.9599 H       1  UNL1        0.0624
     39 H          -2.3251    2.8641   -1.6174 H       1  UNL1        0.0312
     40 H          -0.6205    3.1161   -2.0957 H       1  UNL1        0.0312
     41 H          -0.6350    3.2770    0.7883 H       1  UNL1        0.0233
     42 H          -1.9896    4.2771    0.1220 H       1  UNL1        0.0233
     43 H          -0.3265    4.5952   -0.4110 H       1  UNL1        0.0233
     44 H          -2.2817    2.1153    2.0644 H       1  UNL1        0.0660
     45 H          -3.8744    2.5987    1.3996 H       1  UNL1        0.0660
     46 H          -3.7473    1.0318    2.2030 H       1  UNL1        0.0660
@<TRIPOS>BOND
     1     1     2    1
     2     2     3    1
     3     3     4    1
     4     4     5   ar
     5     5     6   ar
     6     6     7    1
     7     7     8    1
     8     8     9   ar
     9     9    10   ar
    10    10    11   ar
    11    11    12    1
    12    11    13   ar
    13    13    14   ar
    14    14    15    1
    15     6    16   ar
    16    16    17   ar
    17    17    18    1
    18    18    19    1
    19    17    20   ar
    20    20    21    1
    21    21    22    1
    22    20     4   ar
    23    14     8   ar
    24     1    23    1
    25     1    24    1
    26     1    25    1
    27     2    26    1
    28     2    27    1
    29     3    28    1
    30     3    29    1
    31     5    30    1
    32     7    31    1
    33     7    32    1
    34     9    33    1
    35    12    34    1
    36    12    35    1
    37    15    36    1
    38    15    37    1
    39    16    38    1
    40    18    39    1
    41    18    40    1
    42    19    41    1
    43    19    42    1
    44    19    43    1
    45    22    44    1
    46    22    45    1
    47    22    46    1
