
     RDKit          3D

 46 47  0  0  0  0  0  0  0  0999 V2000
   -4.3009   -2.9592    1.0426 C   0  0  0  0  0  0  0  0  0  0  0  0
   -3.4789   -2.0725    0.1212 C   0  0  0  0  0  0  0  0  0  0  0  0
   -2.2956   -1.5769    0.9324 C   0  0  0  0  0  0  0  0  0  0  0  0
   -1.4308   -0.7044    0.1265 C   0  0  0  0  0  0  0  0  0  0  0  0
   -0.2267   -1.2432   -0.3558 C   0  0  0  0  0  0  0  0  0  0  0  0
    0.6074   -0.4574   -1.1162 C   0  0  0  0  0  0  0  0  0  0  0  0
    1.8874   -0.9737   -1.6336 C   0  0  0  0  0  0  0  0  0  0  0  0
    3.0732   -0.5761   -0.8773 C   0  0  0  0  0  0  0  0  0  0  0  0
    3.9056    0.4205   -1.3557 C   0  0  0  0  0  0  0  0  0  0  0  0
    4.9755    0.7426   -0.6112 N   0  0  0  0  0  0  0  0  0  0  0  0
    5.2970    0.1732    0.5570 C   0  0  0  0  0  0  0  0  0  0  0  0
    6.4670    0.5791    1.2946 N   0  0  0  0  0  0  0  0  0  0  0  0
    4.4792   -0.8011    1.0195 N   0  0  0  0  0  0  0  0  0  0  0  0
    3.3718   -1.1813    0.3153 C   0  0  0  0  0  0  0  0  0  0  0  0
    2.5983   -2.2135    0.9114 N   0  0  0  0  0  0  0  0  0  0  0  0
    0.2196    0.8285   -1.3700 C   0  0  0  0  0  0  0  0  0  0  0  0
   -0.9595    1.4019   -0.9145 C   0  0  0  0  0  0  0  0  0  0  0  0
   -1.2789    2.8148   -1.2466 C   0  0  0  0  0  0  0  0  0  0  0  0
   -1.0324    3.7669   -0.1031 C   0  0  0  0  0  0  0  0  0  0  0  0
   -1.7836    0.6042   -0.1555 C   0  0  0  0  0  0  0  0  0  0  0  0
   -2.9736    1.1073    0.3300 O   0  0  0  0  0  0  0  0  0  0  0  0
   -3.1798    1.7364    1.5552 C   0  0  0  0  0  0  0  0  0  0  0  0
   -5.2847   -3.1885    0.5737 H   0  0  0  0  0  0  0  0  0  0  0  0
   -4.4246   -2.4502    2.0212 H   0  0  0  0  0  0  0  0  0  0  0  0
   -3.7440   -3.8904    1.2142 H   0  0  0  0  0  0  0  0  0  0  0  0
   -4.1337   -1.2383   -0.2136 H   0  0  0  0  0  0  0  0  0  0  0  0
   -3.0676   -2.6735   -0.7184 H   0  0  0  0  0  0  0  0  0  0  0  0
   -2.6325   -1.0616    1.8603 H   0  0  0  0  0  0  0  0  0  0  0  0
   -1.7358   -2.4696    1.2719 H   0  0  0  0  0  0  0  0  0  0  0  0
    0.0483   -2.2580   -0.1447 H   0  0  0  0  0  0  0  0  0  0  0  0
    1.8073   -2.0907   -1.7532 H   0  0  0  0  0  0  0  0  0  0  0  0
    2.0128   -0.6138   -2.6966 H   0  0  0  0  0  0  0  0  0  0  0  0
    3.6915    0.9247   -2.3099 H   0  0  0  0  0  0  0  0  0  0  0  0
    7.2447    0.9728    0.7251 H   0  0  0  0  0  0  0  0  0  0  0  0
    6.5710    0.5035    2.3120 H   0  0  0  0  0  0  0  0  0  0  0  0
    2.2090   -2.1358    1.8825 H   0  0  0  0  0  0  0  0  0  0  0  0
    2.4339   -3.0657    0.3227 H   0  0  0  0  0  0  0  0  0  0  0  0
    0.8635    1.4437   -1.9599 H   0  0  0  0  0  0  0  0  0  0  0  0
   -2.3251    2.8641   -1.6174 H   0  0  0  0  0  0  0  0  0  0  0  0
   -0.6205    3.1161   -2.0957 H   0  0  0  0  0  0  0  0  0  0  0  0
   -0.6350    3.2770    0.7883 H   0  0  0  0  0  0  0  0  0  0  0  0
   -1.9896    4.2771    0.1220 H   0  0  0  0  0  0  0  0  0  0  0  0
   -0.3265    4.5952   -0.4110 H   0  0  0  0  0  0  0  0  0  0  0  0
   -2.2817    2.1153    2.0644 H   0  0  0  0  0  0  0  0  0  0  0  0
   -3.8744    2.5987    1.3996 H   0  0  0  0  0  0  0  0  0  0  0  0
   -3.7473    1.0318    2.2030 H   0  0  0  0  0  0  0  0  0  0  0  0
  1  2  1  0
  2  3  1  0
  3  4  1  0
  4  5  2  0
  5  6  1  0
  6  7  1  0
  7  8  1  0
  8  9  2  0
  9 10  1  0
 10 11  2  0
 11 12  1  0
 11 13  1  0
 13 14  2  0
 14 15  1  0
  6 16  2  0
 16 17  1  0
 17 18  1  0
 18 19  1  0
 17 20  2  0
 20 21  1  0
 21 22  1  0
 20  4  1  0
 14  8  1  0
  1 23  1  0
  1 24  1  0
  1 25  1  0
  2 26  1  0
  2 27  1  0
  3 28  1  0
  3 29  1  0
  5 30  1  0
  7 31  1  0
  7 32  1  0
  9 33  1  0
 12 34  1  0
 12 35  1  0
 15 36  1  0
 15 37  1  0
 16 38  1  0
 18 39  1  0
 18 40  1  0
 19 41  1  0
 19 42  1  0
 19 43  1  0
 22 44  1  0
 22 45  1  0
 22 46  1  0
M  END
$$$$
