@<TRIPOS>MOLECULE
*****
 75 78 0 0 0
SMALL
GASTEIGER

@<TRIPOS>ATOM
      1 C          -5.6057    4.1454   -0.2646 C.3     1  UNL1       -0.0652
      2 C          -6.5926    3.3238    0.4860 C.3     1  UNL1       -0.0545
      3 C          -6.3720    1.8691    0.5454 C.3     1  UNL1       -0.0376
      4 C          -6.4022    1.1642   -0.7412 C.3     1  UNL1        0.0118
      5 N          -5.3967    1.5088   -1.6651 N.pl3   1  UNL1       -0.3134
      6 C          -4.0181    1.2541   -1.3495 C.ar    1  UNL1        0.2169
      7 N          -3.1711    2.2602   -1.1852 N.ar    1  UNL1       -0.2222
      8 C          -1.8764    1.9635   -0.8847 C.ar    1  UNL1        0.0436
      9 C          -1.4261    0.6591   -0.7478 C.ar    1  UNL1        0.0584
     10 C          -0.0083    0.4083   -0.4189 C.ar    1  UNL1        0.0807
     11 C           0.8705    1.4662   -0.2382 C.ar    1  UNL1        0.0046
     12 C           2.1939    1.2350    0.0758 C.ar    1  UNL1        0.1267
     13 N           3.0348    2.3614    0.2677 N.pl3   1  UNL1       -0.2993
     14 C           4.4224    2.3170    0.5598 C.ar    1  UNL1        0.0326
     15 C           4.9922    3.4594    1.1442 C.ar    1  UNL1       -0.0405
     16 C           6.3318    3.4934    1.4501 C.ar    1  UNL1       -0.0597
     17 C           7.1457    2.3970    1.1863 C.ar    1  UNL1       -0.0580
     18 C           6.6131    1.2633    0.6136 C.ar    1  UNL1       -0.0402
     19 C           7.4839    0.0920    0.3368 C.3     1  UNL1       -0.0126
     20 C           8.9016    0.3413    0.8094 C.3     1  UNL1       -0.0560
     21 C           6.9356   -1.1400    0.9951 C.3     1  UNL1       -0.0560
     22 C           7.4571   -0.1198   -1.1788 C.3     1  UNL1       -0.0560
     23 C           5.2625    1.2762    0.3240 C.ar    1  UNL1       -0.0368
     24 N           2.6277   -0.0173    0.2052 N.ar    1  UNL1       -0.2206
     25 C           1.7872   -1.0506    0.0328 C.ar    1  UNL1        0.1187
     26 N           0.5144   -0.7979   -0.2697 N.ar    1  UNL1       -0.2351
     27 C          -2.3349   -0.3441   -0.9262 C.ar    1  UNL1        0.1333
     28 N          -1.9774   -1.7054   -0.8171 N.pl3   1  UNL1       -0.3256
     29 C          -3.0631   -2.6937   -1.0010 C.3     1  UNL1        0.0221
     30 C          -2.4431   -4.0572   -0.9138 C.3     1  UNL1       -0.0322
     31 C          -2.4249   -4.4853    0.5392 C.3     1  UNL1       -0.0252
     32 C          -3.8572   -4.9104    0.8577 C.3     1  UNL1        0.0554
     33 O          -4.1698   -5.9598   -0.0058 O.3     1  UNL1       -0.3918
     34 C          -4.7714   -3.7649    0.5174 C.3     1  UNL1       -0.0252
     35 C          -3.9947   -2.5063    0.1663 C.3     1  UNL1       -0.0322
     36 N          -3.6250   -0.0180   -1.2266 N.ar    1  UNL1       -0.1991
     37 H          -5.5038    3.8373   -1.2975 H       1  UNL1        0.0230
     38 H          -4.6030    4.1368    0.2665 H       1  UNL1        0.0230
     39 H          -5.9180    5.2412   -0.2573 H       1  UNL1        0.0230
     40 H          -7.6025    3.5688    0.0436 H       1  UNL1        0.0263
     41 H          -6.6890    3.7627    1.5338 H       1  UNL1        0.0263
     42 H          -5.3689    1.6864    1.0301 H       1  UNL1        0.0280
     43 H          -7.1328    1.4067    1.2360 H       1  UNL1        0.0280
     44 H          -6.3177    0.0437   -0.5141 H       1  UNL1        0.0462
     45 H          -7.4236    1.2992   -1.2180 H       1  UNL1        0.0462
     46 H          -5.6464    1.9374   -2.5966 H       1  UNL1        0.1489
     47 H          -1.2016    2.7910   -0.7550 H       1  UNL1        0.0838
     48 H           0.5173    2.4999   -0.3444 H       1  UNL1        0.0673
     49 H           2.6053    3.3075    0.1866 H       1  UNL1        0.1536
     50 H           4.3510    4.3251    1.3525 H       1  UNL1        0.0636
     51 H           6.7369    4.4077    1.9071 H       1  UNL1        0.0618
     52 H           8.1874    2.4889    1.4510 H       1  UNL1        0.0620
     53 H           9.5057   -0.5253    0.5160 H       1  UNL1        0.0238
     54 H           9.3442    1.2330    0.3370 H       1  UNL1        0.0238
     55 H           8.8597    0.3777    1.9128 H       1  UNL1        0.0238
     56 H           6.4258   -0.9411    1.9601 H       1  UNL1        0.0238
     57 H           6.2651   -1.6530    0.2541 H       1  UNL1        0.0238
     58 H           7.7875   -1.8579    1.1584 H       1  UNL1        0.0238
     59 H           6.6193    0.4094   -1.6676 H       1  UNL1        0.0238
     60 H           7.3481   -1.1965   -1.4385 H       1  UNL1        0.0238
     61 H           8.3996    0.2370   -1.6476 H       1  UNL1        0.0238
     62 H           4.8747    0.3809   -0.1289 H       1  UNL1        0.0639
     63 H           2.0848   -2.0768    0.1254 H       1  UNL1        0.1048
     64 H          -1.0368   -2.0296   -0.6262 H       1  UNL1        0.1478
     65 H          -3.5597   -2.5158   -1.9680 H       1  UNL1        0.0498
     66 H          -3.0950   -4.7669   -1.4776 H       1  UNL1        0.0284
     67 H          -1.4095   -4.0803   -1.3276 H       1  UNL1        0.0284
     68 H          -2.1499   -3.6831    1.2230 H       1  UNL1        0.0291
     69 H          -1.7630   -5.3767    0.6572 H       1  UNL1        0.0291
     70 H          -3.9384   -5.2434    1.9077 H       1  UNL1        0.0593
     71 H          -3.5576   -6.7208    0.0883 H       1  UNL1        0.2098
     72 H          -5.3525   -3.5320    1.4307 H       1  UNL1        0.0291
     73 H          -5.4437   -3.9710   -0.3243 H       1  UNL1        0.0291
     74 H          -3.4855   -2.1408    1.0689 H       1  UNL1        0.0284
     75 H          -4.7576   -1.7554   -0.1222 H       1  UNL1        0.0284
@<TRIPOS>BOND
     1     1     2    1
     2     2     3    1
     3     3     4    1
     4     4     5    1
     5     5     6    1
     6     6     7   ar
     7     7     8   ar
     8     8     9   ar
     9     9    10    1
    10    10    11   ar
    11    11    12   ar
    12    12    13    1
    13    13    14    1
    14    14    15   ar
    15    15    16   ar
    16    16    17   ar
    17    17    18   ar
    18    18    19    1
    19    19    20    1
    20    19    21    1
    21    19    22    1
    22    18    23   ar
    23    12    24   ar
    24    24    25   ar
    25    25    26   ar
    26     9    27   ar
    27    27    28    1
    28    28    29    1
    29    29    30    1
    30    30    31    1
    31    31    32    1
    32    32    33    1
    33    32    34    1
    34    34    35    1
    35    27    36   ar
    36    36     6   ar
    37    26    10   ar
    38    35    29    1
    39    23    14   ar
    40     1    37    1
    41     1    38    1
    42     1    39    1
    43     2    40    1
    44     2    41    1
    45     3    42    1
    46     3    43    1
    47     4    44    1
    48     4    45    1
    49     5    46    1
    50     8    47    1
    51    11    48    1
    52    13    49    1
    53    15    50    1
    54    16    51    1
    55    17    52    1
    56    20    53    1
    57    20    54    1
    58    20    55    1
    59    21    56    1
    60    21    57    1
    61    21    58    1
    62    22    59    1
    63    22    60    1
    64    22    61    1
    65    23    62    1
    66    25    63    1
    67    28    64    1
    68    29    65    1
    69    30    66    1
    70    30    67    1
    71    31    68    1
    72    31    69    1
    73    32    70    1
    74    33    71    1
    75    34    72    1
    76    34    73    1
    77    35    74    1
    78    35    75    1
