
     RDKit          3D

 75 78  0  0  0  0  0  0  0  0999 V2000
   -5.6057    4.1454   -0.2646 C   0  0  0  0  0  0  0  0  0  0  0  0
   -6.5926    3.3238    0.4860 C   0  0  0  0  0  0  0  0  0  0  0  0
   -6.3720    1.8691    0.5454 C   0  0  0  0  0  0  0  0  0  0  0  0
   -6.4022    1.1642   -0.7412 C   0  0  0  0  0  0  0  0  0  0  0  0
   -5.3967    1.5088   -1.6651 N   0  0  0  0  0  0  0  0  0  0  0  0
   -4.0181    1.2541   -1.3495 C   0  0  0  0  0  0  0  0  0  0  0  0
   -3.1711    2.2602   -1.1852 N   0  0  0  0  0  0  0  0  0  0  0  0
   -1.8764    1.9635   -0.8847 C   0  0  0  0  0  0  0  0  0  0  0  0
   -1.4261    0.6591   -0.7478 C   0  0  0  0  0  0  0  0  0  0  0  0
   -0.0083    0.4083   -0.4189 C   0  0  0  0  0  0  0  0  0  0  0  0
    0.8705    1.4662   -0.2382 C   0  0  0  0  0  0  0  0  0  0  0  0
    2.1939    1.2350    0.0758 C   0  0  0  0  0  0  0  0  0  0  0  0
    3.0348    2.3614    0.2677 N   0  0  0  0  0  0  0  0  0  0  0  0
    4.4224    2.3170    0.5598 C   0  0  0  0  0  0  0  0  0  0  0  0
    4.9922    3.4594    1.1442 C   0  0  0  0  0  0  0  0  0  0  0  0
    6.3318    3.4934    1.4501 C   0  0  0  0  0  0  0  0  0  0  0  0
    7.1457    2.3970    1.1863 C   0  0  0  0  0  0  0  0  0  0  0  0
    6.6131    1.2633    0.6136 C   0  0  0  0  0  0  0  0  0  0  0  0
    7.4839    0.0920    0.3368 C   0  0  0  0  0  0  0  0  0  0  0  0
    8.9016    0.3413    0.8094 C   0  0  0  0  0  0  0  0  0  0  0  0
    6.9356   -1.1400    0.9951 C   0  0  0  0  0  0  0  0  0  0  0  0
    7.4571   -0.1198   -1.1788 C   0  0  0  0  0  0  0  0  0  0  0  0
    5.2625    1.2762    0.3240 C   0  0  0  0  0  0  0  0  0  0  0  0
    2.6277   -0.0173    0.2052 N   0  0  0  0  0  0  0  0  0  0  0  0
    1.7872   -1.0506    0.0328 C   0  0  0  0  0  0  0  0  0  0  0  0
    0.5144   -0.7979   -0.2697 N   0  0  0  0  0  0  0  0  0  0  0  0
   -2.3349   -0.3441   -0.9262 C   0  0  0  0  0  0  0  0  0  0  0  0
   -1.9774   -1.7054   -0.8171 N   0  0  0  0  0  0  0  0  0  0  0  0
   -3.0631   -2.6937   -1.0010 C   0  0  1  0  0  0  0  0  0  0  0  0
   -2.4431   -4.0572   -0.9138 C   0  0  0  0  0  0  0  0  0  0  0  0
   -2.4249   -4.4853    0.5392 C   0  0  0  0  0  0  0  0  0  0  0  0
   -3.8572   -4.9104    0.8577 C   0  0  2  0  0  0  0  0  0  0  0  0
   -4.1698   -5.9598   -0.0058 O   0  0  0  0  0  0  0  0  0  0  0  0
   -4.7714   -3.7649    0.5174 C   0  0  0  0  0  0  0  0  0  0  0  0
   -3.9947   -2.5063    0.1663 C   0  0  0  0  0  0  0  0  0  0  0  0
   -3.6250   -0.0180   -1.2266 N   0  0  0  0  0  0  0  0  0  0  0  0
   -5.5038    3.8373   -1.2975 H   0  0  0  0  0  0  0  0  0  0  0  0
   -4.6030    4.1368    0.2665 H   0  0  0  0  0  0  0  0  0  0  0  0
   -5.9180    5.2412   -0.2573 H   0  0  0  0  0  0  0  0  0  0  0  0
   -7.6025    3.5688    0.0436 H   0  0  0  0  0  0  0  0  0  0  0  0
   -6.6890    3.7627    1.5338 H   0  0  0  0  0  0  0  0  0  0  0  0
   -5.3689    1.6864    1.0301 H   0  0  0  0  0  0  0  0  0  0  0  0
   -7.1328    1.4067    1.2360 H   0  0  0  0  0  0  0  0  0  0  0  0
   -6.3177    0.0437   -0.5141 H   0  0  0  0  0  0  0  0  0  0  0  0
   -7.4236    1.2992   -1.2180 H   0  0  0  0  0  0  0  0  0  0  0  0
   -5.6464    1.9374   -2.5966 H   0  0  0  0  0  0  0  0  0  0  0  0
   -1.2016    2.7910   -0.7550 H   0  0  0  0  0  0  0  0  0  0  0  0
    0.5173    2.4999   -0.3444 H   0  0  0  0  0  0  0  0  0  0  0  0
    2.6053    3.3075    0.1866 H   0  0  0  0  0  0  0  0  0  0  0  0
    4.3510    4.3251    1.3525 H   0  0  0  0  0  0  0  0  0  0  0  0
    6.7369    4.4077    1.9071 H   0  0  0  0  0  0  0  0  0  0  0  0
    8.1874    2.4889    1.4510 H   0  0  0  0  0  0  0  0  0  0  0  0
    9.5057   -0.5253    0.5160 H   0  0  0  0  0  0  0  0  0  0  0  0
    9.3442    1.2330    0.3370 H   0  0  0  0  0  0  0  0  0  0  0  0
    8.8597    0.3777    1.9128 H   0  0  0  0  0  0  0  0  0  0  0  0
    6.4258   -0.9411    1.9601 H   0  0  0  0  0  0  0  0  0  0  0  0
    6.2651   -1.6530    0.2541 H   0  0  0  0  0  0  0  0  0  0  0  0
    7.7875   -1.8579    1.1584 H   0  0  0  0  0  0  0  0  0  0  0  0
    6.6193    0.4094   -1.6676 H   0  0  0  0  0  0  0  0  0  0  0  0
    7.3481   -1.1965   -1.4385 H   0  0  0  0  0  0  0  0  0  0  0  0
    8.3996    0.2370   -1.6476 H   0  0  0  0  0  0  0  0  0  0  0  0
    4.8747    0.3809   -0.1289 H   0  0  0  0  0  0  0  0  0  0  0  0
    2.0848   -2.0768    0.1254 H   0  0  0  0  0  0  0  0  0  0  0  0
   -1.0368   -2.0296   -0.6262 H   0  0  0  0  0  0  0  0  0  0  0  0
   -3.5597   -2.5158   -1.9680 H   0  0  0  0  0  0  0  0  0  0  0  0
   -3.0950   -4.7669   -1.4776 H   0  0  0  0  0  0  0  0  0  0  0  0
   -1.4095   -4.0803   -1.3276 H   0  0  0  0  0  0  0  0  0  0  0  0
   -2.1499   -3.6831    1.2230 H   0  0  0  0  0  0  0  0  0  0  0  0
   -1.7630   -5.3767    0.6572 H   0  0  0  0  0  0  0  0  0  0  0  0
   -3.9384   -5.2434    1.9077 H   0  0  0  0  0  0  0  0  0  0  0  0
   -3.5576   -6.7208    0.0883 H   0  0  0  0  0  0  0  0  0  0  0  0
   -5.3525   -3.5320    1.4307 H   0  0  0  0  0  0  0  0  0  0  0  0
   -5.4437   -3.9710   -0.3243 H   0  0  0  0  0  0  0  0  0  0  0  0
   -3.4855   -2.1408    1.0689 H   0  0  0  0  0  0  0  0  0  0  0  0
   -4.7576   -1.7554   -0.1222 H   0  0  0  0  0  0  0  0  0  0  0  0
  1  2  1  0
  2  3  1  0
  3  4  1  0
  4  5  1  0
  5  6  1  0
  6  7  2  0
  7  8  1  0
  8  9  2  0
  9 10  1  0
 10 11  2  0
 11 12  1  0
 12 13  1  0
 13 14  1  0
 14 15  2  0
 15 16  1  0
 16 17  2  0
 17 18  1  0
 18 19  1  0
 19 20  1  0
 19 21  1  0
 19 22  1  0
 18 23  2  0
 12 24  2  0
 24 25  1  0
 25 26  2  0
  9 27  1  0
 27 28  1  0
 28 29  1  0
 29 30  1  0
 30 31  1  0
 31 32  1  0
 32 33  1  0
 32 34  1  0
 34 35  1  0
 27 36  2  0
 36  6  1  0
 26 10  1  0
 35 29  1  0
 23 14  1  0
  1 37  1  0
  1 38  1  0
  1 39  1  0
  2 40  1  0
  2 41  1  0
  3 42  1  0
  3 43  1  0
  4 44  1  0
  4 45  1  0
  5 46  1  0
  8 47  1  0
 11 48  1  0
 13 49  1  0
 15 50  1  0
 16 51  1  0
 17 52  1  0
 20 53  1  0
 20 54  1  0
 20 55  1  0
 21 56  1  0
 21 57  1  0
 21 58  1  0
 22 59  1  0
 22 60  1  0
 22 61  1  0
 23 62  1  0
 25 63  1  0
 28 64  1  0
 29 65  1  6
 30 66  1  0
 30 67  1  0
 31 68  1  0
 31 69  1  0
 32 70  1  1
 33 71  1  0
 34 72  1  0
 34 73  1  0
 35 74  1  0
 35 75  1  0
M  END
$$$$
