
     RDKit          3D

 59 62  0  0  0  0  0  0  0  0999 V2000
   -2.6061    4.1465    1.9637 C   0  0  0  0  0  0  0  0  0  0  0  0
   -3.0696    2.7336    2.2173 C   0  0  0  0  0  0  0  0  0  0  0  0
   -2.4099    1.8723    1.2253 N   0  0  0  0  0  0  0  0  0  0  0  0
   -1.0107    1.8142    1.1934 C   0  0  0  0  0  0  0  0  0  0  0  0
   -0.4075    2.5648    2.0880 O   0  0  0  0  0  0  0  0  0  0  0  0
   -0.2497    1.0392    0.3051 N   0  0  0  0  0  0  0  0  0  0  0  0
    1.1770    1.1698    0.4889 C   0  0  0  0  0  0  0  0  0  0  0  0
    1.6449    2.0194    1.2984 O   0  0  0  0  0  0  0  0  0  0  0  0
    2.0620    0.3678   -0.2179 N   0  0  0  0  0  0  0  0  0  0  0  0
    3.4646    0.4664   -0.0518 C   0  0  0  0  0  0  0  0  0  0  0  0
    4.1439    1.3515   -0.8703 C   0  0  0  0  0  0  0  0  0  0  0  0
    5.5073    1.4965   -0.7618 C   0  0  0  0  0  0  0  0  0  0  0  0
    6.2483    0.7652    0.1669 C   0  0  0  0  0  0  0  0  0  0  0  0
    5.5758   -0.1164    0.9830 C   0  0  0  0  0  0  0  0  0  0  0  0
    6.3474   -0.9051    1.9794 C   0  0  0  0  0  0  0  0  0  0  0  0
    6.4129   -2.2066    1.4726 F   0  0  0  0  0  0  0  0  0  0  0  0
    7.5895   -0.3680    2.1379 F   0  0  0  0  0  0  0  0  0  0  0  0
    5.6706   -0.9541    3.1856 F   0  0  0  0  0  0  0  0  0  0  0  0
    4.1984   -0.2445    0.8536 C   0  0  0  0  0  0  0  0  0  0  0  0
    1.5311   -0.5701   -1.1260 C   0  0  0  0  0  0  0  0  0  0  0  0
    0.2434   -0.6930   -1.3283 C   0  0  0  0  0  0  0  0  0  0  0  0
    0.0282   -1.7537   -2.3077 C   0  0  0  0  0  0  0  0  0  0  0  0
   -0.9479   -2.5065   -2.5090 O   0  0  0  0  0  0  0  0  0  0  0  0
    1.2998   -1.8054   -3.1199 C   0  0  0  0  0  0  0  0  0  0  0  0
    2.2907   -1.5458   -1.9905 C   0  0  0  0  0  0  0  0  0  0  0  0
   -0.8252    0.1854   -0.7044 C   0  0  1  0  0  0  0  0  0  0  0  0
   -1.7378   -0.7946   -0.0901 C   0  0  0  0  0  0  0  0  0  0  0  0
   -1.2464   -1.5154    0.9797 C   0  0  0  0  0  0  0  0  0  0  0  0
   -2.0622   -2.4033    1.6324 C   0  0  0  0  0  0  0  0  0  0  0  0
   -3.3689   -2.5466    1.1876 C   0  0  0  0  0  0  0  0  0  0  0  0
   -4.2264   -3.4737    1.8681 C   0  0  0  0  0  0  0  0  0  0  0  0
   -4.9013   -4.2226    2.4239 N   0  0  0  0  0  0  0  0  0  0  0  0
   -3.8320   -1.8162    0.1183 C   0  0  0  0  0  0  0  0  0  0  0  0
   -3.0401   -0.9158   -0.5617 C   0  0  0  0  0  0  0  0  0  0  0  0
   -3.6684   -0.0886   -1.9276 S   0  0  0  0  0  6  0  0  0  0  0  0
   -5.4114   -0.5363   -2.0865 C   0  0  0  0  0  0  0  0  0  0  0  0
   -3.0671   -0.5054   -3.2478 O   0  0  0  0  0  0  0  0  0  0  0  0
   -3.6297    1.3875   -1.8750 O   0  0  0  0  0  0  0  0  0  0  0  0
   -2.1297    4.2208    0.9792 H   0  0  0  0  0  0  0  0  0  0  0  0
   -1.8122    4.3580    2.7278 H   0  0  0  0  0  0  0  0  0  0  0  0
   -3.4583    4.8537    2.0607 H   0  0  0  0  0  0  0  0  0  0  0  0
   -2.8231    2.3976    3.2476 H   0  0  0  0  0  0  0  0  0  0  0  0
   -4.1677    2.7145    2.1283 H   0  0  0  0  0  0  0  0  0  0  0  0
   -3.0361    1.3650    0.6142 H   0  0  0  0  0  0  0  0  0  0  0  0
    3.6197    1.9541   -1.6187 H   0  0  0  0  0  0  0  0  0  0  0  0
    6.0309    2.1913   -1.4061 H   0  0  0  0  0  0  0  0  0  0  0  0
    7.3361    0.8860    0.2478 H   0  0  0  0  0  0  0  0  0  0  0  0
    3.6664   -0.9421    1.4992 H   0  0  0  0  0  0  0  0  0  0  0  0
    1.4371   -2.8114   -3.5634 H   0  0  0  0  0  0  0  0  0  0  0  0
    1.2949   -1.0093   -3.8705 H   0  0  0  0  0  0  0  0  0  0  0  0
    3.1811   -1.0436   -2.3722 H   0  0  0  0  0  0  0  0  0  0  0  0
    2.4793   -2.4768   -1.4533 H   0  0  0  0  0  0  0  0  0  0  0  0
   -1.3076    0.8441   -1.4301 H   0  0  0  0  0  0  0  0  0  0  0  0
   -0.2157   -1.3990    1.3269 H   0  0  0  0  0  0  0  0  0  0  0  0
   -1.7101   -2.9859    2.4759 H   0  0  0  0  0  0  0  0  0  0  0  0
   -4.8804   -1.9919   -0.1677 H   0  0  0  0  0  0  0  0  0  0  0  0
   -5.9890   -0.1936   -1.2274 H   0  0  0  0  0  0  0  0  0  0  0  0
   -5.7965   -0.1795   -3.0687 H   0  0  0  0  0  0  0  0  0  0  0  0
   -5.4365   -1.6443   -2.1219 H   0  0  0  0  0  0  0  0  0  0  0  0
  1  2  1  0
  2  3  1  0
  3  4  1  0
  4  5  2  0
  4  6  1  0
  6  7  1  0
  7  8  2  0
  7  9  1  0
  9 10  1  0
 10 11  2  0
 11 12  1  0
 12 13  2  0
 13 14  1  0
 14 15  1  0
 15 16  1  0
 15 17  1  0
 15 18  1  0
 14 19  2  0
  9 20  1  0
 20 21  2  0
 21 22  1  0
 22 23  2  0
 22 24  1  0
 24 25  1  0
 21 26  1  0
 26 27  1  0
 27 28  2  0
 28 29  1  0
 29 30  2  0
 30 31  1  0
 31 32  3  0
 30 33  1  0
 33 34  2  0
 34 35  1  0
 35 36  1  0
 35 37  2  0
 35 38  2  0
 26  6  1  0
 34 27  1  0
 19 10  1  0
 25 20  1  0
  1 39  1  0
  1 40  1  0
  1 41  1  0
  2 42  1  0
  2 43  1  0
  3 44  1  0
 11 45  1  0
 12 46  1  0
 13 47  1  0
 19 48  1  0
 24 49  1  0
 24 50  1  0
 25 51  1  0
 25 52  1  0
 26 53  1  6
 28 54  1  0
 29 55  1  0
 33 56  1  0
 36 57  1  0
 36 58  1  0
 36 59  1  0
M  END
$$$$
