@<TRIPOS>MOLECULE
*****
 59 62 0 0 0
SMALL
GASTEIGER

@<TRIPOS>ATOM
      1 C          -2.6061    4.1465    1.9637 C.3     1  UNL1       -0.0495
      2 C          -3.0696    2.7336    2.2173 C.3     1  UNL1        0.0102
      3 N          -2.4099    1.8723    1.2253 N.am    1  UNL1       -0.2991
      4 C          -1.0107    1.8142    1.1934 C.2     1  UNL1        0.3105
      5 O          -0.4075    2.5648    2.0880 O.2     1  UNL1       -0.2521
      6 N          -0.2497    1.0392    0.3051 N.am    1  UNL1       -0.1973
      7 C           1.1770    1.1698    0.4889 C.2     1  UNL1        0.3216
      8 O           1.6449    2.0194    1.2984 O.2     1  UNL1       -0.2512
      9 N           2.0620    0.3678   -0.2179 N.am    1  UNL1       -0.2271
     10 C           3.4646    0.4664   -0.0518 C.ar    1  UNL1        0.0430
     11 C           4.1439    1.3515   -0.8703 C.ar    1  UNL1       -0.0399
     12 C           5.5073    1.4965   -0.7618 C.ar    1  UNL1       -0.0595
     13 C           6.2483    0.7652    0.1669 C.ar    1  UNL1       -0.0500
     14 C           5.5758   -0.1164    0.9830 C.ar    1  UNL1        0.0566
     15 C           6.3474   -0.9051    1.9794 C.3     1  UNL1        0.4175
     16 F           6.4129   -2.2066    1.4726 F       1  UNL1       -0.1659
     17 F           7.5895   -0.3680    2.1379 F       1  UNL1       -0.1659
     18 F           5.6706   -0.9541    3.1856 F       1  UNL1       -0.1659
     19 C           4.1984   -0.2445    0.8536 C.ar    1  UNL1       -0.0283
     20 C           1.5311   -0.5701   -1.1260 C.2     1  UNL1        0.0290
     21 C           0.2434   -0.6930   -1.3283 C.2     1  UNL1        0.0380
     22 C           0.0282   -1.7537   -2.3077 C.2     1  UNL1        0.1632
     23 O          -0.9479   -2.5065   -2.5090 O.2     1  UNL1       -0.2923
     24 C           1.2998   -1.8054   -3.1199 C.3     1  UNL1        0.0154
     25 C           2.2907   -1.5458   -1.9905 C.3     1  UNL1       -0.0064
     26 C          -0.8252    0.1854   -0.7044 C.3     1  UNL1        0.0932
     27 C          -1.7378   -0.7946   -0.0901 C.ar    1  UNL1        0.0029
     28 C          -1.2464   -1.5154    0.9797 C.ar    1  UNL1       -0.0534
     29 C          -2.0622   -2.4033    1.6324 C.ar    1  UNL1       -0.0439
     30 C          -3.3689   -2.5466    1.1876 C.ar    1  UNL1        0.0536
     31 C          -4.2264   -3.4737    1.8681 C.1     1  UNL1        0.0992
     32 N          -4.9013   -4.2226    2.4239 N.1     1  UNL1       -0.1909
     33 C          -3.8320   -1.8162    0.1183 C.ar    1  UNL1       -0.0192
     34 C          -3.0401   -0.9158   -0.5617 C.ar    1  UNL1        0.0944
     35 S          -3.6684   -0.0886   -1.9276 S.O2    1  UNL1       -0.0055
     36 C          -5.4114   -0.5363   -2.0865 C.3     1  UNL1        0.0596
     37 O          -3.0671   -0.5054   -3.2478 O.2     1  UNL1       -0.1696
     38 O          -3.6297    1.3875   -1.8750 O.2     1  UNL1       -0.1696
     39 H          -2.1297    4.2208    0.9792 H       1  UNL1        0.0245
     40 H          -1.8122    4.3580    2.7278 H       1  UNL1        0.0245
     41 H          -3.4583    4.8537    2.0607 H       1  UNL1        0.0245
     42 H          -2.8231    2.3976    3.2476 H       1  UNL1        0.0460
     43 H          -4.1677    2.7145    2.1283 H       1  UNL1        0.0460
     44 H          -3.0361    1.3650    0.6142 H       1  UNL1        0.1502
     45 H           3.6197    1.9541   -1.6187 H       1  UNL1        0.0636
     46 H           6.0309    2.1913   -1.4061 H       1  UNL1        0.0618
     47 H           7.3361    0.8860    0.2478 H       1  UNL1        0.0623
     48 H           3.6664   -0.9421    1.4992 H       1  UNL1        0.0642
     49 H           1.4371   -2.8114   -3.5634 H       1  UNL1        0.0349
     50 H           1.2949   -1.0093   -3.8705 H       1  UNL1        0.0349
     51 H           3.1811   -1.0436   -2.3722 H       1  UNL1        0.0330
     52 H           2.4793   -2.4768   -1.4533 H       1  UNL1        0.0330
     53 H          -1.3076    0.8441   -1.4301 H       1  UNL1        0.0608
     54 H          -0.2157   -1.3990    1.3269 H       1  UNL1        0.0622
     55 H          -1.7101   -2.9859    2.4759 H       1  UNL1        0.0630
     56 H          -4.8804   -1.9919   -0.1677 H       1  UNL1        0.0649
     57 H          -5.9890   -0.1936   -1.2274 H       1  UNL1        0.0468
     58 H          -5.7965   -0.1795   -3.0687 H       1  UNL1        0.0468
     59 H          -5.4365   -1.6443   -2.1219 H       1  UNL1        0.0468
@<TRIPOS>BOND
     1     1     2    1
     2     2     3    1
     3     3     4   am
     4     4     5    2
     5     4     6   am
     6     6     7   am
     7     7     8    2
     8     7     9   am
     9     9    10    1
    10    10    11   ar
    11    11    12   ar
    12    12    13   ar
    13    13    14   ar
    14    14    15    1
    15    15    16    1
    16    15    17    1
    17    15    18    1
    18    14    19   ar
    19     9    20    1
    20    20    21    2
    21    21    22    1
    22    22    23    2
    23    22    24    1
    24    24    25    1
    25    21    26    1
    26    26    27    1
    27    27    28   ar
    28    28    29   ar
    29    29    30   ar
    30    30    31    1
    31    31    32    3
    32    30    33   ar
    33    33    34   ar
    34    34    35    1
    35    35    36    1
    36    35    37    2
    37    35    38    2
    38    26     6    1
    39    34    27   ar
    40    19    10   ar
    41    25    20    1
    42     1    39    1
    43     1    40    1
    44     1    41    1
    45     2    42    1
    46     2    43    1
    47     3    44    1
    48    11    45    1
    49    12    46    1
    50    13    47    1
    51    19    48    1
    52    24    49    1
    53    24    50    1
    54    25    51    1
    55    25    52    1
    56    26    53    1
    57    28    54    1
    58    29    55    1
    59    33    56    1
    60    36    57    1
    61    36    58    1
    62    36    59    1
