@<TRIPOS>MOLECULE
*****
 82 88 0 0 0
SMALL
GASTEIGER

@<TRIPOS>ATOM
      1 C          -9.7899   -4.3971   -1.1174 C.3     1  UNL1       -0.0397
      2 C          -8.9649   -3.1992   -0.7745 C.ar    1  UNL1       -0.0503
      3 C          -8.4427   -2.3616   -1.7349 C.ar    1  UNL1       -0.0568
      4 C          -7.6791   -1.2576   -1.3413 C.ar    1  UNL1       -0.0359
      5 C          -7.4243   -0.9689   -0.0255 C.ar    1  UNL1        0.0674
      6 N          -6.6431    0.1616    0.3663 N.ar    1  UNL1       -0.2181
      7 N          -7.1791    1.2944    0.7632 N.ar    1  UNL1       -0.1691
      8 C          -6.2168    2.1767    1.0683 C.ar    1  UNL1        0.0706
      9 C          -6.4900    3.5398    1.5477 C.3     1  UNL1        0.0063
     10 C          -6.6225    4.4293    0.3176 C.3     1  UNL1       -0.0546
     11 C          -7.7607    3.5609    2.3290 C.3     1  UNL1       -0.0546
     12 C          -5.3251    4.0423    2.3762 C.3     1  UNL1       -0.0546
     13 C          -5.0106    1.5415    0.8424 C.ar    1  UNL1        0.0021
     14 C          -5.3066    0.2826    0.4044 C.ar    1  UNL1        0.1299
     15 N          -4.3928   -0.7269    0.0579 N.am    1  UNL1       -0.2538
     16 C          -2.9737   -0.5922    0.1387 C.2     1  UNL1        0.3092
     17 O          -2.4656    0.4603    0.5328 O.2     1  UNL1       -0.2521
     18 N          -2.1469   -1.6729   -0.2336 N.am    1  UNL1       -0.2686
     19 C          -0.7247   -1.6138   -0.1699 C.ar    1  UNL1        0.0427
     20 C          -0.0445   -1.9866    0.9690 C.ar    1  UNL1       -0.0363
     21 C           1.3196   -1.9242    1.0303 C.ar    1  UNL1       -0.0169
     22 C           2.1108   -1.4824   -0.0493 C.ar    1  UNL1        0.1381
     23 O           3.3800   -1.4332    0.0348 O.3     1  UNL1       -0.4373
     24 C           4.6608   -1.3774    0.1186 C.ar    1  UNL1        0.2249
     25 C           5.3552   -2.5849    0.3829 C.ar    1  UNL1        0.0186
     26 C           6.7156   -2.5944    0.4839 C.ar    1  UNL1        0.0362
     27 N           7.3619   -1.4497    0.3290 N.ar    1  UNL1       -0.2225
     28 C           6.7778   -0.2850    0.0807 C.ar    1  UNL1        0.2226
     29 N           7.4963    0.9383   -0.0799 N.pl3   1  UNL1       -0.2835
     30 C           8.8714    1.0998    0.0041 C.ar    1  UNL1        0.0353
     31 C           9.4162    2.3841   -0.1685 C.ar    1  UNL1       -0.0401
     32 C          10.7616    2.6172   -0.0977 C.ar    1  UNL1       -0.0546
     33 C          11.6534    1.6094    0.1462 C.ar    1  UNL1       -0.0173
     34 C          11.1342    0.3515    0.3163 C.ar    1  UNL1        0.0388
     35 C           9.7724    0.0946    0.2481 C.ar    1  UNL1       -0.0189
     36 N          12.2465   -0.5304    0.5566 N.am    1  UNL1       -0.2849
     37 C          13.4702    0.2047    0.5338 C.2     1  UNL1        0.2216
     38 O          14.6314   -0.2700    0.7117 O.2     1  UNL1       -0.2751
     39 C          13.1397    1.6069    0.2674 C.3     1  UNL1        0.0512
     40 N           5.4392   -0.2872   -0.0169 N.ar    1  UNL1       -0.1789
     41 C           1.3797   -1.1115   -1.1938 C.ar    1  UNL1        0.0262
     42 C           2.1312   -0.6731   -2.2731 C.ar    1  UNL1       -0.0505
     43 C           1.4404   -0.2997   -3.4164 C.ar    1  UNL1       -0.0611
     44 C           0.0514   -0.3640   -3.4744 C.ar    1  UNL1       -0.0611
     45 C          -0.6832   -0.8031   -2.3912 C.ar    1  UNL1       -0.0521
     46 C           0.0101   -1.1759   -1.2485 C.ar    1  UNL1        0.0069
     47 C          -7.9584   -1.8237    0.9302 C.ar    1  UNL1       -0.0359
     48 C          -8.7166   -2.9208    0.5543 C.ar    1  UNL1       -0.0568
     49 H         -10.8417   -4.0900   -1.1871 H       1  UNL1        0.0278
     50 H          -9.4784   -4.7245   -2.1304 H       1  UNL1        0.0278
     51 H          -9.5904   -5.1484   -0.3394 H       1  UNL1        0.0278
     52 H          -8.6407   -2.5884   -2.7710 H       1  UNL1        0.0621
     53 H          -7.2796   -0.6145   -2.1101 H       1  UNL1        0.0639
     54 H          -6.8060    5.4731    0.6288 H       1  UNL1        0.0239
     55 H          -7.4940    4.0655   -0.2568 H       1  UNL1        0.0239
     56 H          -5.7330    4.3264   -0.3092 H       1  UNL1        0.0239
     57 H          -7.5230    3.5993    3.4235 H       1  UNL1        0.0239
     58 H          -8.4059    4.4265    2.0399 H       1  UNL1        0.0239
     59 H          -8.3686    2.6568    2.1243 H       1  UNL1        0.0239
     60 H          -4.4712    4.2905    1.7051 H       1  UNL1        0.0239
     61 H          -5.6383    4.9725    2.9024 H       1  UNL1        0.0239
     62 H          -5.0235    3.2820    3.0984 H       1  UNL1        0.0239
     63 H          -4.0676    2.0408    1.0135 H       1  UNL1        0.0671
     64 H          -4.7761   -1.6491   -0.2860 H       1  UNL1        0.1578
     65 H          -2.5989   -2.5498   -0.5695 H       1  UNL1        0.1564
     66 H          -0.6605   -2.3302    1.8085 H       1  UNL1        0.0637
     67 H           1.8199   -2.2255    1.9435 H       1  UNL1        0.0655
     68 H           4.8079   -3.5051    0.5074 H       1  UNL1        0.0686
     69 H           7.2851   -3.5124    0.6876 H       1  UNL1        0.0832
     70 H           6.9121    1.8105   -0.2845 H       1  UNL1        0.1550
     71 H           8.7375    3.1817   -0.3589 H       1  UNL1        0.0636
     72 H          11.1737    3.6198   -0.2343 H       1  UNL1        0.0622
     73 H           9.4762   -0.9384    0.3980 H       1  UNL1        0.0655
     74 H          12.1902   -1.5606    0.7244 H       1  UNL1        0.1548
     75 H          13.4757    2.2103    1.1438 H       1  UNL1        0.0408
     76 H          13.6162    1.9785   -0.6716 H       1  UNL1        0.0408
     77 H           3.2065   -0.6355   -2.1940 H       1  UNL1        0.0625
     78 H           2.0494    0.0387   -4.2467 H       1  UNL1        0.0618
     79 H          -0.4410   -0.0565   -4.4021 H       1  UNL1        0.0618
     80 H          -1.7594   -0.8524   -2.4358 H       1  UNL1        0.0624
     81 H          -7.7761   -1.6231    1.9718 H       1  UNL1        0.0639
     82 H          -9.1415   -3.5968    1.2964 H       1  UNL1        0.0621
@<TRIPOS>BOND
     1     1     2    1
     2     2     3   ar
     3     3     4   ar
     4     4     5   ar
     5     5     6    1
     6     6     7   ar
     7     7     8   ar
     8     8     9    1
     9     9    10    1
    10     9    11    1
    11     9    12    1
    12     8    13   ar
    13    13    14   ar
    14    14    15    1
    15    15    16   am
    16    16    17    2
    17    16    18   am
    18    18    19    1
    19    19    20   ar
    20    20    21   ar
    21    21    22   ar
    22    22    23    1
    23    23    24    1
    24    24    25   ar
    25    25    26   ar
    26    26    27   ar
    27    27    28   ar
    28    28    29    1
    29    29    30    1
    30    30    31   ar
    31    31    32   ar
    32    32    33   ar
    33    33    34   ar
    34    34    35   ar
    35    34    36    1
    36    36    37   am
    37    37    38    2
    38    37    39    1
    39    28    40   ar
    40    22    41   ar
    41    41    42   ar
    42    42    43   ar
    43    43    44   ar
    44    44    45   ar
    45    45    46   ar
    46     5    47   ar
    47    47    48   ar
    48    48     2   ar
    49    14     6   ar
    50    46    19   ar
    51    40    24   ar
    52    46    41   ar
    53    35    30   ar
    54    39    33    1
    55     1    49    1
    56     1    50    1
    57     1    51    1
    58     3    52    1
    59     4    53    1
    60    10    54    1
    61    10    55    1
    62    10    56    1
    63    11    57    1
    64    11    58    1
    65    11    59    1
    66    12    60    1
    67    12    61    1
    68    12    62    1
    69    13    63    1
    70    15    64    1
    71    18    65    1
    72    20    66    1
    73    21    67    1
    74    25    68    1
    75    26    69    1
    76    29    70    1
    77    31    71    1
    78    32    72    1
    79    35    73    1
    80    36    74    1
    81    39    75    1
    82    39    76    1
    83    42    77    1
    84    43    78    1
    85    44    79    1
    86    45    80    1
    87    47    81    1
    88    48    82    1
