
     RDKit          3D

 82 88  0  0  0  0  0  0  0  0999 V2000
   -9.7899   -4.3971   -1.1174 C   0  0  0  0  0  0  0  0  0  0  0  0
   -8.9649   -3.1992   -0.7745 C   0  0  0  0  0  0  0  0  0  0  0  0
   -8.4427   -2.3616   -1.7349 C   0  0  0  0  0  0  0  0  0  0  0  0
   -7.6791   -1.2576   -1.3413 C   0  0  0  0  0  0  0  0  0  0  0  0
   -7.4243   -0.9689   -0.0255 C   0  0  0  0  0  0  0  0  0  0  0  0
   -6.6431    0.1616    0.3663 N   0  0  0  0  0  0  0  0  0  0  0  0
   -7.1791    1.2944    0.7632 N   0  0  0  0  0  0  0  0  0  0  0  0
   -6.2168    2.1767    1.0683 C   0  0  0  0  0  0  0  0  0  0  0  0
   -6.4900    3.5398    1.5477 C   0  0  0  0  0  0  0  0  0  0  0  0
   -6.6225    4.4293    0.3176 C   0  0  0  0  0  0  0  0  0  0  0  0
   -7.7607    3.5609    2.3290 C   0  0  0  0  0  0  0  0  0  0  0  0
   -5.3251    4.0423    2.3762 C   0  0  0  0  0  0  0  0  0  0  0  0
   -5.0106    1.5415    0.8424 C   0  0  0  0  0  0  0  0  0  0  0  0
   -5.3066    0.2826    0.4044 C   0  0  0  0  0  0  0  0  0  0  0  0
   -4.3928   -0.7269    0.0579 N   0  0  0  0  0  0  0  0  0  0  0  0
   -2.9737   -0.5922    0.1387 C   0  0  0  0  0  0  0  0  0  0  0  0
   -2.4656    0.4603    0.5328 O   0  0  0  0  0  0  0  0  0  0  0  0
   -2.1469   -1.6729   -0.2336 N   0  0  0  0  0  0  0  0  0  0  0  0
   -0.7247   -1.6138   -0.1699 C   0  0  0  0  0  0  0  0  0  0  0  0
   -0.0445   -1.9866    0.9690 C   0  0  0  0  0  0  0  0  0  0  0  0
    1.3196   -1.9242    1.0303 C   0  0  0  0  0  0  0  0  0  0  0  0
    2.1108   -1.4824   -0.0493 C   0  0  0  0  0  0  0  0  0  0  0  0
    3.3800   -1.4332    0.0348 O   0  0  0  0  0  0  0  0  0  0  0  0
    4.6608   -1.3774    0.1186 C   0  0  0  0  0  0  0  0  0  0  0  0
    5.3552   -2.5849    0.3829 C   0  0  0  0  0  0  0  0  0  0  0  0
    6.7156   -2.5944    0.4839 C   0  0  0  0  0  0  0  0  0  0  0  0
    7.3619   -1.4497    0.3290 N   0  0  0  0  0  0  0  0  0  0  0  0
    6.7778   -0.2850    0.0807 C   0  0  0  0  0  0  0  0  0  0  0  0
    7.4963    0.9383   -0.0799 N   0  0  0  0  0  0  0  0  0  0  0  0
    8.8714    1.0998    0.0041 C   0  0  0  0  0  0  0  0  0  0  0  0
    9.4162    2.3841   -0.1685 C   0  0  0  0  0  0  0  0  0  0  0  0
   10.7616    2.6172   -0.0977 C   0  0  0  0  0  0  0  0  0  0  0  0
   11.6534    1.6094    0.1462 C   0  0  0  0  0  0  0  0  0  0  0  0
   11.1342    0.3515    0.3163 C   0  0  0  0  0  0  0  0  0  0  0  0
    9.7724    0.0946    0.2481 C   0  0  0  0  0  0  0  0  0  0  0  0
   12.2465   -0.5304    0.5566 N   0  0  0  0  0  0  0  0  0  0  0  0
   13.4702    0.2047    0.5338 C   0  0  0  0  0  0  0  0  0  0  0  0
   14.6314   -0.2700    0.7117 O   0  0  0  0  0  0  0  0  0  0  0  0
   13.1397    1.6069    0.2674 C   0  0  0  0  0  0  0  0  0  0  0  0
    5.4392   -0.2872   -0.0169 N   0  0  0  0  0  0  0  0  0  0  0  0
    1.3797   -1.1115   -1.1938 C   0  0  0  0  0  0  0  0  0  0  0  0
    2.1312   -0.6731   -2.2731 C   0  0  0  0  0  0  0  0  0  0  0  0
    1.4404   -0.2997   -3.4164 C   0  0  0  0  0  0  0  0  0  0  0  0
    0.0514   -0.3640   -3.4744 C   0  0  0  0  0  0  0  0  0  0  0  0
   -0.6832   -0.8031   -2.3912 C   0  0  0  0  0  0  0  0  0  0  0  0
    0.0101   -1.1759   -1.2485 C   0  0  0  0  0  0  0  0  0  0  0  0
   -7.9584   -1.8237    0.9302 C   0  0  0  0  0  0  0  0  0  0  0  0
   -8.7166   -2.9208    0.5543 C   0  0  0  0  0  0  0  0  0  0  0  0
  -10.8417   -4.0900   -1.1871 H   0  0  0  0  0  0  0  0  0  0  0  0
   -9.4784   -4.7245   -2.1304 H   0  0  0  0  0  0  0  0  0  0  0  0
   -9.5904   -5.1484   -0.3394 H   0  0  0  0  0  0  0  0  0  0  0  0
   -8.6407   -2.5884   -2.7710 H   0  0  0  0  0  0  0  0  0  0  0  0
   -7.2796   -0.6145   -2.1101 H   0  0  0  0  0  0  0  0  0  0  0  0
   -6.8060    5.4731    0.6288 H   0  0  0  0  0  0  0  0  0  0  0  0
   -7.4940    4.0655   -0.2568 H   0  0  0  0  0  0  0  0  0  0  0  0
   -5.7330    4.3264   -0.3092 H   0  0  0  0  0  0  0  0  0  0  0  0
   -7.5230    3.5993    3.4235 H   0  0  0  0  0  0  0  0  0  0  0  0
   -8.4059    4.4265    2.0399 H   0  0  0  0  0  0  0  0  0  0  0  0
   -8.3686    2.6568    2.1243 H   0  0  0  0  0  0  0  0  0  0  0  0
   -4.4712    4.2905    1.7051 H   0  0  0  0  0  0  0  0  0  0  0  0
   -5.6383    4.9725    2.9024 H   0  0  0  0  0  0  0  0  0  0  0  0
   -5.0235    3.2820    3.0984 H   0  0  0  0  0  0  0  0  0  0  0  0
   -4.0676    2.0408    1.0135 H   0  0  0  0  0  0  0  0  0  0  0  0
   -4.7761   -1.6491   -0.2860 H   0  0  0  0  0  0  0  0  0  0  0  0
   -2.5989   -2.5498   -0.5695 H   0  0  0  0  0  0  0  0  0  0  0  0
   -0.6605   -2.3302    1.8085 H   0  0  0  0  0  0  0  0  0  0  0  0
    1.8199   -2.2255    1.9435 H   0  0  0  0  0  0  0  0  0  0  0  0
    4.8079   -3.5051    0.5074 H   0  0  0  0  0  0  0  0  0  0  0  0
    7.2851   -3.5124    0.6876 H   0  0  0  0  0  0  0  0  0  0  0  0
    6.9121    1.8105   -0.2845 H   0  0  0  0  0  0  0  0  0  0  0  0
    8.7375    3.1817   -0.3589 H   0  0  0  0  0  0  0  0  0  0  0  0
   11.1737    3.6198   -0.2343 H   0  0  0  0  0  0  0  0  0  0  0  0
    9.4762   -0.9384    0.3980 H   0  0  0  0  0  0  0  0  0  0  0  0
   12.1902   -1.5606    0.7244 H   0  0  0  0  0  0  0  0  0  0  0  0
   13.4757    2.2103    1.1438 H   0  0  0  0  0  0  0  0  0  0  0  0
   13.6162    1.9785   -0.6716 H   0  0  0  0  0  0  0  0  0  0  0  0
    3.2065   -0.6355   -2.1940 H   0  0  0  0  0  0  0  0  0  0  0  0
    2.0494    0.0387   -4.2467 H   0  0  0  0  0  0  0  0  0  0  0  0
   -0.4410   -0.0565   -4.4021 H   0  0  0  0  0  0  0  0  0  0  0  0
   -1.7594   -0.8524   -2.4358 H   0  0  0  0  0  0  0  0  0  0  0  0
   -7.7761   -1.6231    1.9718 H   0  0  0  0  0  0  0  0  0  0  0  0
   -9.1415   -3.5968    1.2964 H   0  0  0  0  0  0  0  0  0  0  0  0
  1  2  1  0
  2  3  2  0
  3  4  1  0
  4  5  2  0
  5  6  1  0
  6  7  1  0
  7  8  2  0
  8  9  1  0
  9 10  1  0
  9 11  1  0
  9 12  1  0
  8 13  1  0
 13 14  2  0
 14 15  1  0
 15 16  1  0
 16 17  2  0
 16 18  1  0
 18 19  1  0
 19 20  2  0
 20 21  1  0
 21 22  2  0
 22 23  1  0
 23 24  1  0
 24 25  2  0
 25 26  1  0
 26 27  2  0
 27 28  1  0
 28 29  1  0
 29 30  1  0
 30 31  2  0
 31 32  1  0
 32 33  2  0
 33 34  1  0
 34 35  2  0
 34 36  1  0
 36 37  1  0
 37 38  2  0
 37 39  1  0
 28 40  2  0
 22 41  1  0
 41 42  2  0
 42 43  1  0
 43 44  2  0
 44 45  1  0
 45 46  2  0
  5 47  1  0
 47 48  2  0
 48  2  1  0
 14  6  1  0
 46 19  1  0
 40 24  1  0
 46 41  1  0
 35 30  1  0
 39 33  1  0
  1 49  1  0
  1 50  1  0
  1 51  1  0
  3 52  1  0
  4 53  1  0
 10 54  1  0
 10 55  1  0
 10 56  1  0
 11 57  1  0
 11 58  1  0
 11 59  1  0
 12 60  1  0
 12 61  1  0
 12 62  1  0
 13 63  1  0
 15 64  1  0
 18 65  1  0
 20 66  1  0
 21 67  1  0
 25 68  1  0
 26 69  1  0
 29 70  1  0
 31 71  1  0
 32 72  1  0
 35 73  1  0
 36 74  1  0
 39 75  1  0
 39 76  1  0
 42 77  1  0
 43 78  1  0
 44 79  1  0
 45 80  1  0
 47 81  1  0
 48 82  1  0
M  END
$$$$
