@<TRIPOS>MOLECULE
*****
 69 73 0 0 0
SMALL
GASTEIGER

@<TRIPOS>ATOM
      1 C          -4.3727   -0.9939   -4.3209 C.3     1  UNL1       -0.0390
      2 C          -5.1936   -0.3804   -3.2460 C.ar    1  UNL1       -0.0382
      3 C          -6.5373   -0.2429   -3.5120 C.ar    1  UNL1       -0.0564
      4 C          -7.3562    0.3084   -2.5615 C.ar    1  UNL1       -0.0402
      5 C          -6.8334    0.7296   -1.3258 C.ar    1  UNL1        0.0344
      6 N          -7.7169    1.3090   -0.3915 N.am    1  UNL1       -0.2813
      7 C          -8.5313    0.5593    0.4864 C.2     1  UNL1        0.2531
      8 O          -8.4333   -0.7039    0.4204 O.2     1  UNL1       -0.2697
      9 C          -9.4693    1.1215    1.4448 C.ar    1  UNL1        0.0984
     10 C          -9.5795    2.4267    1.8710 C.ar    1  UNL1        0.0825
     11 N         -10.5985    2.4704    2.7642 N.ar    1  UNL1       -0.0857
     12 O         -11.1073    1.2817    2.9030 O.2     1  UNL1       -0.3592
     13 C         -10.4726    0.4449    2.1420 C.ar    1  UNL1        0.1463
     14 C         -10.6915   -1.0338    1.9597 C.3     1  UNL1       -0.0029
     15 C          -5.4940    0.5843   -1.0826 C.ar    1  UNL1       -0.0281
     16 C          -4.6520    0.0356   -2.0193 C.ar    1  UNL1        0.0417
     17 C          -3.2484   -0.1066   -1.8218 C.2     1  UNL1        0.2486
     18 O          -2.5071   -0.3021   -2.8795 O.2     1  UNL1       -0.2698
     19 N          -2.4937   -0.0755   -0.6332 N.am    1  UNL1       -0.2790
     20 C          -1.0722   -0.2597   -0.7099 C.ar    1  UNL1        0.0704
     21 C          -0.4532   -1.4736   -0.5186 C.ar    1  UNL1        0.0539
     22 N           0.8889   -1.6230   -0.7146 N.ar    1  UNL1       -0.2208
     23 C           1.6572   -0.5967   -1.1012 C.ar    1  UNL1        0.2195
     24 N           3.0108   -0.7677   -1.3919 N.pl3   1  UNL1       -0.2836
     25 C           4.0687   -0.5175   -0.5270 C.ar    1  UNL1        0.0337
     26 C           4.7711    0.6666   -0.6570 C.ar    1  UNL1       -0.0387
     27 C           5.8752    0.9017    0.1361 C.ar    1  UNL1       -0.0389
     28 C           6.3341    0.0003    1.0798 C.ar    1  UNL1        0.0299
     29 N           7.4602    0.2095    1.8912 N.pl3   1  UNL1       -0.3275
     30 C           8.1433   -0.9182    2.4679 C.3     1  UNL1        0.0250
     31 C           9.6472   -0.6818    2.4014 C.3     1  UNL1        0.0144
     32 N           9.9458    0.3548    1.4707 N.3     1  UNL1       -0.3024
     33 C           9.7284    0.0790    0.0991 C.3     1  UNL1       -0.0126
     34 C           9.4576    1.6105    1.9442 C.3     1  UNL1        0.0144
     35 C           7.9476    1.5307    2.1730 C.3     1  UNL1        0.0250
     36 C           5.6183   -1.1773    1.1966 C.ar    1  UNL1       -0.0389
     37 C           4.5036   -1.4122    0.3953 C.ar    1  UNL1       -0.0387
     38 N           1.0646    0.5959   -1.2867 N.ar    1  UNL1       -0.2208
     39 C          -0.2660    0.7994   -1.1045 C.ar    1  UNL1        0.0539
     40 H          -3.7075   -0.2719   -4.8157 H       1  UNL1        0.0278
     41 H          -3.7851   -1.8571   -3.9740 H       1  UNL1        0.0278
     42 H          -5.0468   -1.4291   -5.1193 H       1  UNL1        0.0278
     43 H          -6.9659   -0.5651   -4.4716 H       1  UNL1        0.0621
     44 H          -8.4015    0.4394   -2.7076 H       1  UNL1        0.0636
     45 H          -7.8033    2.3673   -0.3254 H       1  UNL1        0.1551
     46 H          -8.9931    3.2867    1.5838 H       1  UNL1        0.0872
     47 H         -10.8117   -1.2352    0.8737 H       1  UNL1        0.0309
     48 H         -11.6080   -1.3417    2.4878 H       1  UNL1        0.0309
     49 H          -9.8325   -1.6243    2.3399 H       1  UNL1        0.0309
     50 H          -5.0498    0.9003   -0.1314 H       1  UNL1        0.0644
     51 H          -2.9517    0.0673    0.2625 H       1  UNL1        0.1552
     52 H          -1.0664   -2.3095   -0.2091 H       1  UNL1        0.0850
     53 H           3.1985   -1.1349   -2.3966 H       1  UNL1        0.1550
     54 H           4.4312    1.3900   -1.3846 H       1  UNL1        0.0637
     55 H           6.3916    1.8374   -0.0037 H       1  UNL1        0.0637
     56 H           7.8216   -1.1374    3.5113 H       1  UNL1        0.0476
     57 H           7.9619   -1.8734    1.8909 H       1  UNL1        0.0476
     58 H          10.1950   -1.5875    2.1228 H       1  UNL1        0.0442
     59 H           9.9260   -0.2961    3.4105 H       1  UNL1        0.0442
     60 H           9.2310    0.9379   -0.4010 H       1  UNL1        0.0391
     61 H          10.7097   -0.1507   -0.3764 H       1  UNL1        0.0391
     62 H           9.0896   -0.8220    0.0223 H       1  UNL1        0.0391
     63 H           9.7124    2.4796    1.3130 H       1  UNL1        0.0442
     64 H           9.9238    1.7743    2.9586 H       1  UNL1        0.0442
     65 H           7.7234    1.7704    3.2557 H       1  UNL1        0.0476
     66 H           7.4337    2.3413    1.6178 H       1  UNL1        0.0476
     67 H           5.9420   -1.9071    1.9186 H       1  UNL1        0.0637
     68 H           4.0084   -2.3742    0.5631 H       1  UNL1        0.0637
     69 H          -0.7192    1.7515   -1.2572 H       1  UNL1        0.0850
@<TRIPOS>BOND
     1     1     2    1
     2     2     3   ar
     3     3     4   ar
     4     4     5   ar
     5     5     6    1
     6     6     7   am
     7     7     8    2
     8     7     9    1
     9     9    10   ar
    10    10    11   ar
    11    11    12   ar
    12    12    13   ar
    13    13    14    1
    14     5    15   ar
    15    15    16   ar
    16    16    17    1
    17    17    18    2
    18    17    19   am
    19    19    20    1
    20    20    21   ar
    21    21    22   ar
    22    22    23   ar
    23    23    24    1
    24    24    25    1
    25    25    26   ar
    26    26    27   ar
    27    27    28   ar
    28    28    29    1
    29    29    30    1
    30    30    31    1
    31    31    32    1
    32    32    33    1
    33    32    34    1
    34    34    35    1
    35    28    36   ar
    36    36    37   ar
    37    23    38   ar
    38    38    39   ar
    39    16     2   ar
    40    39    20   ar
    41    13     9   ar
    42    37    25   ar
    43    35    29    1
    44     1    40    1
    45     1    41    1
    46     1    42    1
    47     3    43    1
    48     4    44    1
    49     6    45    1
    50    10    46    1
    51    14    47    1
    52    14    48    1
    53    14    49    1
    54    15    50    1
    55    19    51    1
    56    21    52    1
    57    24    53    1
    58    26    54    1
    59    27    55    1
    60    30    56    1
    61    30    57    1
    62    31    58    1
    63    31    59    1
    64    33    60    1
    65    33    61    1
    66    33    62    1
    67    34    63    1
    68    34    64    1
    69    35    65    1
    70    35    66    1
    71    36    67    1
    72    37    68    1
    73    39    69    1
