
     RDKit          3D

 69 73  0  0  0  0  0  0  0  0999 V2000
   -4.3727   -0.9939   -4.3209 C   0  0  0  0  0  0  0  0  0  0  0  0
   -5.1936   -0.3804   -3.2460 C   0  0  0  0  0  0  0  0  0  0  0  0
   -6.5373   -0.2429   -3.5120 C   0  0  0  0  0  0  0  0  0  0  0  0
   -7.3562    0.3084   -2.5615 C   0  0  0  0  0  0  0  0  0  0  0  0
   -6.8334    0.7296   -1.3258 C   0  0  0  0  0  0  0  0  0  0  0  0
   -7.7169    1.3090   -0.3915 N   0  0  0  0  0  0  0  0  0  0  0  0
   -8.5313    0.5593    0.4864 C   0  0  0  0  0  0  0  0  0  0  0  0
   -8.4333   -0.7039    0.4204 O   0  0  0  0  0  0  0  0  0  0  0  0
   -9.4693    1.1215    1.4448 C   0  0  0  0  0  0  0  0  0  0  0  0
   -9.5795    2.4267    1.8710 C   0  0  0  0  0  0  0  0  0  0  0  0
  -10.5985    2.4704    2.7642 N   0  0  0  0  0  0  0  0  0  0  0  0
  -11.1073    1.2817    2.9030 O   0  0  0  0  0  0  0  0  0  0  0  0
  -10.4726    0.4449    2.1420 C   0  0  0  0  0  0  0  0  0  0  0  0
  -10.6915   -1.0338    1.9597 C   0  0  0  0  0  0  0  0  0  0  0  0
   -5.4940    0.5843   -1.0826 C   0  0  0  0  0  0  0  0  0  0  0  0
   -4.6520    0.0356   -2.0193 C   0  0  0  0  0  0  0  0  0  0  0  0
   -3.2484   -0.1066   -1.8218 C   0  0  0  0  0  0  0  0  0  0  0  0
   -2.5071   -0.3021   -2.8795 O   0  0  0  0  0  0  0  0  0  0  0  0
   -2.4937   -0.0755   -0.6332 N   0  0  0  0  0  0  0  0  0  0  0  0
   -1.0722   -0.2597   -0.7099 C   0  0  0  0  0  0  0  0  0  0  0  0
   -0.4532   -1.4736   -0.5186 C   0  0  0  0  0  0  0  0  0  0  0  0
    0.8889   -1.6230   -0.7146 N   0  0  0  0  0  0  0  0  0  0  0  0
    1.6572   -0.5967   -1.1012 C   0  0  0  0  0  0  0  0  0  0  0  0
    3.0108   -0.7677   -1.3919 N   0  0  0  0  0  0  0  0  0  0  0  0
    4.0687   -0.5175   -0.5270 C   0  0  0  0  0  0  0  0  0  0  0  0
    4.7711    0.6666   -0.6570 C   0  0  0  0  0  0  0  0  0  0  0  0
    5.8752    0.9017    0.1361 C   0  0  0  0  0  0  0  0  0  0  0  0
    6.3341    0.0003    1.0798 C   0  0  0  0  0  0  0  0  0  0  0  0
    7.4602    0.2095    1.8912 N   0  0  0  0  0  0  0  0  0  0  0  0
    8.1433   -0.9182    2.4679 C   0  0  0  0  0  0  0  0  0  0  0  0
    9.6472   -0.6818    2.4014 C   0  0  0  0  0  0  0  0  0  0  0  0
    9.9458    0.3548    1.4707 N   0  0  0  0  0  0  0  0  0  0  0  0
    9.7284    0.0790    0.0991 C   0  0  0  0  0  0  0  0  0  0  0  0
    9.4576    1.6105    1.9442 C   0  0  0  0  0  0  0  0  0  0  0  0
    7.9476    1.5307    2.1730 C   0  0  0  0  0  0  0  0  0  0  0  0
    5.6183   -1.1773    1.1966 C   0  0  0  0  0  0  0  0  0  0  0  0
    4.5036   -1.4122    0.3953 C   0  0  0  0  0  0  0  0  0  0  0  0
    1.0646    0.5959   -1.2867 N   0  0  0  0  0  0  0  0  0  0  0  0
   -0.2660    0.7994   -1.1045 C   0  0  0  0  0  0  0  0  0  0  0  0
   -3.7075   -0.2719   -4.8157 H   0  0  0  0  0  0  0  0  0  0  0  0
   -3.7851   -1.8571   -3.9740 H   0  0  0  0  0  0  0  0  0  0  0  0
   -5.0468   -1.4291   -5.1193 H   0  0  0  0  0  0  0  0  0  0  0  0
   -6.9659   -0.5651   -4.4716 H   0  0  0  0  0  0  0  0  0  0  0  0
   -8.4015    0.4394   -2.7076 H   0  0  0  0  0  0  0  0  0  0  0  0
   -7.8033    2.3673   -0.3254 H   0  0  0  0  0  0  0  0  0  0  0  0
   -8.9931    3.2867    1.5838 H   0  0  0  0  0  0  0  0  0  0  0  0
  -10.8117   -1.2352    0.8737 H   0  0  0  0  0  0  0  0  0  0  0  0
  -11.6080   -1.3417    2.4878 H   0  0  0  0  0  0  0  0  0  0  0  0
   -9.8325   -1.6243    2.3399 H   0  0  0  0  0  0  0  0  0  0  0  0
   -5.0498    0.9003   -0.1314 H   0  0  0  0  0  0  0  0  0  0  0  0
   -2.9517    0.0673    0.2625 H   0  0  0  0  0  0  0  0  0  0  0  0
   -1.0664   -2.3095   -0.2091 H   0  0  0  0  0  0  0  0  0  0  0  0
    3.1985   -1.1349   -2.3966 H   0  0  0  0  0  0  0  0  0  0  0  0
    4.4312    1.3900   -1.3846 H   0  0  0  0  0  0  0  0  0  0  0  0
    6.3916    1.8374   -0.0037 H   0  0  0  0  0  0  0  0  0  0  0  0
    7.8216   -1.1374    3.5113 H   0  0  0  0  0  0  0  0  0  0  0  0
    7.9619   -1.8734    1.8909 H   0  0  0  0  0  0  0  0  0  0  0  0
   10.1950   -1.5875    2.1228 H   0  0  0  0  0  0  0  0  0  0  0  0
    9.9260   -0.2961    3.4105 H   0  0  0  0  0  0  0  0  0  0  0  0
    9.2310    0.9379   -0.4010 H   0  0  0  0  0  0  0  0  0  0  0  0
   10.7097   -0.1507   -0.3764 H   0  0  0  0  0  0  0  0  0  0  0  0
    9.0896   -0.8220    0.0223 H   0  0  0  0  0  0  0  0  0  0  0  0
    9.7124    2.4796    1.3130 H   0  0  0  0  0  0  0  0  0  0  0  0
    9.9238    1.7743    2.9586 H   0  0  0  0  0  0  0  0  0  0  0  0
    7.7234    1.7704    3.2557 H   0  0  0  0  0  0  0  0  0  0  0  0
    7.4337    2.3413    1.6178 H   0  0  0  0  0  0  0  0  0  0  0  0
    5.9420   -1.9071    1.9186 H   0  0  0  0  0  0  0  0  0  0  0  0
    4.0084   -2.3742    0.5631 H   0  0  0  0  0  0  0  0  0  0  0  0
   -0.7192    1.7515   -1.2572 H   0  0  0  0  0  0  0  0  0  0  0  0
  1  2  1  0
  2  3  2  0
  3  4  1  0
  4  5  2  0
  5  6  1  0
  6  7  1  0
  7  8  2  0
  7  9  1  0
  9 10  1  0
 10 11  2  0
 11 12  1  0
 12 13  1  0
 13 14  1  0
  5 15  1  0
 15 16  2  0
 16 17  1  0
 17 18  2  0
 17 19  1  0
 19 20  1  0
 20 21  2  0
 21 22  1  0
 22 23  2  0
 23 24  1  0
 24 25  1  0
 25 26  2  0
 26 27  1  0
 27 28  2  0
 28 29  1  0
 29 30  1  0
 30 31  1  0
 31 32  1  0
 32 33  1  0
 32 34  1  0
 34 35  1  0
 28 36  1  0
 36 37  2  0
 23 38  1  0
 38 39  2  0
 16  2  1  0
 39 20  1  0
 13  9  2  0
 37 25  1  0
 35 29  1  0
  1 40  1  0
  1 41  1  0
  1 42  1  0
  3 43  1  0
  4 44  1  0
  6 45  1  0
 10 46  1  0
 14 47  1  0
 14 48  1  0
 14 49  1  0
 15 50  1  0
 19 51  1  0
 21 52  1  0
 24 53  1  0
 26 54  1  0
 27 55  1  0
 30 56  1  0
 30 57  1  0
 31 58  1  0
 31 59  1  0
 33 60  1  0
 33 61  1  0
 33 62  1  0
 34 63  1  0
 34 64  1  0
 35 65  1  0
 35 66  1  0
 36 67  1  0
 37 68  1  0
 39 69  1  0
M  END
$$$$
