@<TRIPOS>MOLECULE
*****
 42 45 0 0 0
SMALL
GASTEIGER

@<TRIPOS>ATOM
      1 C           4.6927   -1.7069   -0.0041 C.3     1  UNL1       -0.0125
      2 N           3.2838   -1.3269    0.0850 N.3     1  UNL1       -0.2982
      3 C           2.8801   -0.6480   -1.0834 C.3     1  UNL1        0.0348
      4 C           1.8763    0.4251   -0.9581 C.3     1  UNL1        0.0933
      5 N           1.0902    0.2463    0.2411 N.pl3   1  UNL1       -0.2175
      6 C           1.9641    0.2858    1.4140 C.3     1  UNL1        0.0933
      7 C           3.0596   -0.7259    1.3385 C.3     1  UNL1        0.0348
      8 C          -0.3154    0.0695    0.1347 C.2     1  UNL1        0.3236
      9 N          -0.7245   -1.1308    0.0173 N.2     1  UNL1       -0.0395
     10 C          -2.0104   -1.6652   -0.1080 C.ar    1  UNL1        0.1974
     11 C          -2.0567   -3.0084   -0.4785 C.ar    1  UNL1       -0.0090
     12 C          -3.2756   -3.6762   -0.6396 C.ar    1  UNL1       -0.0575
     13 C          -4.4908   -3.0145   -0.4330 C.ar    1  UNL1       -0.0597
     14 C          -4.4755   -1.6689   -0.0612 C.ar    1  UNL1       -0.0363
     15 C          -3.2361   -1.0762    0.0786 C.ar    1  UNL1        0.0831
     16 N          -3.4967    0.2567    0.4505 N.pl3   1  UNL1       -0.3050
     17 C          -2.4869    1.3478    0.3275 C.ar    1  UNL1        0.0850
     18 C          -1.0342    1.3215    0.1810 C.ar    1  UNL1        0.0942
     19 C          -0.4918    2.5472    0.1003 C.ar    1  UNL1       -0.0350
     20 C          -1.2646    3.7039    0.1543 C.ar    1  UNL1       -0.0107
     21 C          -0.8806    5.1070    0.0861 C.3     1  UNL1       -0.0333
     22 S          -2.9369    3.1543    0.3351 S.2     1  UNL1       -0.0779
     23 H           4.7900   -2.6652    0.5712 H       1  UNL1        0.0391
     24 H           5.3596   -0.9565    0.4381 H       1  UNL1        0.0391
     25 H           4.9477   -1.8385   -1.0726 H       1  UNL1        0.0391
     26 H           2.5125   -1.4029   -1.8137 H       1  UNL1        0.0463
     27 H           3.7957   -0.2247   -1.5749 H       1  UNL1        0.0463
     28 H           2.4206    1.4081   -0.8494 H       1  UNL1        0.0739
     29 H           1.2695    0.4992   -1.8679 H       1  UNL1        0.0739
     30 H           2.3989    1.3064    1.4157 H       1  UNL1        0.0739
     31 H           1.3367    0.1976    2.3103 H       1  UNL1        0.0739
     32 H           3.9995   -0.3031    1.7556 H       1  UNL1        0.0463
     33 H           2.7845   -1.5428    2.0538 H       1  UNL1        0.0463
     34 H          -1.1170   -3.5335   -0.6420 H       1  UNL1        0.0661
     35 H          -3.3215   -4.7176   -0.9267 H       1  UNL1        0.0619
     36 H          -5.3985   -3.5678   -0.5683 H       1  UNL1        0.0618
     37 H          -5.4025   -1.1384    0.1039 H       1  UNL1        0.0637
     38 H          -4.3716    0.6340    0.8334 H       1  UNL1        0.1528
     39 H           0.5710    2.6870   -0.0105 H       1  UNL1        0.0635
     40 H          -1.4354    5.6731    0.8638 H       1  UNL1        0.0283
     41 H           0.2309    5.1557    0.2720 H       1  UNL1        0.0283
     42 H          -1.0408    5.5126   -0.9220 H       1  UNL1        0.0283
@<TRIPOS>BOND
     1     1     2    1
     2     2     3    1
     3     3     4    1
     4     4     5    1
     5     5     6    1
     6     6     7    1
     7     5     8    1
     8     8     9    2
     9     9    10    1
    10    10    11   ar
    11    11    12   ar
    12    12    13   ar
    13    13    14   ar
    14    14    15   ar
    15    15    16    1
    16    16    17    1
    17    17    18   ar
    18    18    19   ar
    19    19    20   ar
    20    20    21    1
    21    20    22   ar
    22     7     2    1
    23    18     8    1
    24    15    10   ar
    25    22    17   ar
    26     1    23    1
    27     1    24    1
    28     1    25    1
    29     3    26    1
    30     3    27    1
    31     4    28    1
    32     4    29    1
    33     6    30    1
    34     6    31    1
    35     7    32    1
    36     7    33    1
    37    11    34    1
    38    12    35    1
    39    13    36    1
    40    14    37    1
    41    16    38    1
    42    19    39    1
    43    21    40    1
    44    21    41    1
    45    21    42    1
