@<TRIPOS>MOLECULE
*****
 36 37 0 0 0
SMALL
GASTEIGER

@<TRIPOS>ATOM
      1 O           5.2755   -0.3024    1.6408 O.2     1  UNL1       -0.2737
      2 C           5.0321    0.4546    0.6646 C.2     1  UNL1        0.2354
      3 C           4.1430    0.0585   -0.4595 C.3     1  UNL1        0.0263
      4 C           3.6469   -1.3220   -0.1908 C.3     1  UNL1       -0.0393
      5 C           2.7279   -1.8491   -1.2617 C.3     1  UNL1       -0.0094
      6 C           1.5135   -0.9984   -1.4223 C.ar    1  UNL1        0.0491
      7 C           1.5428    0.0785   -2.3379 C.ar    1  UNL1       -0.0010
      8 S          -0.1415    0.7423   -2.1270 S.2     1  UNL1       -0.0760
      9 C          -0.6104   -0.4971   -0.8750 C.ar    1  UNL1        0.1014
     10 C          -1.9393   -0.5260   -0.2455 C.2     1  UNL1       -0.0290
     11 C          -2.8832    0.3223   -0.5263 C.2     1  UNL1       -0.0521
     12 C          -4.2030    0.3436    0.0570 C.ar    1  UNL1       -0.0249
     13 C          -5.1173    1.3196   -0.3442 C.ar    1  UNL1       -0.0546
     14 C          -6.3830    1.3660    0.1934 C.ar    1  UNL1       -0.0612
     15 C          -6.7473    0.4320    1.1418 C.ar    1  UNL1       -0.0617
     16 C          -5.8538   -0.5368    1.5465 C.ar    1  UNL1       -0.0612
     17 C          -4.5679   -0.5894    1.0048 C.ar    1  UNL1       -0.0546
     18 N           0.4057   -1.1549   -0.7866 N.ar    1  UNL1       -0.2446
     19 N           5.6464    1.7393    0.6600 N.am    1  UNL1       -0.1975
     20 O           6.4666    2.1558    1.6575 O.3     1  UNL1       -0.2952
     21 H           3.3212    0.7930   -0.5730 H       1  UNL1        0.0359
     22 H           4.7920    0.0245   -1.3714 H       1  UNL1        0.0359
     23 H           3.2201   -1.3776    0.8075 H       1  UNL1        0.0273
     24 H           4.5420   -2.0005   -0.1932 H       1  UNL1        0.0273
     25 H           2.4492   -2.8938   -0.9452 H       1  UNL1        0.0328
     26 H           3.2508   -1.9566   -2.2311 H       1  UNL1        0.0328
     27 H           2.2682    0.4287   -2.9617 H       1  UNL1        0.0712
     28 H          -2.0925   -1.2894    0.4639 H       1  UNL1        0.0644
     29 H          -2.6403    1.0828   -1.2741 H       1  UNL1        0.0624
     30 H          -4.7912    2.0439   -1.0995 H       1  UNL1        0.0623
     31 H          -7.0990    2.1322   -0.1223 H       1  UNL1        0.0618
     32 H          -7.7622    0.4956    1.5507 H       1  UNL1        0.0618
     33 H          -6.1751   -1.2573    2.2963 H       1  UNL1        0.0618
     34 H          -3.8895   -1.3601    1.3415 H       1  UNL1        0.0623
     35 H           5.4894    2.4242   -0.1215 H       1  UNL1        0.1822
     36 H           7.1632    1.4736    1.8415 H       1  UNL1        0.2414
@<TRIPOS>BOND
     1     1     2    2
     2     2     3    1
     3     3     4    1
     4     4     5    1
     5     5     6    1
     6     6     7   ar
     7     7     8   ar
     8     8     9   ar
     9     9    10    1
    10    10    11    2
    11    11    12    1
    12    12    13   ar
    13    13    14   ar
    14    14    15   ar
    15    15    16   ar
    16    16    17   ar
    17     9    18   ar
    18     2    19   am
    19    19    20    1
    20    18     6   ar
    21    17    12   ar
    22     3    21    1
    23     3    22    1
    24     4    23    1
    25     4    24    1
    26     5    25    1
    27     5    26    1
    28     7    27    1
    29    10    28    1
    30    11    29    1
    31    13    30    1
    32    14    31    1
    33    15    32    1
    34    16    33    1
    35    17    34    1
    36    19    35    1
    37    20    36    1
