@<TRIPOS>MOLECULE
*****
 44 45 0 0 0
SMALL
GASTEIGER

@<TRIPOS>ATOM
      1 C           5.4915    3.8893    0.2826 C.3     1  UNL1       -0.0026
      2 C           4.8665    2.6410   -0.0733 C.1     1  UNL1       -0.1050
      3 C           4.2512    1.4639   -0.4111 C.1     1  UNL1       -0.0938
      4 C           3.6156    0.2657   -0.7702 C.3     1  UNL1        0.0583
      5 C           4.1169   -0.8382    0.2241 C.3     1  UNL1        0.0625
      6 C           5.5583   -0.9532    0.3248 C.2     1  UNL1        0.3062
      7 O           6.2930   -0.1082   -0.2978 O.2     1  UNL1       -0.2510
      8 O           6.1788   -1.9224    1.0535 O.3     1  UNL1       -0.4806
      9 C           2.1531    0.4155   -0.3623 C.ar    1  UNL1        0.0034
     10 C           1.5552   -0.7274    0.1968 C.ar    1  UNL1       -0.0512
     11 C           0.2137   -0.5646    0.6477 C.ar    1  UNL1       -0.0189
     12 C          -0.4903    0.5352    0.5812 C.ar    1  UNL1        0.1314
     13 O          -1.7485    0.7375    1.0015 O.3     1  UNL1       -0.4523
     14 C          -2.9791    0.3581    0.5240 C.ar    1  UNL1        0.1701
     15 C          -3.8562    1.3884    0.0684 C.ar    1  UNL1       -0.0151
     16 C          -5.1145    0.9208   -0.3940 C.ar    1  UNL1       -0.0464
     17 C          -5.5077   -0.3136   -0.4375 C.ar    1  UNL1        0.0585
     18 C          -6.8628   -0.8275   -0.9077 C.3     1  UNL1        0.4175
     19 F          -7.2991    0.0701   -1.8659 F       1  UNL1       -0.1659
     20 F          -7.7334   -0.9274    0.1664 F       1  UNL1       -0.1659
     21 F          -6.6766   -2.0478   -1.5247 F       1  UNL1       -0.1659
     22 C          -4.6549   -1.3462    0.0037 C.ar    1  UNL1       -0.0044
     23 C          -3.3991   -0.9165    0.4726 C.ar    1  UNL1        0.1694
     24 O          -2.5821   -1.9618    0.9082 O.3     1  UNL1       -0.4305
     25 C          -2.8348   -3.2932    0.9927 C.3     1  UNL1        0.3894
     26 F          -2.2171   -3.9475    2.0778 F       1  UNL1       -0.1663
     27 F          -2.3036   -3.9247   -0.1580 F       1  UNL1       -0.1663
     28 C           0.1403    1.7141   -0.0054 C.ar    1  UNL1        0.0162
     29 C           1.4415    1.5334   -0.4312 C.ar    1  UNL1        0.1312
     30 F           2.0647    2.6606   -0.9637 F       1  UNL1       -0.2050
     31 H           6.5516    3.6753    0.6559 H       1  UNL1        0.0362
     32 H           5.7457    4.4180   -0.7158 H       1  UNL1        0.0362
     33 H           4.8798    4.4441    0.9409 H       1  UNL1        0.0362
     34 H           3.6624   -0.0298   -1.7853 H       1  UNL1        0.0488
     35 H           3.7001   -1.8021   -0.2281 H       1  UNL1        0.0393
     36 H           3.6633   -0.6959    1.2107 H       1  UNL1        0.0393
     37 H           6.9743   -1.6742    1.6915 H       1  UNL1        0.2951
     38 H           2.0173   -1.6446    0.2987 H       1  UNL1        0.0623
     39 H          -0.2000   -1.5094    1.1066 H       1  UNL1        0.0654
     40 H          -3.6374    2.4167    0.0449 H       1  UNL1        0.0656
     41 H          -5.8091    1.7371   -0.7498 H       1  UNL1        0.0624
     42 H          -4.9315   -2.3587   -0.0219 H       1  UNL1        0.0661
     43 H          -3.9185   -3.5651    1.0619 H       1  UNL1        0.1520
     44 H          -0.3785    2.6153   -0.0903 H       1  UNL1        0.0683
@<TRIPOS>BOND
     1     1     2    1
     2     2     3    3
     3     3     4    1
     4     4     5    1
     5     5     6    1
     6     6     7    2
     7     6     8    1
     8     4     9    1
     9     9    10   ar
    10    10    11   ar
    11    11    12   ar
    12    12    13    1
    13    13    14    1
    14    14    15   ar
    15    15    16   ar
    16    16    17   ar
    17    17    18    1
    18    18    19    1
    19    18    20    1
    20    18    21    1
    21    17    22   ar
    22    22    23   ar
    23    23    24    1
    24    24    25    1
    25    25    26    1
    26    25    27    1
    27    12    28   ar
    28    28    29   ar
    29    29    30    1
    30    29     9   ar
    31    23    14   ar
    32     1    31    1
    33     1    32    1
    34     1    33    1
    35     4    34    1
    36     5    35    1
    37     5    36    1
    38     8    37    1
    39    10    38    1
    40    11    39    1
    41    15    40    1
    42    16    41    1
    43    22    42    1
    44    25    43    1
    45    28    44    1
