
     RDKit          3D

 44 45  0  0  0  0  0  0  0  0999 V2000
    5.4915    3.8893    0.2826 C   0  0  0  0  0  0  0  0  0  0  0  0
    4.8665    2.6410   -0.0733 C   0  0  0  0  0  0  0  0  0  0  0  0
    4.2512    1.4639   -0.4111 C   0  0  0  0  0  0  0  0  0  0  0  0
    3.6156    0.2657   -0.7702 C   0  0  0  0  0  0  0  0  0  0  0  0
    4.1169   -0.8382    0.2241 C   0  0  0  0  0  0  0  0  0  0  0  0
    5.5583   -0.9532    0.3248 C   0  0  0  0  0  0  0  0  0  0  0  0
    6.2930   -0.1082   -0.2978 O   0  0  0  0  0  0  0  0  0  0  0  0
    6.1788   -1.9224    1.0535 O   0  0  0  0  0  0  0  0  0  0  0  0
    2.1531    0.4155   -0.3623 C   0  0  0  0  0  0  0  0  0  0  0  0
    1.5552   -0.7274    0.1968 C   0  0  0  0  0  0  0  0  0  0  0  0
    0.2137   -0.5646    0.6477 C   0  0  0  0  0  0  0  0  0  0  0  0
   -0.4903    0.5352    0.5812 C   0  0  0  0  0  0  0  0  0  0  0  0
   -1.7485    0.7375    1.0015 O   0  0  0  0  0  0  0  0  0  0  0  0
   -2.9791    0.3581    0.5240 C   0  0  0  0  0  0  0  0  0  0  0  0
   -3.8562    1.3884    0.0684 C   0  0  0  0  0  0  0  0  0  0  0  0
   -5.1145    0.9208   -0.3940 C   0  0  0  0  0  0  0  0  0  0  0  0
   -5.5077   -0.3136   -0.4375 C   0  0  0  0  0  0  0  0  0  0  0  0
   -6.8628   -0.8275   -0.9077 C   0  0  0  0  0  0  0  0  0  0  0  0
   -7.2991    0.0701   -1.8659 F   0  0  0  0  0  0  0  0  0  0  0  0
   -7.7334   -0.9274    0.1664 F   0  0  0  0  0  0  0  0  0  0  0  0
   -6.6766   -2.0478   -1.5247 F   0  0  0  0  0  0  0  0  0  0  0  0
   -4.6549   -1.3462    0.0037 C   0  0  0  0  0  0  0  0  0  0  0  0
   -3.3991   -0.9165    0.4726 C   0  0  0  0  0  0  0  0  0  0  0  0
   -2.5821   -1.9618    0.9082 O   0  0  0  0  0  0  0  0  0  0  0  0
   -2.8348   -3.2932    0.9927 C   0  0  0  0  0  0  0  0  0  0  0  0
   -2.2171   -3.9475    2.0778 F   0  0  0  0  0  0  0  0  0  0  0  0
   -2.3036   -3.9247   -0.1580 F   0  0  0  0  0  0  0  0  0  0  0  0
    0.1403    1.7141   -0.0054 C   0  0  0  0  0  0  0  0  0  0  0  0
    1.4415    1.5334   -0.4312 C   0  0  0  0  0  0  0  0  0  0  0  0
    2.0647    2.6606   -0.9637 F   0  0  0  0  0  0  0  0  0  0  0  0
    6.5516    3.6753    0.6559 H   0  0  0  0  0  0  0  0  0  0  0  0
    5.7457    4.4180   -0.7158 H   0  0  0  0  0  0  0  0  0  0  0  0
    4.8798    4.4441    0.9409 H   0  0  0  0  0  0  0  0  0  0  0  0
    3.6624   -0.0298   -1.7853 H   0  0  0  0  0  0  0  0  0  0  0  0
    3.7001   -1.8021   -0.2281 H   0  0  0  0  0  0  0  0  0  0  0  0
    3.6633   -0.6959    1.2107 H   0  0  0  0  0  0  0  0  0  0  0  0
    6.9743   -1.6742    1.6915 H   0  0  0  0  0  0  0  0  0  0  0  0
    2.0173   -1.6446    0.2987 H   0  0  0  0  0  0  0  0  0  0  0  0
   -0.2000   -1.5094    1.1066 H   0  0  0  0  0  0  0  0  0  0  0  0
   -3.6374    2.4167    0.0449 H   0  0  0  0  0  0  0  0  0  0  0  0
   -5.8091    1.7371   -0.7498 H   0  0  0  0  0  0  0  0  0  0  0  0
   -4.9315   -2.3587   -0.0219 H   0  0  0  0  0  0  0  0  0  0  0  0
   -3.9185   -3.5651    1.0619 H   0  0  0  0  0  0  0  0  0  0  0  0
   -0.3785    2.6153   -0.0903 H   0  0  0  0  0  0  0  0  0  0  0  0
  1  2  1  0
  2  3  3  0
  3  4  1  0
  4  5  1  0
  5  6  1  0
  6  7  2  0
  6  8  1  0
  4  9  1  0
  9 10  2  0
 10 11  1  0
 11 12  2  0
 12 13  1  0
 13 14  1  0
 14 15  2  0
 15 16  1  0
 16 17  2  0
 17 18  1  0
 18 19  1  0
 18 20  1  0
 18 21  1  0
 17 22  1  0
 22 23  2  0
 23 24  1  0
 24 25  1  0
 25 26  1  0
 25 27  1  0
 12 28  1  0
 28 29  2  0
 29 30  1  0
 29  9  1  0
 23 14  1  0
  1 31  1  0
  1 32  1  0
  1 33  1  0
  4 34  1  0
  5 35  1  0
  5 36  1  0
  8 37  1  0
 10 38  1  0
 11 39  1  0
 15 40  1  0
 16 41  1  0
 22 42  1  0
 25 43  1  0
 28 44  1  0
M  END
$$$$
