@<TRIPOS>MOLECULE
*****
 47 50 0 0 0
SMALL
GASTEIGER

@<TRIPOS>ATOM
      1 O           6.4093   -1.9640    0.3045 O.3     1  UNL1       -0.5060
      2 C           5.9918   -0.6288    0.0942 C.ar    1  UNL1        0.1297
      3 C           7.0762    0.2249    0.0901 C.ar    1  UNL1        0.0234
      4 C           6.8932    1.5730   -0.0979 C.ar    1  UNL1        0.1386
      5 O           7.9522    2.4517   -0.1082 O.3     1  UNL1       -0.5052
      6 C           5.6050    2.0221   -0.2779 C.ar    1  UNL1        0.0831
      7 CL          5.3192    3.7214   -0.5224 Cl      1  UNL1       -0.0797
      8 C           4.5902    1.0982   -0.2582 C.ar    1  UNL1       -0.0270
      9 C           4.6725   -0.2530   -0.0797 C.ar    1  UNL1        0.0472
     10 C           3.6701   -1.2824   -0.0609 C.ar    1  UNL1        0.1246
     11 N           4.0164   -2.5701    0.0972 N.ar    1  UNL1       -0.0769
     12 O           2.9746   -3.3058    0.0777 O.2     1  UNL1       -0.3541
     13 C           1.8770   -2.6419   -0.0845 C.ar    1  UNL1        0.1680
     14 C           2.3280   -1.3470   -0.1724 C.ar    1  UNL1        0.0508
     15 C           1.4248   -0.3383   -0.3497 C.ar    1  UNL1       -0.0279
     16 C           0.0838   -0.5534   -0.4462 C.ar    1  UNL1        0.0280
     17 N          -0.8492    0.4887   -0.6399 N.pl3   1  UNL1       -0.3426
     18 C          -2.2711    0.4988   -0.7426 C.3     1  UNL1        0.0219
     19 C          -3.0133    0.1484    0.5226 C.3     1  UNL1        0.0145
     20 N          -4.4166    0.1975    0.2397 N.3     1  UNL1       -0.2965
     21 C          -4.8813    1.5146   -0.0023 C.3     1  UNL1        0.0225
     22 C          -6.4172    1.4758   -0.0148 C.3     1  UNL1        0.0604
     23 O          -6.8399    1.1441    1.2474 O.3     1  UNL1       -0.3772
     24 C          -6.3951   -0.0635    1.7096 C.3     1  UNL1        0.0604
     25 C          -5.2467   -0.6736    0.9922 C.3     1  UNL1        0.0225
     26 C          -0.3366   -1.8780   -0.3549 C.ar    1  UNL1       -0.0373
     27 C           0.5457   -2.9177   -0.1753 C.ar    1  UNL1       -0.0143
     28 H           6.5984   -2.2163    1.2863 H       1  UNL1        0.2922
     29 H           8.0978   -0.0870    0.2269 H       1  UNL1        0.0691
     30 H           7.9374    3.3628   -0.5470 H       1  UNL1        0.2922
     31 H           3.6311    1.5415   -0.4086 H       1  UNL1        0.0641
     32 H           1.7100    0.6798   -0.4211 H       1  UNL1        0.0644
     33 H          -0.4321    1.4643   -0.7280 H       1  UNL1        0.1461
     34 H          -2.5732   -0.2890   -1.4845 H       1  UNL1        0.0474
     35 H          -2.6520    1.4417   -1.1708 H       1  UNL1        0.0474
     36 H          -2.7116   -0.8356    0.8743 H       1  UNL1        0.0442
     37 H          -2.8205    0.9005    1.3294 H       1  UNL1        0.0442
     38 H          -4.5977    1.9466   -0.9874 H       1  UNL1        0.0449
     39 H          -4.6028    2.2362    0.8140 H       1  UNL1        0.0449
     40 H          -6.7135    2.5356   -0.2153 H       1  UNL1        0.0572
     41 H          -6.7915    0.7837   -0.7753 H       1  UNL1        0.0572
     42 H          -7.2755   -0.7687    1.6389 H       1  UNL1        0.0572
     43 H          -6.2142   -0.0013    2.8223 H       1  UNL1        0.0572
     44 H          -4.5911   -1.1657    1.7594 H       1  UNL1        0.0449
     45 H          -5.6439   -1.5166    0.3489 H       1  UNL1        0.0449
     46 H          -1.3567   -2.1909   -0.4264 H       1  UNL1        0.0637
     47 H           0.2384   -3.9632   -0.1008 H       1  UNL1        0.0656
@<TRIPOS>BOND
     1     1     2    1
     2     2     3   ar
     3     3     4   ar
     4     4     5    1
     5     4     6   ar
     6     6     7    1
     7     6     8   ar
     8     8     9   ar
     9     9    10    1
    10    10    11   ar
    11    11    12   ar
    12    12    13   ar
    13    13    14   ar
    14    14    15   ar
    15    15    16   ar
    16    16    17    1
    17    17    18    1
    18    18    19    1
    19    19    20    1
    20    20    21    1
    21    21    22    1
    22    22    23    1
    23    23    24    1
    24    24    25    1
    25    16    26   ar
    26    26    27   ar
    27     9     2   ar
    28    14    10   ar
    29    25    20    1
    30    27    13   ar
    31     1    28    1
    32     3    29    1
    33     5    30    1
    34     8    31    1
    35    15    32    1
    36    17    33    1
    37    18    34    1
    38    18    35    1
    39    19    36    1
    40    19    37    1
    41    21    38    1
    42    21    39    1
    43    22    40    1
    44    22    41    1
    45    24    42    1
    46    24    43    1
    47    25    44    1
    48    25    45    1
    49    26    46    1
    50    27    47    1
