
     RDKit          3D

 47 50  0  0  0  0  0  0  0  0999 V2000
    6.4093   -1.9640    0.3045 O   0  0  0  0  0  0  0  0  0  0  0  0
    5.9918   -0.6288    0.0942 C   0  0  0  0  0  0  0  0  0  0  0  0
    7.0762    0.2249    0.0901 C   0  0  0  0  0  0  0  0  0  0  0  0
    6.8932    1.5730   -0.0979 C   0  0  0  0  0  0  0  0  0  0  0  0
    7.9522    2.4517   -0.1082 O   0  0  0  0  0  0  0  0  0  0  0  0
    5.6050    2.0221   -0.2779 C   0  0  0  0  0  0  0  0  0  0  0  0
    5.3192    3.7214   -0.5224 Cl  0  0  0  0  0  0  0  0  0  0  0  0
    4.5902    1.0982   -0.2582 C   0  0  0  0  0  0  0  0  0  0  0  0
    4.6725   -0.2530   -0.0797 C   0  0  0  0  0  0  0  0  0  0  0  0
    3.6701   -1.2824   -0.0609 C   0  0  0  0  0  0  0  0  0  0  0  0
    4.0164   -2.5701    0.0972 N   0  0  0  0  0  0  0  0  0  0  0  0
    2.9746   -3.3058    0.0777 O   0  0  0  0  0  0  0  0  0  0  0  0
    1.8770   -2.6419   -0.0845 C   0  0  0  0  0  0  0  0  0  0  0  0
    2.3280   -1.3470   -0.1724 C   0  0  0  0  0  0  0  0  0  0  0  0
    1.4248   -0.3383   -0.3497 C   0  0  0  0  0  0  0  0  0  0  0  0
    0.0838   -0.5534   -0.4462 C   0  0  0  0  0  0  0  0  0  0  0  0
   -0.8492    0.4887   -0.6399 N   0  0  0  0  0  0  0  0  0  0  0  0
   -2.2711    0.4988   -0.7426 C   0  0  0  0  0  0  0  0  0  0  0  0
   -3.0133    0.1484    0.5226 C   0  0  0  0  0  0  0  0  0  0  0  0
   -4.4166    0.1975    0.2397 N   0  0  0  0  0  0  0  0  0  0  0  0
   -4.8813    1.5146   -0.0023 C   0  0  0  0  0  0  0  0  0  0  0  0
   -6.4172    1.4758   -0.0148 C   0  0  0  0  0  0  0  0  0  0  0  0
   -6.8399    1.1441    1.2474 O   0  0  0  0  0  0  0  0  0  0  0  0
   -6.3951   -0.0635    1.7096 C   0  0  0  0  0  0  0  0  0  0  0  0
   -5.2467   -0.6736    0.9922 C   0  0  0  0  0  0  0  0  0  0  0  0
   -0.3366   -1.8780   -0.3549 C   0  0  0  0  0  0  0  0  0  0  0  0
    0.5457   -2.9177   -0.1753 C   0  0  0  0  0  0  0  0  0  0  0  0
    6.5984   -2.2163    1.2863 H   0  0  0  0  0  0  0  0  0  0  0  0
    8.0978   -0.0870    0.2269 H   0  0  0  0  0  0  0  0  0  0  0  0
    7.9374    3.3628   -0.5470 H   0  0  0  0  0  0  0  0  0  0  0  0
    3.6311    1.5415   -0.4086 H   0  0  0  0  0  0  0  0  0  0  0  0
    1.7100    0.6798   -0.4211 H   0  0  0  0  0  0  0  0  0  0  0  0
   -0.4321    1.4643   -0.7280 H   0  0  0  0  0  0  0  0  0  0  0  0
   -2.5732   -0.2890   -1.4845 H   0  0  0  0  0  0  0  0  0  0  0  0
   -2.6520    1.4417   -1.1708 H   0  0  0  0  0  0  0  0  0  0  0  0
   -2.7116   -0.8356    0.8743 H   0  0  0  0  0  0  0  0  0  0  0  0
   -2.8205    0.9005    1.3294 H   0  0  0  0  0  0  0  0  0  0  0  0
   -4.5977    1.9466   -0.9874 H   0  0  0  0  0  0  0  0  0  0  0  0
   -4.6028    2.2362    0.8140 H   0  0  0  0  0  0  0  0  0  0  0  0
   -6.7135    2.5356   -0.2153 H   0  0  0  0  0  0  0  0  0  0  0  0
   -6.7915    0.7837   -0.7753 H   0  0  0  0  0  0  0  0  0  0  0  0
   -7.2755   -0.7687    1.6389 H   0  0  0  0  0  0  0  0  0  0  0  0
   -6.2142   -0.0013    2.8223 H   0  0  0  0  0  0  0  0  0  0  0  0
   -4.5911   -1.1657    1.7594 H   0  0  0  0  0  0  0  0  0  0  0  0
   -5.6439   -1.5166    0.3489 H   0  0  0  0  0  0  0  0  0  0  0  0
   -1.3567   -2.1909   -0.4264 H   0  0  0  0  0  0  0  0  0  0  0  0
    0.2384   -3.9632   -0.1008 H   0  0  0  0  0  0  0  0  0  0  0  0
  1  2  1  0
  2  3  2  0
  3  4  1  0
  4  5  1  0
  4  6  2  0
  6  7  1  0
  6  8  1  0
  8  9  2  0
  9 10  1  0
 10 11  2  0
 11 12  1  0
 12 13  1  0
 13 14  2  0
 14 15  1  0
 15 16  2  0
 16 17  1  0
 17 18  1  0
 18 19  1  0
 19 20  1  0
 20 21  1  0
 21 22  1  0
 22 23  1  0
 23 24  1  0
 24 25  1  0
 16 26  1  0
 26 27  2  0
  9  2  1  0
 14 10  1  0
 25 20  1  0
 27 13  1  0
  1 28  1  0
  3 29  1  0
  5 30  1  0
  8 31  1  0
 15 32  1  0
 17 33  1  0
 18 34  1  0
 18 35  1  0
 19 36  1  0
 19 37  1  0
 21 38  1  0
 21 39  1  0
 22 40  1  0
 22 41  1  0
 24 42  1  0
 24 43  1  0
 25 44  1  0
 25 45  1  0
 26 46  1  0
 27 47  1  0
M  END
$$$$
