
     RDKit          3D

 37 40  0  0  0  0  0  0  0  0999 V2000
    3.0883    0.2768   -3.2761 O   0  0  0  0  0  0  0  0  0  0  0  0
    3.6348    0.3277   -2.1440 C   0  0  0  0  0  0  0  0  0  0  0  0
    5.0426    0.4701   -1.9958 N   0  0  0  0  0  0  0  0  0  0  0  0
    5.5294    1.0945   -0.7821 C   0  0  0  0  0  0  0  0  0  0  0  0
    4.9238    0.4474    0.4267 C   0  0  0  0  0  0  0  0  0  0  0  0
    3.4485    0.2984    0.3089 C   0  0  0  0  0  0  0  0  0  0  0  0
    2.4722    0.1956    1.2334 N   0  0  0  0  0  0  0  0  0  0  0  0
    1.2777    0.0767    0.6756 C   0  0  0  0  0  0  0  0  0  0  0  0
   -0.0392   -0.0595    1.3024 C   0  0  0  0  0  0  0  0  0  0  0  0
   -0.1905   -0.0805    2.6720 C   0  0  0  0  0  0  0  0  0  0  0  0
   -1.4445   -0.2100    3.2221 C   0  0  0  0  0  0  0  0  0  0  0  0
   -2.5165   -0.3155    2.4276 N   0  0  0  0  0  0  0  0  0  0  0  0
   -2.4337   -0.3015    1.0853 C   0  0  0  0  0  0  0  0  0  0  0  0
   -3.6602   -0.4226    0.2775 C   0  0  0  0  0  0  0  0  0  0  0  0
   -3.6607   -0.4170   -1.0940 C   0  0  0  0  0  0  0  0  0  0  0  0
   -4.8261   -0.5322   -1.8249 C   0  0  0  0  0  0  0  0  0  0  0  0
   -6.0141   -0.6556   -1.1427 C   0  0  0  0  0  0  0  0  0  0  0  0
   -6.0639   -0.6663    0.2350 C   0  0  0  0  0  0  0  0  0  0  0  0
   -4.8867   -0.5498    0.9277 C   0  0  0  0  0  0  0  0  0  0  0  0
   -1.1928   -0.1733    0.5135 C   0  0  0  0  0  0  0  0  0  0  0  0
    1.4855    0.1034   -0.6859 C   0  0  0  0  0  0  0  0  0  0  0  0
    2.8406    0.2418   -0.9225 C   0  0  0  0  0  0  0  0  0  0  0  0
    5.6775    0.1289   -2.7492 H   0  0  0  0  0  0  0  0  0  0  0  0
    5.2505    2.1800   -0.7588 H   0  0  0  0  0  0  0  0  0  0  0  0
    6.6292    1.0271   -0.6846 H   0  0  0  0  0  0  0  0  0  0  0  0
    5.3795   -0.5561    0.5581 H   0  0  0  0  0  0  0  0  0  0  0  0
    5.1337    1.1155    1.2958 H   0  0  0  0  0  0  0  0  0  0  0  0
    2.6489    0.2093    2.2528 H   0  0  0  0  0  0  0  0  0  0  0  0
    0.7000    0.0073    3.2718 H   0  0  0  0  0  0  0  0  0  0  0  0
   -1.5055   -0.2207    4.3104 H   0  0  0  0  0  0  0  0  0  0  0  0
   -2.7329   -0.3206   -1.6417 H   0  0  0  0  0  0  0  0  0  0  0  0
   -4.8090   -0.5260   -2.9261 H   0  0  0  0  0  0  0  0  0  0  0  0
   -6.9545   -0.7488   -1.6712 H   0  0  0  0  0  0  0  0  0  0  0  0
   -7.0341   -0.7669    0.7529 H   0  0  0  0  0  0  0  0  0  0  0  0
   -4.8753   -0.5530    2.0022 H   0  0  0  0  0  0  0  0  0  0  0  0
   -1.0687   -0.1563   -0.5498 H   0  0  0  0  0  0  0  0  0  0  0  0
    0.7462    0.0317   -1.4929 H   0  0  0  0  0  0  0  0  0  0  0  0
  1  2  2  0
  2  3  1  0
  3  4  1  0
  4  5  1  0
  5  6  1  0
  6  7  1  0
  7  8  1  0
  8  9  1  0
  9 10  2  0
 10 11  1  0
 11 12  2  0
 12 13  1  0
 13 14  1  0
 14 15  2  0
 15 16  1  0
 16 17  2  0
 17 18  1  0
 18 19  2  0
 13 20  2  0
  8 21  2  0
 21 22  1  0
 22  2  1  0
 22  6  2  0
 20  9  1  0
 19 14  1  0
  3 23  1  0
  4 24  1  0
  4 25  1  0
  5 26  1  0
  5 27  1  0
  7 28  1  0
 10 29  1  0
 11 30  1  0
 15 31  1  0
 16 32  1  0
 17 33  1  0
 18 34  1  0
 19 35  1  0
 20 36  1  0
 21 37  1  0
M  END
$$$$
