@<TRIPOS>MOLECULE
*****
 37 40 0 0 0
SMALL
GASTEIGER

@<TRIPOS>ATOM
      1 O           3.0883    0.2768   -3.2761 O.2     1  UNL1       -0.2701
      2 C           3.6348    0.3277   -2.1440 C.2     1  UNL1        0.2458
      3 N           5.0426    0.4701   -1.9958 N.am    1  UNL1       -0.3109
      4 C           5.5294    1.0945   -0.7821 C.3     1  UNL1        0.0172
      5 C           4.9238    0.4474    0.4267 C.3     1  UNL1        0.0038
      6 C           3.4485    0.2984    0.3089 C.ar    1  UNL1        0.0301
      7 N           2.4722    0.1956    1.2334 N.ar    1  UNL1       -0.3573
      8 C           1.2777    0.0767    0.6756 C.ar    1  UNL1        0.0475
      9 C          -0.0392   -0.0595    1.3024 C.ar    1  UNL1        0.0018
     10 C          -0.1905   -0.0805    2.6720 C.ar    1  UNL1       -0.0344
     11 C          -1.4445   -0.2100    3.2221 C.ar    1  UNL1        0.0289
     12 N          -2.5165   -0.3155    2.4276 N.ar    1  UNL1       -0.2549
     13 C          -2.4337   -0.3015    1.0853 C.ar    1  UNL1        0.0716
     14 C          -3.6602   -0.4226    0.2775 C.ar    1  UNL1        0.0004
     15 C          -3.6607   -0.4170   -1.0940 C.ar    1  UNL1       -0.0526
     16 C          -4.8261   -0.5322   -1.8249 C.ar    1  UNL1       -0.0611
     17 C          -6.0141   -0.6556   -1.1427 C.ar    1  UNL1       -0.0617
     18 C          -6.0639   -0.6663    0.2350 C.ar    1  UNL1       -0.0611
     19 C          -4.8867   -0.5498    0.9277 C.ar    1  UNL1       -0.0526
     20 C          -1.1928   -0.1733    0.5135 C.ar    1  UNL1       -0.0266
     21 C           1.4855    0.1034   -0.6859 C.ar    1  UNL1       -0.0240
     22 C           2.8406    0.2418   -0.9225 C.ar    1  UNL1        0.0578
     23 H           5.6775    0.1289   -2.7492 H       1  UNL1        0.1490
     24 H           5.2505    2.1800   -0.7588 H       1  UNL1        0.0466
     25 H           6.6292    1.0271   -0.6846 H       1  UNL1        0.0466
     26 H           5.3795   -0.5561    0.5581 H       1  UNL1        0.0343
     27 H           5.1337    1.1155    1.2958 H       1  UNL1        0.0343
     28 H           2.6489    0.2093    2.2528 H       1  UNL1        0.1656
     29 H           0.7000    0.0073    3.2718 H       1  UNL1        0.0639
     30 H          -1.5055   -0.2207    4.3104 H       1  UNL1        0.0830
     31 H          -2.7329   -0.3206   -1.6417 H       1  UNL1        0.0624
     32 H          -4.8090   -0.5260   -2.9261 H       1  UNL1        0.0618
     33 H          -6.9545   -0.7488   -1.6712 H       1  UNL1        0.0618
     34 H          -7.0341   -0.7669    0.7529 H       1  UNL1        0.0618
     35 H          -4.8753   -0.5530    2.0022 H       1  UNL1        0.0624
     36 H          -1.0687   -0.1563   -0.5498 H       1  UNL1        0.0645
     37 H           0.7462    0.0317   -1.4929 H       1  UNL1        0.0646
@<TRIPOS>BOND
     1     1     2    2
     2     2     3   am
     3     3     4    1
     4     4     5    1
     5     5     6    1
     6     6     7   ar
     7     7     8   ar
     8     8     9    1
     9     9    10   ar
    10    10    11   ar
    11    11    12   ar
    12    12    13   ar
    13    13    14    1
    14    14    15   ar
    15    15    16   ar
    16    16    17   ar
    17    17    18   ar
    18    18    19   ar
    19    13    20   ar
    20     8    21   ar
    21    21    22   ar
    22    22     2    1
    23    22     6   ar
    24    20     9   ar
    25    19    14   ar
    26     3    23    1
    27     4    24    1
    28     4    25    1
    29     5    26    1
    30     5    27    1
    31     7    28    1
    32    10    29    1
    33    11    30    1
    34    15    31    1
    35    16    32    1
    36    17    33    1
    37    18    34    1
    38    19    35    1
    39    20    36    1
    40    21    37    1
