
     RDKit          3D

 52 55  0  0  0  0  0  0  0  0999 V2000
   -5.7082    1.6091   -1.0019 C   0  0  0  0  0  0  0  0  0  0  0  0
   -4.7892    0.5056   -0.4887 C   0  0  0  0  0  0  0  0  0  0  0  0
   -5.6513   -0.6097    0.0695 C   0  0  0  0  0  0  0  0  0  0  0  0
   -3.9529    1.1052    0.5730 C   0  0  0  0  0  0  0  0  0  0  0  0
   -4.4523    2.2733    1.2789 N   0  0  0  0  0  0  0  0  0  0  0  0
   -2.8282    0.6084    0.8588 N   0  0  0  0  0  0  0  0  0  0  0  0
   -2.1789   -0.5409    0.2658 C   0  0  2  0  0  0  0  0  0  0  0  0
   -2.8048   -1.8545    0.6180 C   0  0  0  0  0  0  0  0  0  0  0  0
   -0.7940   -0.5366    0.7874 C   0  0  0  0  0  0  0  0  0  0  0  0
    0.3493   -0.4684    0.0722 C   0  0  0  0  0  0  0  0  0  0  0  0
    1.6357   -0.4743    0.6377 C   0  0  0  0  0  0  0  0  0  0  0  0
    2.7634   -0.4060   -0.2183 N   0  0  0  0  0  0  0  0  0  0  0  0
    4.0640   -0.0343    0.1613 C   0  0  0  0  0  0  0  0  0  0  0  0
    4.4082    0.3339    1.3862 N   0  0  0  0  0  0  0  0  0  0  0  0
    5.6412    0.6998    1.7768 C   0  0  0  0  0  0  0  0  0  0  0  0
    6.6577    0.7072    0.8653 C   0  0  0  0  0  0  0  0  0  0  0  0
    7.9311    1.0616    1.1689 F   0  0  0  0  0  0  0  0  0  0  0  0
    6.3761    0.3352   -0.4338 C   0  0  0  0  0  0  0  0  0  0  0  0
    7.3802    0.3273   -1.4046 C   0  0  0  0  0  0  0  0  0  0  0  0
    7.0637   -0.0484   -2.6922 C   0  0  0  0  0  0  0  0  0  0  0  0
    8.3561   -0.0407   -3.8698 Cl  0  0  0  0  0  0  0  0  0  0  0  0
    5.7712   -0.4095   -3.0073 C   0  0  0  0  0  0  0  0  0  0  0  0
    4.7992   -0.3984   -2.0531 N   0  0  0  0  0  0  0  0  0  0  0  0
    5.0905   -0.0342   -0.7906 C   0  0  0  0  0  0  0  0  0  0  0  0
    1.7045   -0.5559    2.0005 C   0  0  0  0  0  0  0  0  0  0  0  0
    0.5494   -0.6292    2.7908 C   0  0  0  0  0  0  0  0  0  0  0  0
   -0.6765   -0.6188    2.1805 C   0  0  0  0  0  0  0  0  0  0  0  0
   -1.8084   -0.6878    2.9176 F   0  0  0  0  0  0  0  0  0  0  0  0
   -2.1710   -0.4178   -1.2436 C   0  0  0  0  0  0  0  0  0  0  0  0
   -3.7882    0.0097   -1.8452 S   0  0  0  0  0  6  0  0  0  0  0  0
   -3.6102    1.1979   -2.7720 O   0  0  0  0  0  0  0  0  0  0  0  0
   -4.3945   -1.1321   -2.6131 O   0  0  0  0  0  0  0  0  0  0  0  0
   -6.4578    1.8189   -0.2128 H   0  0  0  0  0  0  0  0  0  0  0  0
   -5.1324    2.5311   -1.2285 H   0  0  0  0  0  0  0  0  0  0  0  0
   -6.2455    1.2463   -1.9005 H   0  0  0  0  0  0  0  0  0  0  0  0
   -5.4671   -0.7193    1.1597 H   0  0  0  0  0  0  0  0  0  0  0  0
   -5.5909   -1.5435   -0.4889 H   0  0  0  0  0  0  0  0  0  0  0  0
   -6.7402   -0.3073    0.0129 H   0  0  0  0  0  0  0  0  0  0  0  0
   -4.6861    3.0889    0.7009 H   0  0  0  0  0  0  0  0  0  0  0  0
   -4.5690    2.2939    2.2978 H   0  0  0  0  0  0  0  0  0  0  0  0
   -1.9615   -2.5905    0.7853 H   0  0  0  0  0  0  0  0  0  0  0  0
   -3.3434   -2.3128   -0.2642 H   0  0  0  0  0  0  0  0  0  0  0  0
   -3.4016   -1.8530    1.5307 H   0  0  0  0  0  0  0  0  0  0  0  0
    0.2994   -0.4123   -0.9931 H   0  0  0  0  0  0  0  0  0  0  0  0
    2.6063   -0.6621   -1.2384 H   0  0  0  0  0  0  0  0  0  0  0  0
    5.8576    0.9883    2.7856 H   0  0  0  0  0  0  0  0  0  0  0  0
    8.3843    0.6220   -1.1013 H   0  0  0  0  0  0  0  0  0  0  0  0
    5.5484   -0.7009   -4.0279 H   0  0  0  0  0  0  0  0  0  0  0  0
    2.6626   -0.5746    2.5114 H   0  0  0  0  0  0  0  0  0  0  0  0
    0.6250   -0.6938    3.8768 H   0  0  0  0  0  0  0  0  0  0  0  0
   -1.9090   -1.4032   -1.6641 H   0  0  0  0  0  0  0  0  0  0  0  0
   -1.4120    0.3072   -1.5814 H   0  0  0  0  0  0  0  0  0  0  0  0
  1  2  1  0
  2  3  1  0
  2  4  1  0
  4  5  1  0
  4  6  2  0
  6  7  1  0
  7  8  1  6
  7  9  1  0
  9 10  2  0
 10 11  1  0
 11 12  1  0
 12 13  1  0
 13 14  2  0
 14 15  1  0
 15 16  2  0
 16 17  1  0
 16 18  1  0
 18 19  2  0
 19 20  1  0
 20 21  1  0
 20 22  2  0
 22 23  1  0
 23 24  2  0
 11 25  2  0
 25 26  1  0
 26 27  2  0
 27 28  1  0
  7 29  1  0
 29 30  1  0
 30 31  2  0
 30 32  2  0
 30  2  1  0
 27  9  1  0
 24 13  1  0
 24 18  1  0
  1 33  1  0
  1 34  1  0
  1 35  1  0
  3 36  1  0
  3 37  1  0
  3 38  1  0
  5 39  1  0
  5 40  1  0
  8 41  1  0
  8 42  1  0
  8 43  1  0
 10 44  1  0
 12 45  1  0
 15 46  1  0
 19 47  1  0
 22 48  1  0
 25 49  1  0
 26 50  1  0
 29 51  1  0
 29 52  1  0
M  END
$$$$
