@<TRIPOS>MOLECULE
*****
 52 55 0 0 0
SMALL
GASTEIGER

@<TRIPOS>ATOM
      1 C          -5.7082    1.6091   -1.0019 C.3     1  UNL1       -0.0288
      2 C          -4.7892    0.5056   -0.4887 C.3     1  UNL1        0.1831
      3 C          -5.6513   -0.6097    0.0695 C.3     1  UNL1       -0.0288
      4 C          -3.9529    1.1052    0.5730 C.2     1  UNL1        0.3067
      5 N          -4.4523    2.2733    1.2789 N.pl3   1  UNL1       -0.2488
      6 N          -2.8282    0.6084    0.8588 N.2     1  UNL1       -0.0727
      7 C          -2.1789   -0.5409    0.2658 C.3     1  UNL1        0.1959
      8 C          -2.8048   -1.8545    0.6180 C.3     1  UNL1       -0.0112
      9 C          -0.7940   -0.5366    0.7874 C.ar    1  UNL1        0.0420
     10 C           0.3493   -0.4684    0.0722 C.ar    1  UNL1       -0.0301
     11 C           1.6357   -0.4743    0.6377 C.ar    1  UNL1        0.0330
     12 N           2.7634   -0.4060   -0.2183 N.pl3   1  UNL1       -0.2977
     13 C           4.0640   -0.0343    0.1613 C.ar    1  UNL1        0.1492
     14 N           4.4082    0.3339    1.3862 N.ar    1  UNL1       -0.2351
     15 C           5.6412    0.6998    1.7768 C.ar    1  UNL1        0.0656
     16 C           6.6577    0.7072    0.8653 C.ar    1  UNL1        0.1507
     17 F           7.9311    1.0616    1.1689 F       1  UNL1       -0.2032
     18 C           6.3761    0.3352   -0.4338 C.ar    1  UNL1        0.0418
     19 C           7.3802    0.3273   -1.4046 C.ar    1  UNL1       -0.0298
     20 C           7.0637   -0.0484   -2.6922 C.ar    1  UNL1        0.0597
     21 CL          8.3561   -0.0407   -3.8698 Cl      1  UNL1       -0.0820
     22 C           5.7712   -0.4095   -3.0073 C.ar    1  UNL1        0.0467
     23 N           4.7992   -0.3984   -2.0531 N.ar    1  UNL1       -0.2500
     24 C           5.0905   -0.0342   -0.7906 C.ar    1  UNL1        0.1137
     25 C           1.7045   -0.5559    2.0005 C.ar    1  UNL1       -0.0378
     26 C           0.5494   -0.6292    2.7908 C.ar    1  UNL1       -0.0243
     27 C          -0.6765   -0.6188    2.1805 C.ar    1  UNL1        0.1311
     28 F          -1.8084   -0.6878    2.9176 F       1  UNL1       -0.2050
     29 C          -2.1710   -0.4178   -1.2436 C.3     1  UNL1        0.1183
     30 S          -3.7882    0.0097   -1.8452 S.O2    1  UNL1       -0.0101
     31 O          -3.6102    1.1979   -2.7720 O.2     1  UNL1       -0.1731
     32 O          -4.3945   -1.1321   -2.6131 O.2     1  UNL1       -0.1731
     33 H          -6.4578    1.8189   -0.2128 H       1  UNL1        0.0256
     34 H          -5.1324    2.5311   -1.2285 H       1  UNL1        0.0256
     35 H          -6.2455    1.2463   -1.9005 H       1  UNL1        0.0256
     36 H          -5.4671   -0.7193    1.1597 H       1  UNL1        0.0256
     37 H          -5.5909   -1.5435   -0.4889 H       1  UNL1        0.0256
     38 H          -6.7402   -0.3073    0.0129 H       1  UNL1        0.0256
     39 H          -4.6861    3.0889    0.7009 H       1  UNL1        0.2881
     40 H          -4.5690    2.2939    2.2978 H       1  UNL1        0.2881
     41 H          -1.9615   -2.5905    0.7853 H       1  UNL1        0.0279
     42 H          -3.3434   -2.3128   -0.2642 H       1  UNL1        0.0279
     43 H          -3.4016   -1.8530    1.5307 H       1  UNL1        0.0279
     44 H           0.2994   -0.4123   -0.9931 H       1  UNL1        0.0641
     45 H           2.6063   -0.6621   -1.2384 H       1  UNL1        0.1536
     46 H           5.8576    0.9883    2.7856 H       1  UNL1        0.0860
     47 H           8.3843    0.6220   -1.1013 H       1  UNL1        0.0640
     48 H           5.5484   -0.7009   -4.0279 H       1  UNL1        0.0844
     49 H           2.6626   -0.5746    2.5114 H       1  UNL1        0.0637
     50 H           0.6250   -0.6938    3.8768 H       1  UNL1        0.0647
     51 H          -1.9090   -1.4032   -1.6641 H       1  UNL1        0.0550
     52 H          -1.4120    0.3072   -1.5814 H       1  UNL1        0.0550
@<TRIPOS>BOND
     1     1     2    1
     2     2     3    1
     3     2     4    1
     4     4     5    1
     5     4     6    2
     6     6     7    1
     7     7     8    1
     8     7     9    1
     9     9    10   ar
    10    10    11   ar
    11    11    12    1
    12    12    13    1
    13    13    14   ar
    14    14    15   ar
    15    15    16   ar
    16    16    17    1
    17    16    18   ar
    18    18    19   ar
    19    19    20   ar
    20    20    21    1
    21    20    22   ar
    22    22    23   ar
    23    23    24   ar
    24    11    25   ar
    25    25    26   ar
    26    26    27   ar
    27    27    28    1
    28     7    29    1
    29    29    30    1
    30    30    31    2
    31    30    32    2
    32    30     2    1
    33    27     9   ar
    34    24    13   ar
    35    24    18   ar
    36     1    33    1
    37     1    34    1
    38     1    35    1
    39     3    36    1
    40     3    37    1
    41     3    38    1
    42     5    39    1
    43     5    40    1
    44     8    41    1
    45     8    42    1
    46     8    43    1
    47    10    44    1
    48    12    45    1
    49    15    46    1
    50    19    47    1
    51    22    48    1
    52    25    49    1
    53    26    50    1
    54    29    51    1
    55    29    52    1
