@<TRIPOS>MOLECULE
*****
 55 59 0 0 0
SMALL
GASTEIGER

@<TRIPOS>ATOM
      1 N           6.5823    2.6706   -0.3036 N.3     1  UNL1       -0.3297
      2 C           7.0476    1.2752   -0.2532 C.3     1  UNL1       -0.0040
      3 C           5.8376    0.4741    0.1808 C.3     1  UNL1       -0.0264
      4 C           4.7182    0.6494   -0.8225 C.3     1  UNL1       -0.0362
      5 C           3.4953    0.0082   -0.1966 C.3     1  UNL1       -0.0005
      6 N           3.6717   -1.3721    0.0843 N.3     1  UNL1       -0.2981
      7 C           2.8809   -1.8820    1.1550 C.3     1  UNL1        0.0241
      8 C           1.4392   -1.6903    0.8022 C.ar    1  UNL1       -0.0327
      9 C           0.6562   -0.5974    1.0968 C.ar    1  UNL1       -0.0482
     10 C          -0.6593   -0.5463    0.7123 C.ar    1  UNL1        0.0006
     11 C          -1.2700   -1.5687    0.0184 C.ar    1  UNL1        0.0469
     12 N          -2.5603   -1.2558   -0.2293 N.ar    1  UNL1       -0.3540
     13 C          -2.8184   -0.0480    0.2854 C.ar    1  UNL1        0.0527
     14 C          -1.6498    0.3937    0.8669 C.ar    1  UNL1       -0.0285
     15 C          -4.1262    0.5872    0.1910 C.ar    1  UNL1        0.0632
     16 C          -5.1374   -0.0895   -0.4579 C.ar    1  UNL1       -0.0383
     17 C          -6.4110    0.4763   -0.5758 C.ar    1  UNL1       -0.0008
     18 C          -7.4318   -0.1949   -1.2250 C.ar    1  UNL1       -0.0526
     19 C          -8.6905    0.3516   -1.3479 C.ar    1  UNL1       -0.0611
     20 C          -8.9694    1.6118   -0.8135 C.ar    1  UNL1       -0.0598
     21 C          -7.9540    2.2577   -0.1784 C.ar    1  UNL1       -0.0377
     22 C          -6.6916    1.7184   -0.0508 C.ar    1  UNL1        0.0492
     23 N          -5.6812    2.3511    0.5761 N.ar    1  UNL1       -0.3216
     24 C          -4.4529    1.8170    0.6956 C.ar    1  UNL1        0.2583
     25 O          -3.5645    2.4655    1.2923 O.2     1  UNL1       -0.2672
     26 C          -0.5126   -2.6799   -0.2932 C.ar    1  UNL1       -0.0375
     27 C           0.8088   -2.7186    0.0993 C.ar    1  UNL1       -0.0554
     28 C           4.9848   -1.8941   -0.0504 C.3     1  UNL1       -0.0005
     29 C           6.1079   -0.9941    0.3223 C.3     1  UNL1       -0.0362
     30 H           7.3958    3.3013   -0.2238 H       1  UNL1        0.1182
     31 H           5.9598    2.8364    0.5200 H       1  UNL1        0.1182
     32 H           7.4318    0.9592   -1.2264 H       1  UNL1        0.0425
     33 H           7.7935    1.2073    0.5617 H       1  UNL1        0.0425
     34 H           5.5343    0.8401    1.1847 H       1  UNL1        0.0314
     35 H           4.9736    0.0371   -1.7307 H       1  UNL1        0.0281
     36 H           4.4994    1.6864   -1.0832 H       1  UNL1        0.0281
     37 H           3.3334    0.5689    0.7696 H       1  UNL1        0.0427
     38 H           2.6058    0.1850   -0.8071 H       1  UNL1        0.0427
     39 H           3.0496   -1.3058    2.0917 H       1  UNL1        0.0476
     40 H           3.0205   -2.9585    1.3413 H       1  UNL1        0.0476
     41 H           1.1336    0.1899    1.6343 H       1  UNL1        0.0627
     42 H          -3.1943   -1.9139   -0.7510 H       1  UNL1        0.1659
     43 H          -1.5247    1.3375    1.3709 H       1  UNL1        0.0645
     44 H          -5.0421   -1.0642   -0.9088 H       1  UNL1        0.0632
     45 H          -7.2475   -1.1770   -1.6519 H       1  UNL1        0.0624
     46 H          -9.4680   -0.1935   -1.8591 H       1  UNL1        0.0618
     47 H          -9.9620    2.0481   -0.9077 H       1  UNL1        0.0618
     48 H          -8.1476    3.2248    0.2381 H       1  UNL1        0.0638
     49 H          -5.8614    3.2917    0.9837 H       1  UNL1        0.1689
     50 H          -0.9438   -3.5096   -0.8362 H       1  UNL1        0.0638
     51 H           1.3719   -3.6141   -0.1666 H       1  UNL1        0.0621
     52 H           5.0947   -2.3138   -1.0779 H       1  UNL1        0.0427
     53 H           5.0350   -2.8068    0.6127 H       1  UNL1        0.0427
     54 H           6.5622   -1.2201    1.3151 H       1  UNL1        0.0281
     55 H           6.9466   -1.2125   -0.4025 H       1  UNL1        0.0281
@<TRIPOS>BOND
     1     1     2    1
     2     2     3    1
     3     3     4    1
     4     4     5    1
     5     5     6    1
     6     6     7    1
     7     7     8    1
     8     8     9   ar
     9     9    10   ar
    10    10    11   ar
    11    11    12   ar
    12    12    13   ar
    13    13    14   ar
    14    13    15    1
    15    15    16   ar
    16    16    17   ar
    17    17    18   ar
    18    18    19   ar
    19    19    20   ar
    20    20    21   ar
    21    21    22   ar
    22    22    23   ar
    23    23    24   ar
    24    24    25    2
    25    11    26   ar
    26    26    27   ar
    27     6    28    1
    28    28    29    1
    29    29     3    1
    30    27     8   ar
    31    14    10   ar
    32    24    15   ar
    33    22    17   ar
    34     1    30    1
    35     1    31    1
    36     2    32    1
    37     2    33    1
    38     3    34    1
    39     4    35    1
    40     4    36    1
    41     5    37    1
    42     5    38    1
    43     7    39    1
    44     7    40    1
    45     9    41    1
    46    12    42    1
    47    14    43    1
    48    16    44    1
    49    18    45    1
    50    19    46    1
    51    20    47    1
    52    21    48    1
    53    23    49    1
    54    26    50    1
    55    27    51    1
    56    28    52    1
    57    28    53    1
    58    29    54    1
    59    29    55    1
