
     RDKit          3D

 30 31  0  0  0  0  0  0  0  0999 V2000
   -4.0031    0.7783    1.6280 C   0  0  0  0  0  0  0  0  0  0  0  0
   -2.9544    0.1803    0.7611 C   0  0  0  0  0  0  0  0  0  0  0  0
   -1.9005   -0.5371    1.2712 C   0  0  0  0  0  0  0  0  0  0  0  0
   -0.9564   -1.0703    0.4299 C   0  0  0  0  0  0  0  0  0  0  0  0
   -1.0262   -0.9094   -0.9500 C   0  0  0  0  0  0  0  0  0  0  0  0
    0.2128   -1.6171   -1.9606 S   0  0  0  0  0  6  0  0  0  0  0  0
   -0.3460   -1.9169   -3.3241 O   0  0  0  0  0  0  0  0  0  0  0  0
    0.7310   -2.8485   -1.2946 O   0  0  0  0  0  0  0  0  0  0  0  0
    1.4539   -0.4455   -2.1384 N   0  0  0  0  0  0  0  0  0  0  0  0
    2.1833    0.0497   -1.0174 C   0  0  0  0  0  0  0  0  0  0  0  0
    2.6700   -0.8138   -0.0656 C   0  0  0  0  0  0  0  0  0  0  0  0
    3.3862   -0.3072    1.0270 C   0  0  0  0  0  0  0  0  0  0  0  0
    3.5983    1.0491    1.1414 C   0  0  0  0  0  0  0  0  0  0  0  0
    3.1106    1.9152    0.1873 C   0  0  0  0  0  0  0  0  0  0  0  0
    2.4051    1.4255   -0.8906 C   0  0  0  0  0  0  0  0  0  0  0  0
   -2.0696   -0.1983   -1.4648 C   0  0  0  0  0  0  0  0  0  0  0  0
   -3.0325    0.3462   -0.6144 C   0  0  0  0  0  0  0  0  0  0  0  0
   -4.8140    0.0066    1.7481 H   0  0  0  0  0  0  0  0  0  0  0  0
   -3.6010    1.1050    2.5975 H   0  0  0  0  0  0  0  0  0  0  0  0
   -4.4938    1.6432    1.1373 H   0  0  0  0  0  0  0  0  0  0  0  0
   -1.8390   -0.6661    2.3354 H   0  0  0  0  0  0  0  0  0  0  0  0
   -0.1176   -1.6390    0.8085 H   0  0  0  0  0  0  0  0  0  0  0  0
    1.7075   -0.0604   -3.0991 H   0  0  0  0  0  0  0  0  0  0  0  0
    2.4996   -1.8683   -0.1665 H   0  0  0  0  0  0  0  0  0  0  0  0
    3.7633   -1.0023    1.7694 H   0  0  0  0  0  0  0  0  0  0  0  0
    4.1498    1.4362    1.9832 H   0  0  0  0  0  0  0  0  0  0  0  0
    3.2709    2.9968    0.2639 H   0  0  0  0  0  0  0  0  0  0  0  0
    2.0216    2.1150   -1.6424 H   0  0  0  0  0  0  0  0  0  0  0  0
   -2.1565   -0.0531   -2.5284 H   0  0  0  0  0  0  0  0  0  0  0  0
   -3.8530    0.9061   -1.0280 H   0  0  0  0  0  0  0  0  0  0  0  0
  1  2  1  0
  2  3  2  0
  3  4  1  0
  4  5  2  0
  5  6  1  0
  6  7  2  0
  6  8  2  0
  6  9  1  0
  9 10  1  0
 10 11  2  0
 11 12  1  0
 12 13  2  0
 13 14  1  0
 14 15  2  0
  5 16  1  0
 16 17  2  0
 17  2  1  0
 15 10  1  0
  1 18  1  0
  1 19  1  0
  1 20  1  0
  3 21  1  0
  4 22  1  0
  9 23  1  0
 11 24  1  0
 12 25  1  0
 13 26  1  0
 14 27  1  0
 15 28  1  0
 16 29  1  0
 17 30  1  0
M  END
$$$$
