@<TRIPOS>MOLECULE
*****
 37 37 0 0 0
SMALL
GASTEIGER

@<TRIPOS>ATOM
      1 C          -4.4666   -0.4213    1.5223 C.3     1  UNL1       -0.0493
      2 C          -3.9558   -1.2012    0.3166 C.3     1  UNL1        0.0121
      3 N          -2.9062   -0.4635   -0.3984 N.am    1  UNL1       -0.2975
      4 C          -3.3195    0.4284   -1.4732 C.3     1  UNL1        0.0121
      5 C          -3.5982    1.8233   -0.9077 C.3     1  UNL1       -0.0493
      6 C          -1.6481   -0.7680    0.1220 C.2     1  UNL1        0.2569
      7 O          -1.9303   -1.5579    1.0566 O.2     1  UNL1       -0.2692
      8 C          -0.2688   -0.4340   -0.1257 C.2     1  UNL1        0.1140
      9 C           0.6416   -0.9684    0.6656 C.2     1  UNL1       -0.0318
     10 C           1.9852   -0.5318    0.2828 C.ar    1  UNL1       -0.0135
     11 C           2.8593   -0.0305    1.2401 C.ar    1  UNL1        0.0268
     12 C           4.1344    0.3767    0.9211 C.ar    1  UNL1        0.3183
     13 C           4.5949    0.2968   -0.3978 C.ar    1  UNL1        0.2370
     14 O           5.8641    0.6997   -0.7320 O.3     1  UNL1       -0.4989
     15 C           3.7308   -0.1982   -1.3389 C.ar    1  UNL1        0.1657
     16 O           4.1851   -0.2826   -2.6708 O.3     1  UNL1       -0.5031
     17 C           2.4733   -0.5971   -1.0066 C.ar    1  UNL1       -0.0089
     18 N           4.9637    0.8800    1.9689 N.pl3   1  UNL1        0.0836
     19 O           6.3315    0.8742    2.0616 O.co2   1  UNL1       -0.5759
     20 O           4.4177    1.4128    2.9762 O.2     1  UNL1        0.0416
     21 C          -0.0272    0.4673   -1.2156 C.1     1  UNL1        0.1044
     22 N           0.1816    1.1828   -2.0958 N.1     1  UNL1       -0.1907
     23 H          -5.1155    0.3976    1.1853 H       1  UNL1        0.0245
     24 H          -5.0523   -1.1320    2.1432 H       1  UNL1        0.0245
     25 H          -3.5768   -0.0503    2.0802 H       1  UNL1        0.0245
     26 H          -3.6707   -2.2183    0.5904 H       1  UNL1        0.0462
     27 H          -4.8556   -1.2693   -0.3671 H       1  UNL1        0.0462
     28 H          -2.5332    0.4273   -2.2406 H       1  UNL1        0.0462
     29 H          -4.2540    0.0771   -1.9476 H       1  UNL1        0.0462
     30 H          -3.4522    1.8568    0.1912 H       1  UNL1        0.0245
     31 H          -4.6501    2.1289   -1.0710 H       1  UNL1        0.0245
     32 H          -2.9315    2.5500   -1.3874 H       1  UNL1        0.0245
     33 H           0.3953   -1.6441    1.4947 H       1  UNL1        0.0638
     34 H           2.4829    0.0286    2.2771 H       1  UNL1        0.0692
     35 H           6.6294    0.0734   -1.0115 H       1  UNL1        0.2925
     36 H           4.4765   -1.2290   -2.9574 H       1  UNL1        0.2923
     37 H           1.8652   -0.9842   -1.7911 H       1  UNL1        0.0661
@<TRIPOS>UNITY_ATOM_ATTR
18 1
charge 1
19 1
charge -1
@<TRIPOS>BOND
     1     1     2    1
     2     2     3    1
     3     3     4    1
     4     4     5    1
     5     3     6   am
     6     6     7    2
     7     6     8    1
     8     8     9    2
     9     9    10    1
    10    10    11   ar
    11    11    12   ar
    12    12    13   ar
    13    13    14    1
    14    13    15   ar
    15    15    16    1
    16    15    17   ar
    17    12    18    1
    18    18    19    1
    19    18    20    2
    20     8    21    1
    21    21    22    3
    22    17    10   ar
    23     1    23    1
    24     1    24    1
    25     1    25    1
    26     2    26    1
    27     2    27    1
    28     4    28    1
    29     4    29    1
    30     5    30    1
    31     5    31    1
    32     5    32    1
    33     9    33    1
    34    11    34    1
    35    14    35    1
    36    16    36    1
    37    17    37    1
