@<TRIPOS>MOLECULE
*****
 63 67 0 0 0
SMALL
GASTEIGER

@<TRIPOS>ATOM
      1 C           6.6082   -1.5302   -2.2362 C.3     1  UNL1       -0.0391
      2 C           5.1391   -1.5681   -1.9248 C.ar    1  UNL1       -0.0426
      3 C           4.3292   -2.4131   -2.6437 C.ar    1  UNL1       -0.0565
      4 C           2.9840   -2.4456   -2.3630 C.ar    1  UNL1       -0.0402
      5 C           2.4376   -1.6494   -1.3784 C.ar    1  UNL1        0.0343
      6 N           1.0256   -1.7378   -1.1423 N.am    1  UNL1       -0.2815
      7 C           0.0876   -0.9207   -1.8215 C.2     1  UNL1        0.2483
      8 O           0.5693   -0.1013   -2.6555 O.2     1  UNL1       -0.2699
      9 C          -1.3591   -1.0024   -1.5879 C.ar    1  UNL1        0.0370
     10 C          -1.9179   -1.8789   -0.6899 C.ar    1  UNL1       -0.0493
     11 C          -3.3037   -1.9345   -0.4881 C.ar    1  UNL1       -0.0566
     12 C          -4.1621   -1.1112   -1.1830 C.ar    1  UNL1       -0.0333
     13 C          -5.6314   -1.1667   -0.9710 C.3     1  UNL1        0.0241
     14 N          -6.0999   -0.2932    0.0309 N.3     1  UNL1       -0.2957
     15 C          -5.6058   -0.4649    1.3422 C.3     1  UNL1        0.0120
     16 C          -6.6916   -0.0954    2.3311 C.3     1  UNL1        0.0114
     17 N          -7.5469    0.9601    1.8797 N.3     1  UNL1       -0.3029
     18 C          -7.8717    1.8053    3.0111 C.3     1  UNL1       -0.0127
     19 C          -6.9195    1.7911    0.8669 C.3     1  UNL1        0.0114
     20 C          -6.5300    0.9870   -0.3477 C.3     1  UNL1        0.0120
     21 C          -3.5912   -0.2249   -2.0917 C.ar    1  UNL1       -0.0566
     22 C          -2.2282   -0.1732   -2.2874 C.ar    1  UNL1       -0.0493
     23 C           3.2607   -0.8176   -0.6768 C.ar    1  UNL1       -0.0325
     24 C           4.6086   -0.7674   -0.9388 C.ar    1  UNL1       -0.0131
     25 C           5.4293    0.1481   -0.1388 C.ar    1  UNL1       -0.0140
     26 C           6.6233   -0.2624    0.4243 C.ar    1  UNL1       -0.0531
     27 C           7.4143    0.5908    1.1812 C.ar    1  UNL1       -0.0470
     28 C           7.0329    1.8874    1.3992 C.ar    1  UNL1        0.0626
     29 C           7.5998    2.9418    2.0930 C.ar    1  UNL1        0.1667
     30 N           8.8196    2.9561    2.8158 N.pl3   1  UNL1       -0.3400
     31 N           6.7258    3.9581    1.9254 N.ar    1  UNL1       -0.0624
     32 O           5.7200    3.5733    1.2017 O.2     1  UNL1       -0.3528
     33 C           5.8443    2.3049    0.8419 C.ar    1  UNL1        0.1697
     34 C           5.0490    1.4558    0.0838 C.ar    1  UNL1       -0.0083
     35 H           6.6875   -1.6255   -3.3578 H       1  UNL1        0.0278
     36 H           7.1418   -2.4077   -1.8380 H       1  UNL1        0.0278
     37 H           7.0625   -0.5579   -2.0040 H       1  UNL1        0.0278
     38 H           4.7304   -3.0609   -3.4347 H       1  UNL1        0.0621
     39 H           2.3649   -3.1072   -2.9293 H       1  UNL1        0.0636
     40 H           0.7214   -2.4412   -0.4382 H       1  UNL1        0.1551
     41 H          -1.2620   -2.5455   -0.1230 H       1  UNL1        0.0625
     42 H          -3.6903   -2.6450    0.2314 H       1  UNL1        0.0621
     43 H          -6.1453   -0.9247   -1.9249 H       1  UNL1        0.0476
     44 H          -5.9643   -2.2186   -0.7290 H       1  UNL1        0.0476
     45 H          -5.3084   -1.5055    1.5778 H       1  UNL1        0.0439
     46 H          -4.7265    0.1840    1.5900 H       1  UNL1        0.0439
     47 H          -7.3080   -1.0197    2.4876 H       1  UNL1        0.0439
     48 H          -6.2361    0.1596    3.3111 H       1  UNL1        0.0439
     49 H          -8.4738    2.6672    2.6464 H       1  UNL1        0.0391
     50 H          -8.3958    1.1969    3.7588 H       1  UNL1        0.0391
     51 H          -6.9587    2.2186    3.4925 H       1  UNL1        0.0391
     52 H          -6.0016    2.2947    1.2580 H       1  UNL1        0.0439
     53 H          -7.6098    2.5861    0.5218 H       1  UNL1        0.0439
     54 H          -5.7630    1.5709   -0.8971 H       1  UNL1        0.0439
     55 H          -7.4143    0.8950   -1.0297 H       1  UNL1        0.0439
     56 H          -4.2510    0.4366   -2.6533 H       1  UNL1        0.0621
     57 H          -1.8036    0.5231   -2.9986 H       1  UNL1        0.0625
     58 H           2.7898   -0.2019    0.0960 H       1  UNL1        0.0642
     59 H           6.9500   -1.2925    0.2686 H       1  UNL1        0.0624
     60 H           8.3504    0.2707    1.6232 H       1  UNL1        0.0626
     61 H           9.4634    3.7602    2.7014 H       1  UNL1        0.1438
     62 H           9.0826    2.1900    3.4506 H       1  UNL1        0.1438
     63 H           4.1190    1.7993   -0.3466 H       1  UNL1        0.0661
@<TRIPOS>BOND
     1     1     2    1
     2     2     3   ar
     3     3     4   ar
     4     4     5   ar
     5     5     6    1
     6     6     7   am
     7     7     8    2
     8     7     9    1
     9     9    10   ar
    10    10    11   ar
    11    11    12   ar
    12    12    13    1
    13    13    14    1
    14    14    15    1
    15    15    16    1
    16    16    17    1
    17    17    18    1
    18    17    19    1
    19    19    20    1
    20    12    21   ar
    21    21    22   ar
    22     5    23   ar
    23    23    24   ar
    24    24    25    1
    25    25    26   ar
    26    26    27   ar
    27    27    28   ar
    28    28    29   ar
    29    29    30    1
    30    29    31   ar
    31    31    32   ar
    32    32    33   ar
    33    33    34   ar
    34    24     2   ar
    35    34    25   ar
    36    22     9   ar
    37    33    28   ar
    38    20    14    1
    39     1    35    1
    40     1    36    1
    41     1    37    1
    42     3    38    1
    43     4    39    1
    44     6    40    1
    45    10    41    1
    46    11    42    1
    47    13    43    1
    48    13    44    1
    49    15    45    1
    50    15    46    1
    51    16    47    1
    52    16    48    1
    53    18    49    1
    54    18    50    1
    55    18    51    1
    56    19    52    1
    57    19    53    1
    58    20    54    1
    59    20    55    1
    60    21    56    1
    61    22    57    1
    62    23    58    1
    63    26    59    1
    64    27    60    1
    65    30    61    1
    66    30    62    1
    67    34    63    1
