
     RDKit          3D

 63 67  0  0  0  0  0  0  0  0999 V2000
    6.6082   -1.5302   -2.2362 C   0  0  0  0  0  0  0  0  0  0  0  0
    5.1391   -1.5681   -1.9248 C   0  0  0  0  0  0  0  0  0  0  0  0
    4.3292   -2.4131   -2.6437 C   0  0  0  0  0  0  0  0  0  0  0  0
    2.9840   -2.4456   -2.3630 C   0  0  0  0  0  0  0  0  0  0  0  0
    2.4376   -1.6494   -1.3784 C   0  0  0  0  0  0  0  0  0  0  0  0
    1.0256   -1.7378   -1.1423 N   0  0  0  0  0  0  0  0  0  0  0  0
    0.0876   -0.9207   -1.8215 C   0  0  0  0  0  0  0  0  0  0  0  0
    0.5693   -0.1013   -2.6555 O   0  0  0  0  0  0  0  0  0  0  0  0
   -1.3591   -1.0024   -1.5879 C   0  0  0  0  0  0  0  0  0  0  0  0
   -1.9179   -1.8789   -0.6899 C   0  0  0  0  0  0  0  0  0  0  0  0
   -3.3037   -1.9345   -0.4881 C   0  0  0  0  0  0  0  0  0  0  0  0
   -4.1621   -1.1112   -1.1830 C   0  0  0  0  0  0  0  0  0  0  0  0
   -5.6314   -1.1667   -0.9710 C   0  0  0  0  0  0  0  0  0  0  0  0
   -6.0999   -0.2932    0.0309 N   0  0  0  0  0  0  0  0  0  0  0  0
   -5.6058   -0.4649    1.3422 C   0  0  0  0  0  0  0  0  0  0  0  0
   -6.6916   -0.0954    2.3311 C   0  0  0  0  0  0  0  0  0  0  0  0
   -7.5469    0.9601    1.8797 N   0  0  0  0  0  0  0  0  0  0  0  0
   -7.8717    1.8053    3.0111 C   0  0  0  0  0  0  0  0  0  0  0  0
   -6.9195    1.7911    0.8669 C   0  0  0  0  0  0  0  0  0  0  0  0
   -6.5300    0.9870   -0.3477 C   0  0  0  0  0  0  0  0  0  0  0  0
   -3.5912   -0.2249   -2.0917 C   0  0  0  0  0  0  0  0  0  0  0  0
   -2.2282   -0.1732   -2.2874 C   0  0  0  0  0  0  0  0  0  0  0  0
    3.2607   -0.8176   -0.6768 C   0  0  0  0  0  0  0  0  0  0  0  0
    4.6086   -0.7674   -0.9388 C   0  0  0  0  0  0  0  0  0  0  0  0
    5.4293    0.1481   -0.1388 C   0  0  0  0  0  0  0  0  0  0  0  0
    6.6233   -0.2624    0.4243 C   0  0  0  0  0  0  0  0  0  0  0  0
    7.4143    0.5908    1.1812 C   0  0  0  0  0  0  0  0  0  0  0  0
    7.0329    1.8874    1.3992 C   0  0  0  0  0  0  0  0  0  0  0  0
    7.5998    2.9418    2.0930 C   0  0  0  0  0  0  0  0  0  0  0  0
    8.8196    2.9561    2.8158 N   0  0  0  0  0  0  0  0  0  0  0  0
    6.7258    3.9581    1.9254 N   0  0  0  0  0  0  0  0  0  0  0  0
    5.7200    3.5733    1.2017 O   0  0  0  0  0  0  0  0  0  0  0  0
    5.8443    2.3049    0.8419 C   0  0  0  0  0  0  0  0  0  0  0  0
    5.0490    1.4558    0.0838 C   0  0  0  0  0  0  0  0  0  0  0  0
    6.6875   -1.6255   -3.3578 H   0  0  0  0  0  0  0  0  0  0  0  0
    7.1418   -2.4077   -1.8380 H   0  0  0  0  0  0  0  0  0  0  0  0
    7.0625   -0.5579   -2.0040 H   0  0  0  0  0  0  0  0  0  0  0  0
    4.7304   -3.0609   -3.4347 H   0  0  0  0  0  0  0  0  0  0  0  0
    2.3649   -3.1072   -2.9293 H   0  0  0  0  0  0  0  0  0  0  0  0
    0.7214   -2.4412   -0.4382 H   0  0  0  0  0  0  0  0  0  0  0  0
   -1.2620   -2.5455   -0.1230 H   0  0  0  0  0  0  0  0  0  0  0  0
   -3.6903   -2.6450    0.2314 H   0  0  0  0  0  0  0  0  0  0  0  0
   -6.1453   -0.9247   -1.9249 H   0  0  0  0  0  0  0  0  0  0  0  0
   -5.9643   -2.2186   -0.7290 H   0  0  0  0  0  0  0  0  0  0  0  0
   -5.3084   -1.5055    1.5778 H   0  0  0  0  0  0  0  0  0  0  0  0
   -4.7265    0.1840    1.5900 H   0  0  0  0  0  0  0  0  0  0  0  0
   -7.3080   -1.0197    2.4876 H   0  0  0  0  0  0  0  0  0  0  0  0
   -6.2361    0.1596    3.3111 H   0  0  0  0  0  0  0  0  0  0  0  0
   -8.4738    2.6672    2.6464 H   0  0  0  0  0  0  0  0  0  0  0  0
   -8.3958    1.1969    3.7588 H   0  0  0  0  0  0  0  0  0  0  0  0
   -6.9587    2.2186    3.4925 H   0  0  0  0  0  0  0  0  0  0  0  0
   -6.0016    2.2947    1.2580 H   0  0  0  0  0  0  0  0  0  0  0  0
   -7.6098    2.5861    0.5218 H   0  0  0  0  0  0  0  0  0  0  0  0
   -5.7630    1.5709   -0.8971 H   0  0  0  0  0  0  0  0  0  0  0  0
   -7.4143    0.8950   -1.0297 H   0  0  0  0  0  0  0  0  0  0  0  0
   -4.2510    0.4366   -2.6533 H   0  0  0  0  0  0  0  0  0  0  0  0
   -1.8036    0.5231   -2.9986 H   0  0  0  0  0  0  0  0  0  0  0  0
    2.7898   -0.2019    0.0960 H   0  0  0  0  0  0  0  0  0  0  0  0
    6.9500   -1.2925    0.2686 H   0  0  0  0  0  0  0  0  0  0  0  0
    8.3504    0.2707    1.6232 H   0  0  0  0  0  0  0  0  0  0  0  0
    9.4634    3.7602    2.7014 H   0  0  0  0  0  0  0  0  0  0  0  0
    9.0826    2.1900    3.4506 H   0  0  0  0  0  0  0  0  0  0  0  0
    4.1190    1.7993   -0.3466 H   0  0  0  0  0  0  0  0  0  0  0  0
  1  2  1  0
  2  3  2  0
  3  4  1  0
  4  5  2  0
  5  6  1  0
  6  7  1  0
  7  8  2  0
  7  9  1  0
  9 10  2  0
 10 11  1  0
 11 12  2  0
 12 13  1  0
 13 14  1  0
 14 15  1  0
 15 16  1  0
 16 17  1  0
 17 18  1  0
 17 19  1  0
 19 20  1  0
 12 21  1  0
 21 22  2  0
  5 23  1  0
 23 24  2  0
 24 25  1  0
 25 26  2  0
 26 27  1  0
 27 28  2  0
 28 29  1  0
 29 30  1  0
 29 31  2  0
 31 32  1  0
 32 33  1  0
 33 34  2  0
 24  2  1  0
 34 25  1  0
 22  9  1  0
 33 28  1  0
 20 14  1  0
  1 35  1  0
  1 36  1  0
  1 37  1  0
  3 38  1  0
  4 39  1  0
  6 40  1  0
 10 41  1  0
 11 42  1  0
 13 43  1  0
 13 44  1  0
 15 45  1  0
 15 46  1  0
 16 47  1  0
 16 48  1  0
 18 49  1  0
 18 50  1  0
 18 51  1  0
 19 52  1  0
 19 53  1  0
 20 54  1  0
 20 55  1  0
 21 56  1  0
 22 57  1  0
 23 58  1  0
 26 59  1  0
 27 60  1  0
 30 61  1  0
 30 62  1  0
 34 63  1  0
M  END
$$$$
