@<TRIPOS>MOLECULE
*****
 60 64 0 0 0
SMALL
GASTEIGER

@<TRIPOS>ATOM
      1 C          -7.3256   -0.5276    0.8020 C.3     1  UNL1       -0.0394
      2 C          -5.8339   -0.4200    0.9571 C.ar    1  UNL1       -0.0454
      3 C          -5.1943   -0.9511    2.0665 C.ar    1  UNL1       -0.0577
      4 C          -3.8170   -0.8417    2.1900 C.ar    1  UNL1       -0.0472
      5 C          -3.0653   -0.2147    1.2317 C.ar    1  UNL1        0.0642
      6 C          -1.6098   -0.0852    1.3263 C.2     1  UNL1        0.2491
      7 O          -1.1346    0.9258    1.8903 O.2     1  UNL1       -0.2699
      8 N          -0.7819   -1.0999    0.7814 N.am    1  UNL1       -0.2897
      9 C          -1.3956   -2.2498    0.1385 C.3     1  UNL1        0.0388
     10 C          -0.3101   -2.9172   -0.6909 C.3     1  UNL1        0.0635
     11 O           0.4288   -1.9810   -1.4046 O.3     1  UNL1       -0.3764
     12 C           1.1663   -1.1389   -0.6156 C.3     1  UNL1        0.0666
     13 C           0.6494   -1.0741    0.8232 C.3     1  UNL1        0.0537
     14 C           1.2459    0.1329    1.4845 C.3     1  UNL1       -0.0041
     15 C           2.7357   -0.0568    1.4161 C.ar    1  UNL1       -0.0097
     16 C           3.5152    0.6252    0.5111 C.ar    1  UNL1       -0.0451
     17 C           4.8685    0.4374    0.4584 C.ar    1  UNL1        0.0195
     18 C           5.7070    1.1645   -0.5135 C.ar    1  UNL1        0.1597
     19 N           7.0343    0.9719   -0.5693 N.ar    1  UNL1       -0.2357
     20 C           7.8392    1.5989   -1.4249 C.ar    1  UNL1        0.0314
     21 C           7.2896    2.4992   -2.3083 C.ar    1  UNL1       -0.0254
     22 C           5.9225    2.7077   -2.2619 C.ar    1  UNL1        0.0314
     23 N           5.1579    2.0411   -1.3708 N.ar    1  UNL1       -0.2357
     24 C           5.4613   -0.4545    1.3317 C.ar    1  UNL1       -0.0483
     25 C           4.7173   -1.1578    2.2535 C.ar    1  UNL1       -0.0255
     26 C           3.3543   -0.9443    2.2796 C.ar    1  UNL1        0.1267
     27 F           2.5747   -1.6054    3.1614 F       1  UNL1       -0.2052
     28 C          -3.7115    0.3115    0.1299 C.ar    1  UNL1        0.1013
     29 N          -2.9159    0.9714   -0.8729 N.ar    1  UNL1       -0.1493
     30 N          -2.4243    2.1919   -0.7624 N.ar    1  UNL1       -0.1556
     31 C          -1.7268    2.5100   -1.8736 C.ar    1  UNL1        0.0697
     32 C          -1.8050    1.4123   -2.7020 C.ar    1  UNL1        0.0697
     33 N          -2.5470    0.5040   -2.0310 N.ar    1  UNL1       -0.1556
     34 C          -5.0780    0.2065    0.0008 C.ar    1  UNL1       -0.0197
     35 C          -5.7274    0.7981   -1.2207 C.3     1  UNL1       -0.0374
     36 H          -7.7278    0.4999    0.6947 H       1  UNL1        0.0278
     37 H          -7.6073   -1.0759   -0.1085 H       1  UNL1        0.0278
     38 H          -7.7633   -0.9522    1.7260 H       1  UNL1        0.0278
     39 H          -5.7986   -1.4448    2.8188 H       1  UNL1        0.0620
     40 H          -3.3039   -1.2522    3.0518 H       1  UNL1        0.0626
     41 H          -2.2016   -1.9617   -0.5465 H       1  UNL1        0.0487
     42 H          -1.7232   -3.0075    0.8788 H       1  UNL1        0.0487
     43 H          -0.7766   -3.6001   -1.4332 H       1  UNL1        0.0575
     44 H           0.3638   -3.5296   -0.0507 H       1  UNL1        0.0575
     45 H           1.1644   -0.0723   -0.9708 H       1  UNL1        0.0578
     46 H           2.2248   -1.4614   -0.6462 H       1  UNL1        0.0578
     47 H           0.9814   -1.9771    1.3840 H       1  UNL1        0.0526
     48 H           0.9693    0.1546    2.5505 H       1  UNL1        0.0333
     49 H           0.9815    1.0649    0.9340 H       1  UNL1        0.0333
     50 H           3.0621    1.3312   -0.1830 H       1  UNL1        0.0628
     51 H           8.9193    1.4500   -1.4800 H       1  UNL1        0.0831
     52 H           7.9021    3.0470   -3.0378 H       1  UNL1        0.0648
     53 H           5.4855    3.4197   -2.9600 H       1  UNL1        0.0831
     54 H           6.5408   -0.5779    1.2606 H       1  UNL1        0.0625
     55 H           5.1832   -1.8524    2.9330 H       1  UNL1        0.0646
     56 H          -1.1954    3.4190   -2.1221 H       1  UNL1        0.0864
     57 H          -1.3524    1.3350   -3.6781 H       1  UNL1        0.0864
     58 H          -5.6902    1.9010   -1.1150 H       1  UNL1        0.0278
     59 H          -6.7369    0.3928   -1.2998 H       1  UNL1        0.0278
     60 H          -5.1647    0.4599   -2.1193 H       1  UNL1        0.0278
@<TRIPOS>BOND
     1     1     2    1
     2     2     3   ar
     3     3     4   ar
     4     4     5   ar
     5     5     6    1
     6     6     7    2
     7     6     8   am
     8     8     9    1
     9     9    10    1
    10    10    11    1
    11    11    12    1
    12    12    13    1
    13    13    14    1
    14    14    15    1
    15    15    16   ar
    16    16    17   ar
    17    17    18    1
    18    18    19   ar
    19    19    20   ar
    20    20    21   ar
    21    21    22   ar
    22    22    23   ar
    23    17    24   ar
    24    24    25   ar
    25    25    26   ar
    26    26    27    1
    27     5    28   ar
    28    28    29    1
    29    29    30   ar
    30    30    31   ar
    31    31    32   ar
    32    32    33   ar
    33    28    34   ar
    34    34    35    1
    35    34     2   ar
    36    13     8    1
    37    26    15   ar
    38    33    29   ar
    39    23    18   ar
    40     1    36    1
    41     1    37    1
    42     1    38    1
    43     3    39    1
    44     4    40    1
    45     9    41    1
    46     9    42    1
    47    10    43    1
    48    10    44    1
    49    12    45    1
    50    12    46    1
    51    13    47    1
    52    14    48    1
    53    14    49    1
    54    16    50    1
    55    20    51    1
    56    21    52    1
    57    22    53    1
    58    24    54    1
    59    25    55    1
    60    31    56    1
    61    32    57    1
    62    35    58    1
    63    35    59    1
    64    35    60    1
