@<TRIPOS>MOLECULE
*****
 66 69 0 0 0
SMALL
GASTEIGER

@<TRIPOS>ATOM
      1 C           0.1745   -3.0278   -1.8240 C.3     1  UNL1       -0.0421
      2 C           0.5299   -2.5038   -0.4259 C.3     1  UNL1        0.0515
      3 C           1.7997   -1.7460   -0.4948 C.ar    1  UNL1       -0.0271
      4 C           2.6415   -1.9266   -1.5951 C.ar    1  UNL1       -0.0562
      5 C           3.8146   -1.2157   -1.6416 C.ar    1  UNL1       -0.0537
      6 C           4.2105   -0.3310   -0.6610 C.ar    1  UNL1       -0.0165
      7 C           5.4535    0.4294   -0.6989 C.ar    1  UNL1       -0.0015
      8 C           5.9848    0.8319   -1.9086 C.ar    1  UNL1       -0.0475
      9 C           7.1628    1.5511   -1.9263 C.ar    1  UNL1        0.0036
     10 C           7.8320    1.8839   -0.7682 C.ar    1  UNL1        0.2511
     11 O           8.9167    2.5463   -0.7882 O.2     1  UNL1       -0.2677
     12 N           7.2955    1.4807    0.4055 N.ar    1  UNL1       -0.3177
     13 C           8.0254    1.8485    1.6096 C.3     1  UNL1        0.0147
     14 C           6.1515    0.7813    0.4375 C.ar    1  UNL1        0.0153
     15 C           3.3658   -0.1669    0.4165 C.ar    1  UNL1       -0.0537
     16 C           2.1736   -0.8671    0.4980 C.ar    1  UNL1       -0.0562
     17 N          -0.5172   -1.6236   -0.0297 N.am    1  UNL1       -0.2605
     18 C          -0.8794   -0.3978   -0.7471 C.3     1  UNL1        0.0224
     19 C          -2.4254   -0.3249   -0.7803 C.3     1  UNL1        0.0076
     20 C          -2.9794   -0.1873    0.5953 C.3     1  UNL1        0.1440
     21 C          -4.2767   -0.8567    0.8194 C.3     1  UNL1        0.0199
     22 C          -5.4838   -0.5030    0.0851 C.3     1  UNL1        0.0645
     23 C          -5.4077   -0.7133   -1.3957 C.3     1  UNL1       -0.0362
     24 C          -6.6363   -1.4268    0.5573 C.3     1  UNL1       -0.0362
     25 O          -5.9792    0.7785    0.3930 O.3     1  UNL1       -0.3890
     26 C          -2.9909    1.2455    1.0404 C.ar    1  UNL1       -0.0040
     27 C          -3.4961    1.5737    2.3033 C.ar    1  UNL1       -0.0548
     28 C          -3.5445    2.8396    2.7921 C.ar    1  UNL1       -0.0614
     29 C          -3.0838    3.8781    2.0394 C.ar    1  UNL1       -0.0617
     30 C          -2.5725    3.5978    0.7772 C.ar    1  UNL1       -0.0614
     31 C          -2.5336    2.2945    0.2991 C.ar    1  UNL1       -0.0548
     32 O          -2.0807   -0.8094    1.5647 O.3     1  UNL1       -0.4387
     33 C          -1.3160   -1.8684    1.1223 C.2     1  UNL1        0.4042
     34 O          -1.2697   -3.0112    1.6475 O.2     1  UNL1       -0.2262
     35 H          -0.8780   -3.3759   -1.7895 H       1  UNL1        0.0251
     36 H           0.3532   -2.2112   -2.5228 H       1  UNL1        0.0251
     37 H           0.7860   -3.9038   -2.0888 H       1  UNL1        0.0251
     38 H           0.5782   -3.3400    0.2951 H       1  UNL1        0.0549
     39 H           2.3463   -2.6249   -2.3856 H       1  UNL1        0.0621
     40 H           4.4827   -1.3379   -2.4817 H       1  UNL1        0.0624
     41 H           5.4515    0.5660   -2.8188 H       1  UNL1        0.0626
     42 H           7.6024    1.8797   -2.8605 H       1  UNL1        0.0672
     43 H           8.6288    2.7670    1.4561 H       1  UNL1        0.0457
     44 H           8.6660    0.9814    1.8712 H       1  UNL1        0.0457
     45 H           7.2637    1.9655    2.4139 H       1  UNL1        0.0457
     46 H           5.7479    0.4736    1.3855 H       1  UNL1        0.0816
     47 H           3.6397    0.5181    1.2073 H       1  UNL1        0.0624
     48 H           1.5085   -0.7442    1.3372 H       1  UNL1        0.0621
     49 H          -0.5620    0.4434   -0.1043 H       1  UNL1        0.0467
     50 H          -0.5404   -0.3734   -1.7774 H       1  UNL1        0.0467
     51 H          -2.7448   -1.3071   -1.2232 H       1  UNL1        0.0322
     52 H          -2.6359    0.4607   -1.4931 H       1  UNL1        0.0322
     53 H          -4.1024   -1.9833    0.6598 H       1  UNL1        0.0335
     54 H          -4.5561   -0.8636    1.9300 H       1  UNL1        0.0335
     55 H          -4.8140    0.0274   -1.9364 H       1  UNL1        0.0257
     56 H          -6.4594   -0.7428   -1.8427 H       1  UNL1        0.0257
     57 H          -4.9832   -1.7222   -1.5926 H       1  UNL1        0.0257
     58 H          -7.4875   -1.3345   -0.1223 H       1  UNL1        0.0257
     59 H          -6.2545   -2.4603    0.6590 H       1  UNL1        0.0257
     60 H          -6.9809   -1.1089    1.5649 H       1  UNL1        0.0257
     61 H          -6.8385    0.8520   -0.1022 H       1  UNL1        0.2101
     62 H          -3.8594    0.7549    2.9030 H       1  UNL1        0.0622
     63 H          -3.9454    3.0319    3.7741 H       1  UNL1        0.0618
     64 H          -3.1346    4.8695    2.4521 H       1  UNL1        0.0618
     65 H          -2.2126    4.4202    0.1927 H       1  UNL1        0.0618
     66 H          -2.1250    2.1500   -0.6776 H       1  UNL1        0.0622
@<TRIPOS>BOND
     1     1     2    1
     2     2     3    1
     3     3     4   ar
     4     4     5   ar
     5     5     6   ar
     6     6     7    1
     7     7     8   ar
     8     8     9   ar
     9     9    10   ar
    10    10    11    2
    11    10    12   ar
    12    12    13    1
    13    12    14   ar
    14     6    15   ar
    15    15    16   ar
    16     2    17    1
    17    17    18    1
    18    18    19    1
    19    19    20    1
    20    20    21    1
    21    21    22    1
    22    22    23    1
    23    22    24    1
    24    22    25    1
    25    20    26    1
    26    26    27   ar
    27    27    28   ar
    28    28    29   ar
    29    29    30   ar
    30    30    31   ar
    31    20    32    1
    32    32    33    1
    33    33    34    2
    34    16     3   ar
    35    33    17   am
    36    14     7   ar
    37    31    26   ar
    38     1    35    1
    39     1    36    1
    40     1    37    1
    41     2    38    1
    42     4    39    1
    43     5    40    1
    44     8    41    1
    45     9    42    1
    46    13    43    1
    47    13    44    1
    48    13    45    1
    49    14    46    1
    50    15    47    1
    51    16    48    1
    52    18    49    1
    53    18    50    1
    54    19    51    1
    55    19    52    1
    56    21    53    1
    57    21    54    1
    58    23    55    1
    59    23    56    1
    60    23    57    1
    61    24    58    1
    62    24    59    1
    63    24    60    1
    64    25    61    1
    65    27    62    1
    66    28    63    1
    67    29    64    1
    68    30    65    1
    69    31    66    1
