@<TRIPOS>MOLECULE
*****
 39 42 0 0 0
SMALL
GASTEIGER

@<TRIPOS>ATOM
      1 N          -7.3567   -1.0357   -0.9634 N.1     1  UNL1       -0.1909
      2 C          -6.2742   -1.0918   -0.5915 C.1     1  UNL1        0.0992
      3 C          -4.9098   -1.1376   -0.1267 C.ar    1  UNL1        0.0525
      4 C          -3.8725   -1.3483   -0.9936 C.ar    1  UNL1       -0.0424
      5 C          -2.5373   -1.3995   -0.5814 C.ar    1  UNL1       -0.0363
      6 C          -2.2358   -1.2333    0.7455 C.ar    1  UNL1        0.0526
      7 C          -3.2756   -1.0166    1.6513 C.ar    1  UNL1       -0.0000
      8 C          -3.0261   -0.8426    2.9897 C.ar    1  UNL1       -0.0475
      9 C          -1.7182   -0.8881    3.4144 C.ar    1  UNL1        0.0036
     10 C          -0.7327   -1.1044    2.4815 C.ar    1  UNL1        0.2522
     11 O           0.4678   -1.1476    2.8613 O.2     1  UNL1       -0.2677
     12 N          -0.9696   -1.2750    1.1736 N.ar    1  UNL1       -0.2993
     13 C           0.1043   -1.4938    0.2669 C.3     1  UNL1        0.1032
     14 C           0.6392   -0.2175   -0.3062 C.2     1  UNL1        0.2375
     15 O           0.1572    0.9008    0.0106 O.2     1  UNL1       -0.2735
     16 N           1.7149   -0.2029   -1.2340 N.am    1  UNL1       -0.2779
     17 C           2.1967    1.0098   -1.7556 C.ar    1  UNL1        0.0836
     18 S           1.4006    1.7432   -3.2688 S.2     1  UNL1       -0.0801
     19 C           2.4820    3.1756   -3.3139 C.ar    1  UNL1       -0.0078
     20 C           3.3116    2.9882   -2.2367 C.ar    1  UNL1        0.0374
     21 BR          4.6720    4.3672   -1.9259 Br      1  UNL1       -0.0490
     22 C           3.1504    1.8956   -1.4704 C.ar    1  UNL1        0.0614
     23 C           4.0488    1.6293   -0.2939 C.ar    1  UNL1        0.1648
     24 N           5.0502    2.3963    0.1508 N.ar    1  UNL1       -0.1295
     25 N           5.6315    1.8419    1.2000 N.ar    1  UNL1       -0.1377
     26 C           5.0070    0.6973    1.4495 C.ar    1  UNL1        0.1175
     27 N           4.0259    0.5764    0.5147 N.ar    1  UNL1       -0.3276
     28 C          -4.5753   -0.9733    1.2052 C.ar    1  UNL1       -0.0352
     29 H          -4.0784   -1.4837   -2.0513 H       1  UNL1        0.0631
     30 H          -1.7768   -1.5634   -1.2968 H       1  UNL1        0.0639
     31 H          -3.8702   -0.6765    3.6568 H       1  UNL1        0.0626
     32 H          -1.4995   -0.7542    4.4598 H       1  UNL1        0.0672
     33 H           0.9722   -1.9001    0.8759 H       1  UNL1        0.0589
     34 H          -0.0514   -2.2297   -0.5213 H       1  UNL1        0.0589
     35 H           2.1565   -1.0937   -1.5360 H       1  UNL1        0.1554
     36 H           2.4216    3.9640   -4.0624 H       1  UNL1        0.0705
     37 H           5.1851   -0.0267    2.2096 H       1  UNL1        0.1046
     38 H           3.3640   -0.2438    0.4600 H       1  UNL1        0.1683
     39 H          -5.3995   -0.8058    1.8938 H       1  UNL1        0.0637
@<TRIPOS>BOND
     1     1     2    3
     2     2     3    1
     3     3     4   ar
     4     4     5   ar
     5     5     6   ar
     6     6     7   ar
     7     7     8   ar
     8     8     9   ar
     9     9    10   ar
    10    10    11    2
    11    10    12   ar
    12    12    13    1
    13    13    14    1
    14    14    15    2
    15    14    16   am
    16    16    17    1
    17    17    18   ar
    18    18    19   ar
    19    19    20   ar
    20    20    21    1
    21    20    22   ar
    22    22    23    1
    23    23    24   ar
    24    24    25   ar
    25    25    26   ar
    26    26    27   ar
    27     7    28   ar
    28    28     3   ar
    29    12     6   ar
    30    22    17   ar
    31    27    23   ar
    32     4    29    1
    33     5    30    1
    34     8    31    1
    35     9    32    1
    36    13    33    1
    37    13    34    1
    38    16    35    1
    39    19    36    1
    40    26    37    1
    41    27    38    1
    42    28    39    1
