@<TRIPOS>MOLECULE
*****
 40 42 0 0 0
SMALL
GASTEIGER

@<TRIPOS>ATOM
      1 N          -0.6523    4.9943    0.0416 N.1     1  UNL1       -0.1943
      2 C          -0.8078    3.8992    0.3882 C.1     1  UNL1        0.0890
      3 C          -1.0303    2.4941    0.8209 C.3     1  UNL1        0.1289
      4 N           0.0676    1.6168    0.5771 N.am    1  UNL1       -0.2922
      5 C           0.5708    1.3563   -0.7201 C.2     1  UNL1        0.2627
      6 O          -0.0174    1.9562   -1.6827 O.2     1  UNL1       -0.2696
      7 C           1.6889    0.4710   -1.0277 C.3     1  UNL1        0.0578
      8 N           1.9979    0.3705   -2.4186 N.4     1  UNL1        0.2276
      9 C           1.5321   -0.9081   -0.4024 C.3     1  UNL1        0.0330
     10 C           2.7220   -1.7656   -0.7687 C.ar    1  UNL1        0.0307
     11 S           2.8278   -3.0406   -1.9366 S.2     1  UNL1       -0.0985
     12 C           4.6244   -3.4677   -1.6710 C.ar    1  UNL1       -0.0213
     13 C           4.9172   -2.5711   -0.7124 C.ar    1  UNL1       -0.0191
     14 C           4.0123   -1.7154   -0.2396 C.ar    1  UNL1        0.1337
     15 F           4.3002   -0.7751    0.7587 F       1  UNL1       -0.2046
     16 C          -1.6923    2.3966    2.1787 C.3     1  UNL1       -0.0079
     17 C          -2.4370    2.0642    0.8905 C.3     1  UNL1        0.0216
     18 C          -2.9023    0.6812    0.8147 C.ar    1  UNL1       -0.0411
     19 C          -2.2497   -0.3943    1.3700 C.ar    1  UNL1       -0.0582
     20 C          -2.7842   -1.6673    1.2305 C.ar    1  UNL1       -0.0615
     21 C          -3.9591   -1.8966    0.5478 C.ar    1  UNL1       -0.0617
     22 C          -4.6283   -0.8326   -0.0160 C.ar    1  UNL1       -0.0615
     23 C          -4.0830    0.4155    0.1340 C.ar    1  UNL1       -0.0582
     24 H           0.5293    1.1459    1.3783 H       1  UNL1        0.1504
     25 H           2.5992    0.9005   -0.5203 H       1  UNL1        0.0952
     26 H           2.7232   -0.3984   -2.5225 H       1  UNL1        0.2002
     27 H           2.4560    1.2261   -2.8013 H       1  UNL1        0.2002
     28 H           1.1648    0.1795   -3.0178 H       1  UNL1        0.2002
     29 H           1.5686   -0.8390    0.7061 H       1  UNL1        0.0379
     30 H           0.6417   -1.4472   -0.7776 H       1  UNL1        0.0379
     31 H           5.0960   -4.2122   -2.2000 H       1  UNL1        0.0694
     32 H           5.9901   -2.5788   -0.3195 H       1  UNL1        0.0652
     33 H          -2.0376    3.3227    2.6818 H       1  UNL1        0.0303
     34 H          -1.4198    1.5912    2.8633 H       1  UNL1        0.0303
     35 H          -3.1806    2.8233    0.5076 H       1  UNL1        0.0381
     36 H          -1.3237   -0.2303    1.9135 H       1  UNL1        0.0620
     37 H          -2.2514   -2.4993    1.6775 H       1  UNL1        0.0618
     38 H          -4.3611   -2.9074    0.4504 H       1  UNL1        0.0618
     39 H          -5.5580   -0.9906   -0.5591 H       1  UNL1        0.0618
     40 H          -4.6542    1.2325   -0.3334 H       1  UNL1        0.0620
@<TRIPOS>UNITY_ATOM_ATTR
8 1
charge 1
@<TRIPOS>BOND
     1     1     2    3
     2     3     2    1
     3     3     4    1
     4     4     5   am
     5     5     6    2
     6     5     7    1
     7     7     8    1
     8     7     9    1
     9     9    10    1
    10    10    11   ar
    11    11    12   ar
    12    12    13   ar
    13    13    14   ar
    14    14    15    1
    15     3    16    1
    16    16    17    1
    17    17    18    1
    18    18    19   ar
    19    19    20   ar
    20    20    21   ar
    21    21    22   ar
    22    22    23   ar
    23    17     3    1
    24    23    18   ar
    25    14    10   ar
    26     4    24    1
    27     7    25    1
    28     8    26    1
    29     8    27    1
    30     8    28    1
    31     9    29    1
    32     9    30    1
    33    12    31    1
    34    13    32    1
    35    16    33    1
    36    16    34    1
    37    17    35    1
    38    19    36    1
    39    20    37    1
    40    21    38    1
    41    22    39    1
    42    23    40    1
