@<TRIPOS>MOLECULE
*****
 41 43 0 0 0
SMALL
GASTEIGER

@<TRIPOS>ATOM
      1 C           0.5367    4.2547   -0.9330 C.3     1  UNL1       -0.0060
      2 C           0.5597    2.7569   -0.7557 C.2     1  UNL1        0.1312
      3 O           0.5910    2.4860   -1.9697 O.2     1  UNL1       -0.2977
      4 C           0.5352    2.4028    0.6539 C.3     1  UNL1        0.0167
      5 C           0.5646    0.9946    1.0817 C.3     1  UNL1        0.0262
      6 C           1.7054    0.1682    0.7083 C.ar    1  UNL1       -0.0388
      7 C           2.7043    0.3333   -0.2225 C.ar    1  UNL1       -0.0516
      8 C           3.7263   -0.5463   -0.4892 C.ar    1  UNL1        0.0159
      9 C           3.7428   -1.6992    0.2517 C.ar    1  UNL1        0.2732
     10 C           2.8012   -1.9621    1.1999 C.ar    1  UNL1        0.0159
     11 C           1.8100   -1.0412    1.4140 C.ar    1  UNL1       -0.0516
     12 N           4.7810   -2.6342    0.0076 N.pl3   1  UNL1        0.0796
     13 O           4.9083   -3.8252    0.6822 O.co2   1  UNL1       -0.5760
     14 O           5.6692   -2.4573   -0.8402 O.2     1  UNL1        0.0414
     15 C          -0.7302    0.3137    0.8759 C.ar    1  UNL1        0.0866
     16 C          -1.2519   -0.2508   -0.2649 C.ar    1  UNL1        0.1381
     17 O          -0.4753   -0.2303   -1.3935 O.3     1  UNL1       -0.5055
     18 C          -2.4946   -0.8350   -0.3464 C.ar    1  UNL1        0.0593
     19 C          -2.9174   -1.3691   -1.5412 C.ar    1  UNL1       -0.0475
     20 C          -4.1629   -1.9588   -1.6383 C.ar    1  UNL1       -0.0609
     21 C          -4.9571   -1.9967   -0.5232 C.ar    1  UNL1       -0.0582
     22 C          -4.5653   -1.4659    0.7087 C.ar    1  UNL1       -0.0185
     23 C          -3.3174   -0.8898    0.7545 C.ar    1  UNL1        0.1426
     24 O          -2.8477   -0.3591    1.8638 O.2     1  UNL1       -0.4217
     25 C          -1.6600    0.1935    1.9201 C.ar    1  UNL1        0.3446
     26 O          -1.3634    0.6572    3.0683 O.2     1  UNL1       -0.2447
     27 H           0.5000    4.7996    0.0536 H       1  UNL1        0.0306
     28 H          -0.3791    4.5991   -1.4714 H       1  UNL1        0.0306
     29 H           1.4095    4.6540   -1.4501 H       1  UNL1        0.0306
     30 H           1.4062    2.9423    1.1636 H       1  UNL1        0.0351
     31 H          -0.3473    2.9394    1.1400 H       1  UNL1        0.0351
     32 H           0.6453    1.0201    2.2539 H       1  UNL1        0.0405
     33 H           2.6400    1.2627   -0.7639 H       1  UNL1        0.0623
     34 H           4.4372   -0.2653   -1.2591 H       1  UNL1        0.0685
     35 H           2.8604   -2.8858    1.7559 H       1  UNL1        0.0685
     36 H           1.0900   -1.3245    2.1926 H       1  UNL1        0.0623
     37 H          -0.2019   -1.1138   -1.8299 H       1  UNL1        0.2922
     38 H          -2.2797   -1.3385   -2.4355 H       1  UNL1        0.0626
     39 H          -4.5232   -2.3862   -2.5596 H       1  UNL1        0.0618
     40 H          -5.9576   -2.4499   -0.5296 H       1  UNL1        0.0619
     41 H          -5.1924   -1.4934    1.5978 H       1  UNL1        0.0654
@<TRIPOS>UNITY_ATOM_ATTR
12 1
charge 1
13 1
charge -1
@<TRIPOS>BOND
     1     1     2    1
     2     2     3    2
     3     2     4    1
     4     4     5    1
     5     5     6    1
     6     6     7   ar
     7     7     8   ar
     8     8     9   ar
     9     9    10   ar
    10    10    11   ar
    11     9    12    1
    12    12    13    1
    13    12    14    2
    14     5    15    1
    15    15    16   ar
    16    16    17    1
    17    16    18   ar
    18    18    19   ar
    19    19    20   ar
    20    20    21   ar
    21    21    22   ar
    22    22    23   ar
    23    23    24   ar
    24    24    25   ar
    25    25    26    2
    26    11     6   ar
    27    25    15   ar
    28    23    18   ar
    29     1    27    1
    30     1    28    1
    31     1    29    1
    32     4    30    1
    33     4    31    1
    34     5    32    1
    35     7    33    1
    36     8    34    1
    37    10    35    1
    38    11    36    1
    39    17    37    1
    40    19    38    1
    41    20    39    1
    42    21    40    1
    43    22    41    1
