
     RDKit          3D

 42 45  0  0  0  0  0  0  0  0999 V2000
    0.7546    0.8472   -1.1651 O   0  0  0  0  0  0  0  0  0  0  0  0
    0.9152   -0.3357   -0.8626 C   0  0  0  0  0  0  0  0  0  0  0  0
   -0.1479   -1.1854   -1.0758 O   0  0  0  0  0  0  0  0  0  0  0  0
   -1.4097   -0.9482   -1.5723 C   0  0  0  0  0  0  0  0  0  0  0  0
   -2.3681   -0.1181   -0.8248 C   0  0  0  0  0  0  0  0  0  0  0  0
   -2.0576    1.2888   -0.5209 C   0  0  0  0  0  0  0  0  0  0  0  0
   -3.4115    1.9510   -0.1361 C   0  0  0  0  0  0  0  0  0  0  0  0
   -4.3098    0.9569    0.4240 N   0  0  0  0  0  0  0  0  0  0  0  0
   -3.5580    0.1070    1.3559 C   0  0  0  0  0  0  0  0  0  0  0  0
   -2.7085   -0.8026    0.5132 C   0  0  0  0  0  0  0  0  0  0  0  0
   -4.7939    0.0551   -0.6204 C   0  0  0  0  0  0  0  0  0  0  0  0
   -3.6802   -0.1145   -1.6443 C   0  0  0  0  0  0  0  0  0  0  0  0
    2.1709   -0.8304   -0.3025 C   0  0  0  0  0  0  0  0  0  0  0  0
    2.4202   -2.1620    0.0672 C   0  0  0  0  0  0  0  0  0  0  0  0
    3.6349   -2.3178    0.5426 N   0  0  0  0  0  0  0  0  0  0  0  0
    4.2026   -1.0907    0.4927 C   0  0  0  0  0  0  0  0  0  0  0  0
    5.4769   -0.7502    0.8853 C   0  0  0  0  0  0  0  0  0  0  0  0
    5.8753    0.5586    0.7560 C   0  0  0  0  0  0  0  0  0  0  0  0
    7.1668    0.8895    1.1569 O   0  0  0  0  0  0  0  0  0  0  0  0
    5.0174    1.4965    0.2468 C   0  0  0  0  0  0  0  0  0  0  0  0
    3.7323    1.1666   -0.1521 C   0  0  0  0  0  0  0  0  0  0  0  0
    2.6678    2.3820   -0.7950 Cl  0  0  0  0  0  0  0  0  0  0  0  0
    3.3224   -0.1502   -0.0251 C   0  0  0  0  0  0  0  0  0  0  0  0
   -1.2613   -0.5748   -2.6381 H   0  0  0  0  0  0  0  0  0  0  0  0
   -1.9153   -1.9599   -1.7382 H   0  0  0  0  0  0  0  0  0  0  0  0
   -1.3628    1.4537    0.3106 H   0  0  0  0  0  0  0  0  0  0  0  0
   -1.7043    1.7990   -1.4609 H   0  0  0  0  0  0  0  0  0  0  0  0
   -3.8817    2.3837   -1.0271 H   0  0  0  0  0  0  0  0  0  0  0  0
   -3.2439    2.7189    0.6443 H   0  0  0  0  0  0  0  0  0  0  0  0
   -4.3392   -0.4909    1.8928 H   0  0  0  0  0  0  0  0  0  0  0  0
   -2.9947    0.6844    2.0904 H   0  0  0  0  0  0  0  0  0  0  0  0
   -1.7124   -0.9572    1.0137 H   0  0  0  0  0  0  0  0  0  0  0  0
   -3.1794   -1.7886    0.3265 H   0  0  0  0  0  0  0  0  0  0  0  0
   -4.9668   -0.9392   -0.1644 H   0  0  0  0  0  0  0  0  0  0  0  0
   -5.7299    0.3938   -1.0683 H   0  0  0  0  0  0  0  0  0  0  0  0
   -3.7804   -1.0535   -2.2181 H   0  0  0  0  0  0  0  0  0  0  0  0
   -3.6319    0.7793   -2.2864 H   0  0  0  0  0  0  0  0  0  0  0  0
    1.6371   -2.9257   -0.0584 H   0  0  0  0  0  0  0  0  0  0  0  0
    4.0396   -3.2150    0.8780 H   0  0  0  0  0  0  0  0  0  0  0  0
    6.1711   -1.4988    1.2952 H   0  0  0  0  0  0  0  0  0  0  0  0
    7.6121    1.7687    0.9598 H   0  0  0  0  0  0  0  0  0  0  0  0
    5.3318    2.5287    0.1448 H   0  0  0  0  0  0  0  0  0  0  0  0
  1  2  2  0
  2  3  1  0
  3  4  1  0
  4  5  1  0
  5  6  1  0
  6  7  1  0
  7  8  1  0
  8  9  1  0
  9 10  1  0
  8 11  1  0
 11 12  1  0
  2 13  1  0
 13 14  2  0
 14 15  1  0
 15 16  1  0
 16 17  2  0
 17 18  1  0
 18 19  1  0
 18 20  2  0
 20 21  1  0
 21 22  1  0
 21 23  2  0
 10  5  1  0
 23 13  1  0
 12  5  1  0
 23 16  1  0
  4 24  1  0
  4 25  1  0
  6 26  1  0
  6 27  1  0
  7 28  1  0
  7 29  1  0
  9 30  1  0
  9 31  1  0
 10 32  1  0
 10 33  1  0
 11 34  1  0
 11 35  1  0
 12 36  1  0
 12 37  1  0
 14 38  1  0
 15 39  1  0
 17 40  1  0
 19 41  1  0
 20 42  1  0
M  END
$$$$
