@<TRIPOS>MOLECULE
*****
 42 45 0 0 0
SMALL
GASTEIGER

@<TRIPOS>ATOM
      1 O           0.7546    0.8472   -1.1651 O.2     1  UNL1       -0.2449
      2 C           0.9152   -0.3357   -0.8626 C.2     1  UNL1        0.3413
      3 O          -0.1479   -1.1854   -1.0758 O.3     1  UNL1       -0.4605
      4 C          -1.4097   -0.9482   -1.5723 C.3     1  UNL1        0.0985
      5 C          -2.3681   -0.1181   -0.8248 C.3     1  UNL1        0.0084
      6 C          -2.0576    1.2888   -0.5209 C.3     1  UNL1       -0.0313
      7 C          -3.4115    1.9510   -0.1361 C.3     1  UNL1       -0.0005
      8 N          -4.3098    0.9569    0.4240 N.3     1  UNL1       -0.3023
      9 C          -3.5580    0.1070    1.3559 C.3     1  UNL1       -0.0005
     10 C          -2.7085   -0.8026    0.5132 C.3     1  UNL1       -0.0313
     11 C          -4.7939    0.0551   -0.6204 C.3     1  UNL1       -0.0005
     12 C          -3.6802   -0.1145   -1.6443 C.3     1  UNL1       -0.0313
     13 C           2.1709   -0.8304   -0.3025 C.ar    1  UNL1        0.0853
     14 C           2.4202   -2.1620    0.0672 C.ar    1  UNL1        0.0168
     15 N           3.6349   -2.3178    0.5426 N.ar    1  UNL1       -0.3597
     16 C           4.2026   -1.0907    0.4927 C.ar    1  UNL1        0.0522
     17 C           5.4769   -0.7502    0.8853 C.ar    1  UNL1        0.0038
     18 C           5.8753    0.5586    0.7560 C.ar    1  UNL1        0.1202
     19 O           7.1668    0.8895    1.1569 O.3     1  UNL1       -0.5067
     20 C           5.0174    1.4965    0.2468 C.ar    1  UNL1       -0.0011
     21 C           3.7323    1.1666   -0.1521 C.ar    1  UNL1        0.0543
     22 CL          2.6678    2.3820   -0.7950 Cl      1  UNL1       -0.0827
     23 C           3.3224   -0.1502   -0.0251 C.ar    1  UNL1        0.0322
     24 H          -1.2613   -0.5748   -2.6381 H       1  UNL1        0.0703
     25 H          -1.9153   -1.9599   -1.7382 H       1  UNL1        0.0703
     26 H          -1.3628    1.4537    0.3106 H       1  UNL1        0.0284
     27 H          -1.7043    1.7990   -1.4609 H       1  UNL1        0.0284
     28 H          -3.8817    2.3837   -1.0271 H       1  UNL1        0.0427
     29 H          -3.2439    2.7189    0.6443 H       1  UNL1        0.0427
     30 H          -4.3392   -0.4909    1.8928 H       1  UNL1        0.0427
     31 H          -2.9947    0.6844    2.0904 H       1  UNL1        0.0427
     32 H          -1.7124   -0.9572    1.0137 H       1  UNL1        0.0284
     33 H          -3.1794   -1.7886    0.3265 H       1  UNL1        0.0284
     34 H          -4.9668   -0.9392   -0.1644 H       1  UNL1        0.0427
     35 H          -5.7299    0.3938   -1.0683 H       1  UNL1        0.0427
     36 H          -3.7804   -1.0535   -2.2181 H       1  UNL1        0.0284
     37 H          -3.6319    0.7793   -2.2864 H       1  UNL1        0.0284
     38 H           1.6371   -2.9257   -0.0584 H       1  UNL1        0.0815
     39 H           4.0396   -3.2150    0.8780 H       1  UNL1        0.1654
     40 H           6.1711   -1.4988    1.2952 H       1  UNL1        0.0675
     41 H           7.6121    1.7687    0.9598 H       1  UNL1        0.2921
     42 H           5.3318    2.5287    0.1448 H       1  UNL1        0.0669
@<TRIPOS>BOND
     1     1     2    2
     2     2     3    1
     3     3     4    1
     4     4     5    1
     5     5     6    1
     6     6     7    1
     7     7     8    1
     8     8     9    1
     9     9    10    1
    10     8    11    1
    11    11    12    1
    12     2    13    1
    13    13    14   ar
    14    14    15   ar
    15    15    16   ar
    16    16    17   ar
    17    17    18   ar
    18    18    19    1
    19    18    20   ar
    20    20    21   ar
    21    21    22    1
    22    21    23   ar
    23    10     5    1
    24    23    13   ar
    25    12     5    1
    26    23    16   ar
    27     4    24    1
    28     4    25    1
    29     6    26    1
    30     6    27    1
    31     7    28    1
    32     7    29    1
    33     9    30    1
    34     9    31    1
    35    10    32    1
    36    10    33    1
    37    11    34    1
    38    11    35    1
    39    12    36    1
    40    12    37    1
    41    14    38    1
    42    15    39    1
    43    17    40    1
    44    19    41    1
    45    20    42    1
