
     RDKit          3D

 50 52  0  0  0  0  0  0  0  0999 V2000
    1.2160    1.5690   -3.5659 C   0  0  0  0  0  0  0  0  0  0  0  0
    1.9198    1.1721   -2.4357 O   0  0  0  0  0  0  0  0  0  0  0  0
    1.3282    0.6394   -1.3271 C   0  0  0  0  0  0  0  0  0  0  0  0
   -0.0210    0.4046   -1.1550 C   0  0  0  0  0  0  0  0  0  0  0  0
   -0.5572   -0.1383    0.0018 C   0  0  0  0  0  0  0  0  0  0  0  0
   -2.0149   -0.2781    0.1901 C   0  0  0  0  0  0  0  0  0  0  0  0
   -2.7124   -1.4359    0.2330 C   0  0  0  0  0  0  0  0  0  0  0  0
   -4.0554   -1.4592    0.4033 N   0  0  0  0  0  0  0  0  0  0  0  0
   -4.8219   -2.6704    0.4440 C   0  0  0  0  0  0  0  0  0  0  0  0
   -4.6819   -0.2594    0.5304 C   0  0  0  0  0  0  0  0  0  0  0  0
   -5.9157   -0.2859    0.6883 O   0  0  0  0  0  0  0  0  0  0  0  0
   -4.0358    0.9400    0.4968 C   0  0  0  0  0  0  0  0  0  0  0  0
   -4.6849    2.1660    0.6465 C   0  0  0  0  0  0  0  0  0  0  0  0
   -4.0296    3.3729    0.6302 C   0  0  0  0  0  0  0  0  0  0  0  0
   -2.6750    3.3537    0.4601 C   0  0  0  0  0  0  0  0  0  0  0  0
   -2.0019    2.1559    0.3085 C   0  0  0  0  0  0  0  0  0  0  0  0
   -2.6725    0.9317    0.3233 C   0  0  0  0  0  0  0  0  0  0  0  0
    0.3085   -0.4647    1.0328 C   0  0  0  0  0  0  0  0  0  0  0  0
    1.6334   -0.2545    0.9092 C   0  0  0  0  0  0  0  0  0  0  0  0
    2.5019   -0.5779    1.9267 O   0  0  0  0  0  0  0  0  0  0  0  0
    1.9834   -1.1829    3.0900 C   0  0  0  0  0  0  0  0  0  0  0  0
    2.1432    0.2890   -0.2410 C   0  0  0  0  0  0  0  0  0  0  0  0
    3.6044    0.4355   -0.3524 C   0  0  0  0  0  0  0  0  0  0  0  0
    4.3046   -0.7676   -0.1025 N   0  0  0  0  0  0  0  0  0  0  0  0
    4.0069   -1.9447   -0.7859 C   0  0  0  0  0  0  0  0  0  0  0  0
    5.5653   -0.7025    0.5209 C   0  0  0  0  0  0  0  0  0  0  0  0
    0.1481    1.3197   -3.5948 H   0  0  0  0  0  0  0  0  0  0  0  0
    1.2694    2.7040   -3.7002 H   0  0  0  0  0  0  0  0  0  0  0  0
    1.6676    1.1539   -4.5083 H   0  0  0  0  0  0  0  0  0  0  0  0
   -0.7304    0.6555   -1.9642 H   0  0  0  0  0  0  0  0  0  0  0  0
   -2.1692   -2.3779    0.1200 H   0  0  0  0  0  0  0  0  0  0  0  0
   -4.2413   -3.4836   -0.0593 H   0  0  0  0  0  0  0  0  0  0  0  0
   -5.1406   -2.9314    1.4688 H   0  0  0  0  0  0  0  0  0  0  0  0
   -5.7647   -2.5604   -0.1770 H   0  0  0  0  0  0  0  0  0  0  0  0
   -5.7436    2.1631    0.7841 H   0  0  0  0  0  0  0  0  0  0  0  0
   -4.5029    4.3389    0.7377 H   0  0  0  0  0  0  0  0  0  0  0  0
   -2.0934    4.2598    0.4403 H   0  0  0  0  0  0  0  0  0  0  0  0
   -0.9320    2.1412    0.1796 H   0  0  0  0  0  0  0  0  0  0  0  0
   -0.1520   -0.9002    1.9428 H   0  0  0  0  0  0  0  0  0  0  0  0
    2.7986   -1.7778    3.6070 H   0  0  0  0  0  0  0  0  0  0  0  0
    1.5361   -0.5633    3.8326 H   0  0  0  0  0  0  0  0  0  0  0  0
    1.3042   -2.0240    2.7112 H   0  0  0  0  0  0  0  0  0  0  0  0
    3.9542    1.2957    0.2218 H   0  0  0  0  0  0  0  0  0  0  0  0
    3.7821    0.6757   -1.4803 H   0  0  0  0  0  0  0  0  0  0  0  0
    4.7789   -2.7600   -0.6464 H   0  0  0  0  0  0  0  0  0  0  0  0
    3.8734   -1.8399   -1.8968 H   0  0  0  0  0  0  0  0  0  0  0  0
    3.0698   -2.4252   -0.3461 H   0  0  0  0  0  0  0  0  0  0  0  0
    5.4087   -0.8732    1.6236 H   0  0  0  0  0  0  0  0  0  0  0  0
    6.0328    0.3032    0.4570 H   0  0  0  0  0  0  0  0  0  0  0  0
    6.2108   -1.5014    0.1489 H   0  0  0  0  0  0  0  0  0  0  0  0
  1  2  1  0
  2  3  1  0
  3  4  2  0
  4  5  1  0
  5  6  1  0
  6  7  2  0
  7  8  1  0
  8  9  1  0
  8 10  1  0
 10 11  2  0
 10 12  1  0
 12 13  2  0
 13 14  1  0
 14 15  2  0
 15 16  1  0
 16 17  2  0
  5 18  2  0
 18 19  1  0
 19 20  1  0
 20 21  1  0
 19 22  2  0
 22 23  1  0
 23 24  1  0
 24 25  1  0
 24 26  1  0
 22  3  1  0
 17  6  1  0
 17 12  1  0
  1 27  1  0
  1 28  1  0
  1 29  1  0
  4 30  1  0
  7 31  1  0
  9 32  1  0
  9 33  1  0
  9 34  1  0
 13 35  1  0
 14 36  1  0
 15 37  1  0
 16 38  1  0
 18 39  1  0
 21 40  1  0
 21 41  1  0
 21 42  1  0
 23 43  1  0
 23 44  1  0
 25 45  1  0
 25 46  1  0
 25 47  1  0
 26 48  1  0
 26 49  1  0
 26 50  1  0
M  END
$$$$
