@<TRIPOS>MOLECULE
*****
 50 52 0 0 0
SMALL
GASTEIGER

@<TRIPOS>ATOM
      1 C           1.2160    1.5690   -3.5659 C.3     1  UNL1        0.0788
      2 O           1.9198    1.1721   -2.4357 O.3     1  UNL1       -0.4947
      3 C           1.3282    0.6394   -1.3271 C.ar    1  UNL1        0.1285
      4 C          -0.0210    0.4046   -1.1550 C.ar    1  UNL1       -0.0116
      5 C          -0.5572   -0.1383    0.0018 C.ar    1  UNL1       -0.0090
      6 C          -2.0149   -0.2781    0.1901 C.ar    1  UNL1        0.0064
      7 C          -2.7124   -1.4359    0.2330 C.ar    1  UNL1        0.0159
      8 N          -4.0554   -1.4592    0.4033 N.ar    1  UNL1       -0.3172
      9 C          -4.8219   -2.6704    0.4440 C.3     1  UNL1        0.0147
     10 C          -4.6819   -0.2594    0.5304 C.ar    1  UNL1        0.2588
     11 O          -5.9157   -0.2859    0.6883 O.2     1  UNL1       -0.2670
     12 C          -4.0358    0.9400    0.4968 C.ar    1  UNL1        0.0472
     13 C          -4.6849    2.1660    0.6465 C.ar    1  UNL1       -0.0488
     14 C          -4.0296    3.3729    0.6302 C.ar    1  UNL1       -0.0610
     15 C          -2.6750    3.3537    0.4601 C.ar    1  UNL1       -0.0611
     16 C          -2.0019    2.1559    0.3085 C.ar    1  UNL1       -0.0532
     17 C          -2.6725    0.9317    0.3233 C.ar    1  UNL1       -0.0036
     18 C           0.3085   -0.4647    1.0328 C.ar    1  UNL1       -0.0116
     19 C           1.6334   -0.2545    0.9092 C.ar    1  UNL1        0.1285
     20 O           2.5019   -0.5779    1.9267 O.3     1  UNL1       -0.4947
     21 C           1.9834   -1.1829    3.0900 C.3     1  UNL1        0.0788
     22 C           2.1432    0.2890   -0.2410 C.ar    1  UNL1        0.0497
     23 C           3.6044    0.4355   -0.3524 C.3     1  UNL1        0.0304
     24 N           4.3046   -0.7676   -0.1025 N.3     1  UNL1       -0.3039
     25 C           4.0069   -1.9447   -0.7859 C.3     1  UNL1       -0.0127
     26 C           5.5653   -0.7025    0.5209 C.3     1  UNL1       -0.0127
     27 H           0.1481    1.3197   -3.5948 H       1  UNL1        0.0660
     28 H           1.2694    2.7040   -3.7002 H       1  UNL1        0.0660
     29 H           1.6676    1.1539   -4.5083 H       1  UNL1        0.0660
     30 H          -0.7304    0.6555   -1.9642 H       1  UNL1        0.0660
     31 H          -2.1692   -2.3779    0.1200 H       1  UNL1        0.0816
     32 H          -4.2413   -3.4836   -0.0593 H       1  UNL1        0.0457
     33 H          -5.1406   -2.9314    1.4688 H       1  UNL1        0.0457
     34 H          -5.7647   -2.5604   -0.1770 H       1  UNL1        0.0457
     35 H          -5.7436    2.1631    0.7841 H       1  UNL1        0.0625
     36 H          -4.5029    4.3389    0.7377 H       1  UNL1        0.0618
     37 H          -2.0934    4.2598    0.4403 H       1  UNL1        0.0618
     38 H          -0.9320    2.1412    0.1796 H       1  UNL1        0.0624
     39 H          -0.1520   -0.9002    1.9428 H       1  UNL1        0.0660
     40 H           2.7986   -1.7778    3.6070 H       1  UNL1        0.0660
     41 H           1.5361   -0.5633    3.8326 H       1  UNL1        0.0660
     42 H           1.3042   -2.0240    2.7112 H       1  UNL1        0.0660
     43 H           3.9542    1.2957    0.2218 H       1  UNL1        0.0478
     44 H           3.7821    0.6757   -1.4803 H       1  UNL1        0.0478
     45 H           4.7789   -2.7600   -0.6464 H       1  UNL1        0.0391
     46 H           3.8734   -1.8399   -1.8968 H       1  UNL1        0.0391
     47 H           3.0698   -2.4252   -0.3461 H       1  UNL1        0.0391
     48 H           5.4087   -0.8732    1.6236 H       1  UNL1        0.0391
     49 H           6.0328    0.3032    0.4570 H       1  UNL1        0.0391
     50 H           6.2108   -1.5014    0.1489 H       1  UNL1        0.0391
@<TRIPOS>BOND
     1     1     2    1
     2     2     3    1
     3     3     4   ar
     4     4     5   ar
     5     5     6    1
     6     6     7   ar
     7     7     8   ar
     8     8     9    1
     9     8    10   ar
    10    10    11    2
    11    10    12   ar
    12    12    13   ar
    13    13    14   ar
    14    14    15   ar
    15    15    16   ar
    16    16    17   ar
    17     5    18   ar
    18    18    19   ar
    19    19    20    1
    20    20    21    1
    21    19    22   ar
    22    22    23    1
    23    23    24    1
    24    24    25    1
    25    24    26    1
    26    22     3   ar
    27    17     6   ar
    28    17    12   ar
    29     1    27    1
    30     1    28    1
    31     1    29    1
    32     4    30    1
    33     7    31    1
    34     9    32    1
    35     9    33    1
    36     9    34    1
    37    13    35    1
    38    14    36    1
    39    15    37    1
    40    16    38    1
    41    18    39    1
    42    21    40    1
    43    21    41    1
    44    21    42    1
    45    23    43    1
    46    23    44    1
    47    25    45    1
    48    25    46    1
    49    25    47    1
    50    26    48    1
    51    26    49    1
    52    26    50    1
