@<TRIPOS>MOLECULE
*****
 45 47 0 0 0
SMALL
GASTEIGER

@<TRIPOS>ATOM
      1 O           3.6242    3.3680    0.5738 O.2     1  UNL1       -0.2450
      2 C           2.6538    4.0660    0.1937 C.2     1  UNL1        0.3406
      3 O           2.8565    5.4231   -0.0346 O.3     1  UNL1       -0.4770
      4 C           1.3440    3.4821   -0.0068 C.2     1  UNL1        0.1059
      5 C           1.1765    2.1703    0.2209 C.2     1  UNL1       -0.0363
      6 C          -0.1427    1.5590    0.0234 C.2     1  UNL1       -0.0158
      7 C          -0.3272    0.2659    0.1769 C.2     1  UNL1       -0.0035
      8 C           0.7812   -0.6299    0.5393 C.ar    1  UNL1       -0.0158
      9 C           0.6572   -1.4834    1.6241 C.ar    1  UNL1       -0.0505
     10 C           1.6693   -2.3575    1.9560 C.ar    1  UNL1       -0.0188
     11 C           2.8048   -2.3509    1.1730 C.ar    1  UNL1        0.1309
     12 O           3.8591   -3.2191    1.4697 O.3     1  UNL1       -0.5059
     13 C           2.9547   -1.5183    0.0946 C.ar    1  UNL1        0.1007
     14 C           4.1592   -1.5075   -0.7293 C.2     1  UNL1        0.3404
     15 O           4.2416   -0.7249   -1.7093 O.2     1  UNL1       -0.2450
     16 O           5.2276   -2.3467   -0.4569 O.3     1  UNL1       -0.4770
     17 C           1.9129   -0.6523   -0.2091 C.ar    1  UNL1       -0.0365
     18 C          -1.6663   -0.3083    0.0657 C.ar    1  UNL1       -0.0158
     19 C          -2.7216    0.1634    0.8149 C.ar    1  UNL1       -0.0505
     20 C          -3.9898   -0.3422    0.7169 C.ar    1  UNL1       -0.0188
     21 C          -4.2008   -1.3688   -0.1767 C.ar    1  UNL1        0.1309
     22 O          -5.4458   -1.9246   -0.3286 O.3     1  UNL1       -0.5059
     23 C          -3.1835   -1.8960   -0.9659 C.ar    1  UNL1        0.1007
     24 C          -3.4342   -2.9805   -1.9059 C.2     1  UNL1        0.3404
     25 O          -2.5114   -3.4480   -2.6122 O.2     1  UNL1       -0.2450
     26 O          -4.6994   -3.5242   -2.0440 O.3     1  UNL1       -0.4770
     27 C          -1.9278   -1.3515   -0.8280 C.ar    1  UNL1       -0.0365
     28 C          -1.2617    2.3888   -0.4182 C.2     1  UNL1       -0.0503
     29 C          -1.0837    3.7047   -0.6423 C.2     1  UNL1       -0.0135
     30 C           0.2209    4.3024   -0.4466 C.2     1  UNL1        0.1929
     31 O           0.4292    5.5282   -0.6447 O.2     1  UNL1       -0.2870
     32 H           3.7118    5.8710    0.2895 H       1  UNL1        0.2954
     33 H           2.0243    1.5943    0.5687 H       1  UNL1        0.0633
     34 H          -0.2398   -1.4742    2.2258 H       1  UNL1        0.0625
     35 H           1.5774   -3.0387    2.8170 H       1  UNL1        0.0654
     36 H           4.3636   -2.9941    2.3402 H       1  UNL1        0.2922
     37 H           6.1804   -1.9627   -0.5288 H       1  UNL1        0.2954
     38 H           2.0574   -0.0113   -1.0891 H       1  UNL1        0.0633
     39 H          -2.5655    0.9736    1.5362 H       1  UNL1        0.0625
     40 H          -4.7793    0.0731    1.3339 H       1  UNL1        0.0654
     41 H          -6.2141   -1.5983    0.2384 H       1  UNL1        0.2922
     42 H          -4.8629   -4.4243   -2.4756 H       1  UNL1        0.2954
     43 H          -1.0853   -1.7226   -1.4208 H       1  UNL1        0.0633
     44 H          -2.2184    1.9451   -0.5822 H       1  UNL1        0.0625
     45 H          -1.9262    4.2817   -0.9640 H       1  UNL1        0.0656
@<TRIPOS>BOND
     1     1     2    2
     2     2     3    1
     3     2     4    1
     4     4     5    2
     5     5     6    1
     6     6     7    2
     7     7     8    1
     8     8     9   ar
     9     9    10   ar
    10    10    11   ar
    11    11    12    1
    12    11    13   ar
    13    13    14    1
    14    14    15    2
    15    14    16    1
    16    13    17   ar
    17     7    18    1
    18    18    19   ar
    19    19    20   ar
    20    20    21   ar
    21    21    22    1
    22    21    23   ar
    23    23    24    1
    24    24    25    2
    25    24    26    1
    26    23    27   ar
    27     6    28    1
    28    28    29    2
    29    29    30    1
    30    30    31    2
    31    30     4    1
    32    17     8   ar
    33    27    18   ar
    34     3    32    1
    35     5    33    1
    36     9    34    1
    37    10    35    1
    38    12    36    1
    39    16    37    1
    40    17    38    1
    41    19    39    1
    42    20    40    1
    43    22    41    1
    44    26    42    1
    45    27    43    1
    46    28    44    1
    47    29    45    1
