@<TRIPOS>MOLECULE
*****
 37 40 0 0 0
SMALL
GASTEIGER

@<TRIPOS>ATOM
      1 O           2.2626    0.1703   -1.9047 O.2     1  UNL1       -0.2697
      2 C           1.7871    0.2056   -0.7250 C.2     1  UNL1        0.2530
      3 N           2.6263   -0.1789    0.3450 N.am    1  UNL1       -0.2663
      4 C           3.9686   -0.6115    0.2517 C.ar    1  UNL1        0.1253
      5 C           4.7323   -0.7013   -0.8620 C.ar    1  UNL1       -0.0188
      6 C           6.0643   -1.1610   -0.8543 C.ar    1  UNL1       -0.0217
      7 C           6.6084   -1.5351    0.3582 C.ar    1  UNL1        0.1415
      8 F           7.8969   -1.9872    0.4098 F       1  UNL1       -0.2039
      9 C           5.8204   -1.4364    1.4786 C.ar    1  UNL1        0.0649
     10 N           4.5473   -0.9921    1.4354 N.ar    1  UNL1       -0.2373
     11 C           0.3892    0.6429   -0.5267 C.ar    1  UNL1        0.0847
     12 C          -0.5839   -0.1227   -1.0979 C.ar    1  UNL1       -0.0021
     13 C          -1.8972    0.2915   -0.9182 C.ar    1  UNL1        0.1474
     14 O          -2.9389   -0.4427   -1.4731 O.3     1  UNL1       -0.4529
     15 C          -4.0561   -0.6882   -0.7135 C.ar    1  UNL1        0.1492
     16 C          -4.0557   -1.8297    0.0611 C.ar    1  UNL1        0.0700
     17 N          -5.0876   -2.1609    0.8334 N.ar    1  UNL1       -0.2568
     18 C          -6.1730   -1.3959    0.8891 C.ar    1  UNL1        0.0630
     19 C          -6.2301   -0.2313    0.1287 C.ar    1  UNL1        0.1449
     20 F          -7.3219    0.5623    0.1704 F       1  UNL1       -0.2038
     21 C          -5.1568    0.1255   -0.6822 C.ar    1  UNL1        0.0189
     22 C          -2.2088    1.4181   -0.2000 C.ar    1  UNL1        0.0737
     23 N          -1.2368    2.1465    0.3469 N.ar    1  UNL1       -0.2161
     24 N          -1.2454    3.2635    1.0795 N.ar    1  UNL1       -0.1534
     25 C           0.0133    3.6102    1.3953 C.ar    1  UNL1        0.1390
     26 N           0.7874    2.6699    0.8328 N.ar    1  UNL1       -0.2141
     27 C           0.0418    1.7600    0.1829 C.ar    1  UNL1        0.1680
     28 H           2.1440   -0.1139    1.3038 H       1  UNL1        0.1566
     29 H           4.3479   -0.4168   -1.8164 H       1  UNL1        0.0653
     30 H           6.6344   -1.2194   -1.7545 H       1  UNL1        0.0648
     31 H           6.2653   -1.7393    2.4278 H       1  UNL1        0.0859
     32 H          -0.4414   -1.0081   -1.6679 H       1  UNL1        0.0663
     33 H          -3.2091   -2.4757    0.0494 H       1  UNL1        0.0867
     34 H          -7.0055   -1.6770    1.5194 H       1  UNL1        0.0859
     35 H          -5.1784    1.0362   -1.2916 H       1  UNL1        0.0684
     36 H          -3.2452    1.7499   -0.0546 H       1  UNL1        0.0868
     37 H           0.3343    4.4728    1.9838 H       1  UNL1        0.1066
@<TRIPOS>BOND
     1     1     2    2
     2     2     3   am
     3     3     4    1
     4     4     5   ar
     5     5     6   ar
     6     6     7   ar
     7     7     8    1
     8     7     9   ar
     9     9    10   ar
    10     2    11    1
    11    11    12   ar
    12    12    13   ar
    13    13    14    1
    14    14    15    1
    15    15    16   ar
    16    16    17   ar
    17    17    18   ar
    18    18    19   ar
    19    19    20    1
    20    19    21   ar
    21    13    22   ar
    22    22    23   ar
    23    23    24   ar
    24    24    25   ar
    25    25    26   ar
    26    26    27   ar
    27    10     4   ar
    28    27    11   ar
    29    21    15   ar
    30    27    23   ar
    31     3    28    1
    32     5    29    1
    33     6    30    1
    34     9    31    1
    35    12    32    1
    36    16    33    1
    37    18    34    1
    38    21    35    1
    39    22    36    1
    40    25    37    1
