
     RDKit          3D

 37 40  0  0  0  0  0  0  0  0999 V2000
    2.2626    0.1703   -1.9047 O   0  0  0  0  0  0  0  0  0  0  0  0
    1.7871    0.2056   -0.7250 C   0  0  0  0  0  0  0  0  0  0  0  0
    2.6263   -0.1789    0.3450 N   0  0  0  0  0  0  0  0  0  0  0  0
    3.9686   -0.6115    0.2517 C   0  0  0  0  0  0  0  0  0  0  0  0
    4.7323   -0.7013   -0.8620 C   0  0  0  0  0  0  0  0  0  0  0  0
    6.0643   -1.1610   -0.8543 C   0  0  0  0  0  0  0  0  0  0  0  0
    6.6084   -1.5351    0.3582 C   0  0  0  0  0  0  0  0  0  0  0  0
    7.8969   -1.9872    0.4098 F   0  0  0  0  0  0  0  0  0  0  0  0
    5.8204   -1.4364    1.4786 C   0  0  0  0  0  0  0  0  0  0  0  0
    4.5473   -0.9921    1.4354 N   0  0  0  0  0  0  0  0  0  0  0  0
    0.3892    0.6429   -0.5267 C   0  0  0  0  0  0  0  0  0  0  0  0
   -0.5839   -0.1227   -1.0979 C   0  0  0  0  0  0  0  0  0  0  0  0
   -1.8972    0.2915   -0.9182 C   0  0  0  0  0  0  0  0  0  0  0  0
   -2.9389   -0.4427   -1.4731 O   0  0  0  0  0  0  0  0  0  0  0  0
   -4.0561   -0.6882   -0.7135 C   0  0  0  0  0  0  0  0  0  0  0  0
   -4.0557   -1.8297    0.0611 C   0  0  0  0  0  0  0  0  0  0  0  0
   -5.0876   -2.1609    0.8334 N   0  0  0  0  0  0  0  0  0  0  0  0
   -6.1730   -1.3959    0.8891 C   0  0  0  0  0  0  0  0  0  0  0  0
   -6.2301   -0.2313    0.1287 C   0  0  0  0  0  0  0  0  0  0  0  0
   -7.3219    0.5623    0.1704 F   0  0  0  0  0  0  0  0  0  0  0  0
   -5.1568    0.1255   -0.6822 C   0  0  0  0  0  0  0  0  0  0  0  0
   -2.2088    1.4181   -0.2000 C   0  0  0  0  0  0  0  0  0  0  0  0
   -1.2368    2.1465    0.3469 N   0  0  0  0  0  0  0  0  0  0  0  0
   -1.2454    3.2635    1.0795 N   0  0  0  0  0  0  0  0  0  0  0  0
    0.0133    3.6102    1.3953 C   0  0  0  0  0  0  0  0  0  0  0  0
    0.7874    2.6699    0.8328 N   0  0  0  0  0  0  0  0  0  0  0  0
    0.0418    1.7600    0.1829 C   0  0  0  0  0  0  0  0  0  0  0  0
    2.1440   -0.1139    1.3038 H   0  0  0  0  0  0  0  0  0  0  0  0
    4.3479   -0.4168   -1.8164 H   0  0  0  0  0  0  0  0  0  0  0  0
    6.6344   -1.2194   -1.7545 H   0  0  0  0  0  0  0  0  0  0  0  0
    6.2653   -1.7393    2.4278 H   0  0  0  0  0  0  0  0  0  0  0  0
   -0.4414   -1.0081   -1.6679 H   0  0  0  0  0  0  0  0  0  0  0  0
   -3.2091   -2.4757    0.0494 H   0  0  0  0  0  0  0  0  0  0  0  0
   -7.0055   -1.6770    1.5194 H   0  0  0  0  0  0  0  0  0  0  0  0
   -5.1784    1.0362   -1.2916 H   0  0  0  0  0  0  0  0  0  0  0  0
   -3.2452    1.7499   -0.0546 H   0  0  0  0  0  0  0  0  0  0  0  0
    0.3343    4.4728    1.9838 H   0  0  0  0  0  0  0  0  0  0  0  0
  1  2  2  0
  2  3  1  0
  3  4  1  0
  4  5  2  0
  5  6  1  0
  6  7  2  0
  7  8  1  0
  7  9  1  0
  9 10  2  0
  2 11  1  0
 11 12  2  0
 12 13  1  0
 13 14  1  0
 14 15  1  0
 15 16  2  0
 16 17  1  0
 17 18  2  0
 18 19  1  0
 19 20  1  0
 19 21  2  0
 13 22  2  0
 22 23  1  0
 23 24  1  0
 24 25  2  0
 25 26  1  0
 26 27  2  0
 10  4  1  0
 27 11  1  0
 21 15  1  0
 27 23  1  0
  3 28  1  0
  5 29  1  0
  6 30  1  0
  9 31  1  0
 12 32  1  0
 16 33  1  0
 18 34  1  0
 21 35  1  0
 22 36  1  0
 25 37  1  0
M  END
$$$$
