@<TRIPOS>MOLECULE
*****
 62 65 0 0 0
SMALL
GASTEIGER

@<TRIPOS>ATOM
      1 C          -2.6218    2.0368    3.4066 C.3     1  UNL1       -0.0130
      2 N          -2.7900    0.6778    3.8648 N.3     1  UNL1       -0.3083
      3 C          -4.1819    0.4400    4.1970 C.3     1  UNL1       -0.0130
      4 C          -2.3093   -0.2308    2.8590 C.3     1  UNL1        0.0003
      5 C          -3.1793   -0.2226    1.5997 C.3     1  UNL1       -0.0175
      6 C          -2.5902   -1.1994    0.6303 C.3     1  UNL1        0.0496
      7 N          -1.2424   -0.9269    0.2224 N.am    1  UNL1       -0.3069
      8 C          -0.1995   -1.8934    0.2429 C.2     1  UNL1        0.2336
      9 O          -0.4273   -3.0670    0.6313 O.2     1  UNL1       -0.2738
     10 C           1.1771   -1.5079   -0.2022 C.3     1  UNL1        0.0965
     11 N           2.0092   -2.7178   -0.3242 N.3     1  UNL1       -0.3173
     12 C           1.1982   -0.8242   -1.5312 C.3     1  UNL1       -0.0104
     13 C           2.6537   -0.3704   -1.7445 C.3     1  UNL1        0.0156
     14 N           2.8408    0.7612   -0.8672 N.pl3   1  UNL1       -0.3144
     15 C           3.6224    1.8942   -1.1928 C.ar    1  UNL1        0.1337
     16 N           3.0723    3.1446   -1.2176 N.ar    1  UNL1       -0.2200
     17 C           3.7876    4.2402   -1.5161 C.ar    1  UNL1        0.1204
     18 N           5.0891    4.1049   -1.8006 N.ar    1  UNL1       -0.2178
     19 C           5.7196    2.9096   -1.8009 C.ar    1  UNL1        0.1432
     20 N           6.9774    2.5308   -2.0462 N.ar    1  UNL1       -0.3457
     21 C           7.0447    1.2025   -1.9004 C.ar    1  UNL1        0.0042
     22 C           5.8002    0.7143   -1.5524 C.ar    1  UNL1       -0.0318
     23 C           4.9593    1.7953   -1.4895 C.ar    1  UNL1        0.0585
     24 C           2.1683    0.7306    0.4260 C.3     1  UNL1        0.0156
     25 C           1.8686   -0.6696    0.8510 C.3     1  UNL1       -0.0104
     26 C          -3.4780   -1.4711   -0.5471 C.ar    1  UNL1       -0.0271
     27 C          -3.2984   -0.6790   -1.6824 C.ar    1  UNL1       -0.0554
     28 C          -4.0785   -0.8640   -2.8236 C.ar    1  UNL1       -0.0431
     29 C          -5.0468   -1.8428   -2.8407 C.ar    1  UNL1        0.0410
     30 CL         -6.0654   -2.1241   -4.2653 Cl      1  UNL1       -0.0835
     31 C          -5.2082   -2.6178   -1.7019 C.ar    1  UNL1       -0.0431
     32 C          -4.4398   -2.4367   -0.5777 C.ar    1  UNL1       -0.0554
     33 H          -2.5242    2.7762    4.2389 H       1  UNL1        0.0391
     34 H          -1.7281    2.0447    2.7513 H       1  UNL1        0.0391
     35 H          -3.5443    2.2914    2.8192 H       1  UNL1        0.0391
     36 H          -4.5131    1.0618    5.0488 H       1  UNL1        0.0391
     37 H          -4.2993   -0.6360    4.4970 H       1  UNL1        0.0391
     38 H          -4.8512    0.6152    3.3251 H       1  UNL1        0.0391
     39 H          -1.2592   -0.0048    2.5886 H       1  UNL1        0.0427
     40 H          -2.2851   -1.2528    3.3039 H       1  UNL1        0.0427
     41 H          -3.3126    0.7840    1.2081 H       1  UNL1        0.0299
     42 H          -4.1539   -0.6752    1.9367 H       1  UNL1        0.0299
     43 H          -2.5607   -2.2037    1.1514 H       1  UNL1        0.0549
     44 H          -0.9686    0.0294   -0.1172 H       1  UNL1        0.1493
     45 H           1.7244   -3.3093   -1.1109 H       1  UNL1        0.1192
     46 H           2.0715   -3.1849    0.5973 H       1  UNL1        0.1192
     47 H           0.9242   -1.5031   -2.3483 H       1  UNL1        0.0303
     48 H           0.6080    0.1262   -1.5292 H       1  UNL1        0.0303
     49 H           2.8338   -0.0970   -2.7886 H       1  UNL1        0.0465
     50 H           3.3367   -1.1933   -1.3882 H       1  UNL1        0.0465
     51 H           3.2939    5.2253   -1.5219 H       1  UNL1        0.1048
     52 H           7.7923    3.1634   -2.3115 H       1  UNL1        0.1668
     53 H           7.9150    0.5603   -2.0211 H       1  UNL1        0.0807
     54 H           5.5193   -0.3191   -1.3608 H       1  UNL1        0.0640
     55 H           1.2668    1.3811    0.4155 H       1  UNL1        0.0465
     56 H           2.9064    1.1360    1.1547 H       1  UNL1        0.0465
     57 H           2.8164   -1.1224    1.2236 H       1  UNL1        0.0303
     58 H           1.2306   -0.5959    1.7818 H       1  UNL1        0.0303
     59 H          -2.5537    0.0999   -1.7258 H       1  UNL1        0.0621
     60 H          -3.9542   -0.2644   -3.7091 H       1  UNL1        0.0632
     61 H          -5.9678   -3.3891   -1.7064 H       1  UNL1        0.0632
     62 H          -4.5947   -3.0610    0.2910 H       1  UNL1        0.0621
@<TRIPOS>BOND
     1     1     2    1
     2     2     3    1
     3     2     4    1
     4     4     5    1
     5     5     6    1
     6     6     7    1
     7     7     8   am
     8     8     9    2
     9     8    10    1
    10    10    11    1
    11    10    12    1
    12    12    13    1
    13    13    14    1
    14    14    15    1
    15    15    16   ar
    16    16    17   ar
    17    17    18   ar
    18    18    19   ar
    19    19    20   ar
    20    20    21   ar
    21    21    22   ar
    22    22    23   ar
    23    14    24    1
    24    24    25    1
    25     6    26    1
    26    26    27   ar
    27    27    28   ar
    28    28    29   ar
    29    29    30    1
    30    29    31   ar
    31    31    32   ar
    32    25    10    1
    33    32    26   ar
    34    23    15   ar
    35    23    19   ar
    36     1    33    1
    37     1    34    1
    38     1    35    1
    39     3    36    1
    40     3    37    1
    41     3    38    1
    42     4    39    1
    43     4    40    1
    44     5    41    1
    45     5    42    1
    46     6    43    1
    47     7    44    1
    48    11    45    1
    49    11    46    1
    50    12    47    1
    51    12    48    1
    52    13    49    1
    53    13    50    1
    54    17    51    1
    55    20    52    1
    56    21    53    1
    57    22    54    1
    58    24    55    1
    59    24    56    1
    60    25    57    1
    61    25    58    1
    62    27    59    1
    63    28    60    1
    64    31    61    1
    65    32    62    1
