
     RDKit          3D

 62 65  0  0  0  0  0  0  0  0999 V2000
   -2.6218    2.0368    3.4066 C   0  0  0  0  0  0  0  0  0  0  0  0
   -2.7900    0.6778    3.8648 N   0  0  0  0  0  0  0  0  0  0  0  0
   -4.1819    0.4400    4.1970 C   0  0  0  0  0  0  0  0  0  0  0  0
   -2.3093   -0.2308    2.8590 C   0  0  0  0  0  0  0  0  0  0  0  0
   -3.1793   -0.2226    1.5997 C   0  0  0  0  0  0  0  0  0  0  0  0
   -2.5902   -1.1994    0.6303 C   0  0  2  0  0  0  0  0  0  0  0  0
   -1.2424   -0.9269    0.2224 N   0  0  0  0  0  0  0  0  0  0  0  0
   -0.1995   -1.8934    0.2429 C   0  0  0  0  0  0  0  0  0  0  0  0
   -0.4273   -3.0670    0.6313 O   0  0  0  0  0  0  0  0  0  0  0  0
    1.1771   -1.5079   -0.2022 C   0  0  0  0  0  0  0  0  0  0  0  0
    2.0092   -2.7178   -0.3242 N   0  0  0  0  0  0  0  0  0  0  0  0
    1.1982   -0.8242   -1.5312 C   0  0  0  0  0  0  0  0  0  0  0  0
    2.6537   -0.3704   -1.7445 C   0  0  0  0  0  0  0  0  0  0  0  0
    2.8408    0.7612   -0.8672 N   0  0  0  0  0  0  0  0  0  0  0  0
    3.6224    1.8942   -1.1928 C   0  0  0  0  0  0  0  0  0  0  0  0
    3.0723    3.1446   -1.2176 N   0  0  0  0  0  0  0  0  0  0  0  0
    3.7876    4.2402   -1.5161 C   0  0  0  0  0  0  0  0  0  0  0  0
    5.0891    4.1049   -1.8006 N   0  0  0  0  0  0  0  0  0  0  0  0
    5.7196    2.9096   -1.8009 C   0  0  0  0  0  0  0  0  0  0  0  0
    6.9774    2.5308   -2.0462 N   0  0  0  0  0  0  0  0  0  0  0  0
    7.0447    1.2025   -1.9004 C   0  0  0  0  0  0  0  0  0  0  0  0
    5.8002    0.7143   -1.5524 C   0  0  0  0  0  0  0  0  0  0  0  0
    4.9593    1.7953   -1.4895 C   0  0  0  0  0  0  0  0  0  0  0  0
    2.1683    0.7306    0.4260 C   0  0  0  0  0  0  0  0  0  0  0  0
    1.8686   -0.6696    0.8510 C   0  0  0  0  0  0  0  0  0  0  0  0
   -3.4780   -1.4711   -0.5471 C   0  0  0  0  0  0  0  0  0  0  0  0
   -3.2984   -0.6790   -1.6824 C   0  0  0  0  0  0  0  0  0  0  0  0
   -4.0785   -0.8640   -2.8236 C   0  0  0  0  0  0  0  0  0  0  0  0
   -5.0468   -1.8428   -2.8407 C   0  0  0  0  0  0  0  0  0  0  0  0
   -6.0654   -2.1241   -4.2653 Cl  0  0  0  0  0  0  0  0  0  0  0  0
   -5.2082   -2.6178   -1.7019 C   0  0  0  0  0  0  0  0  0  0  0  0
   -4.4398   -2.4367   -0.5777 C   0  0  0  0  0  0  0  0  0  0  0  0
   -2.5242    2.7762    4.2389 H   0  0  0  0  0  0  0  0  0  0  0  0
   -1.7281    2.0447    2.7513 H   0  0  0  0  0  0  0  0  0  0  0  0
   -3.5443    2.2914    2.8192 H   0  0  0  0  0  0  0  0  0  0  0  0
   -4.5131    1.0618    5.0488 H   0  0  0  0  0  0  0  0  0  0  0  0
   -4.2993   -0.6360    4.4970 H   0  0  0  0  0  0  0  0  0  0  0  0
   -4.8512    0.6152    3.3251 H   0  0  0  0  0  0  0  0  0  0  0  0
   -1.2592   -0.0048    2.5886 H   0  0  0  0  0  0  0  0  0  0  0  0
   -2.2851   -1.2528    3.3039 H   0  0  0  0  0  0  0  0  0  0  0  0
   -3.3126    0.7840    1.2081 H   0  0  0  0  0  0  0  0  0  0  0  0
   -4.1539   -0.6752    1.9367 H   0  0  0  0  0  0  0  0  0  0  0  0
   -2.5607   -2.2037    1.1514 H   0  0  0  0  0  0  0  0  0  0  0  0
   -0.9686    0.0294   -0.1172 H   0  0  0  0  0  0  0  0  0  0  0  0
    1.7244   -3.3093   -1.1109 H   0  0  0  0  0  0  0  0  0  0  0  0
    2.0715   -3.1849    0.5973 H   0  0  0  0  0  0  0  0  0  0  0  0
    0.9242   -1.5031   -2.3483 H   0  0  0  0  0  0  0  0  0  0  0  0
    0.6080    0.1262   -1.5292 H   0  0  0  0  0  0  0  0  0  0  0  0
    2.8338   -0.0970   -2.7886 H   0  0  0  0  0  0  0  0  0  0  0  0
    3.3367   -1.1933   -1.3882 H   0  0  0  0  0  0  0  0  0  0  0  0
    3.2939    5.2253   -1.5219 H   0  0  0  0  0  0  0  0  0  0  0  0
    7.7923    3.1634   -2.3115 H   0  0  0  0  0  0  0  0  0  0  0  0
    7.9150    0.5603   -2.0211 H   0  0  0  0  0  0  0  0  0  0  0  0
    5.5193   -0.3191   -1.3608 H   0  0  0  0  0  0  0  0  0  0  0  0
    1.2668    1.3811    0.4155 H   0  0  0  0  0  0  0  0  0  0  0  0
    2.9064    1.1360    1.1547 H   0  0  0  0  0  0  0  0  0  0  0  0
    2.8164   -1.1224    1.2236 H   0  0  0  0  0  0  0  0  0  0  0  0
    1.2306   -0.5959    1.7818 H   0  0  0  0  0  0  0  0  0  0  0  0
   -2.5537    0.0999   -1.7258 H   0  0  0  0  0  0  0  0  0  0  0  0
   -3.9542   -0.2644   -3.7091 H   0  0  0  0  0  0  0  0  0  0  0  0
   -5.9678   -3.3891   -1.7064 H   0  0  0  0  0  0  0  0  0  0  0  0
   -4.5947   -3.0610    0.2910 H   0  0  0  0  0  0  0  0  0  0  0  0
  1  2  1  0
  2  3  1  0
  2  4  1  0
  4  5  1  0
  5  6  1  0
  6  7  1  0
  7  8  1  0
  8  9  2  0
  8 10  1  0
 10 11  1  0
 10 12  1  0
 12 13  1  0
 13 14  1  0
 14 15  1  0
 15 16  2  0
 16 17  1  0
 17 18  2  0
 18 19  1  0
 19 20  1  0
 20 21  1  0
 21 22  2  0
 22 23  1  0
 14 24  1  0
 24 25  1  0
  6 26  1  0
 26 27  2  0
 27 28  1  0
 28 29  2  0
 29 30  1  0
 29 31  1  0
 31 32  2  0
 25 10  1  0
 32 26  1  0
 23 15  1  0
 23 19  2  0
  1 33  1  0
  1 34  1  0
  1 35  1  0
  3 36  1  0
  3 37  1  0
  3 38  1  0
  4 39  1  0
  4 40  1  0
  5 41  1  0
  5 42  1  0
  6 43  1  1
  7 44  1  0
 11 45  1  0
 11 46  1  0
 12 47  1  0
 12 48  1  0
 13 49  1  0
 13 50  1  0
 17 51  1  0
 20 52  1  0
 21 53  1  0
 22 54  1  0
 24 55  1  0
 24 56  1  0
 25 57  1  0
 25 58  1  0
 27 59  1  0
 28 60  1  0
 31 61  1  0
 32 62  1  0
M  END
$$$$
