@<TRIPOS>MOLECULE
*****
 54 58 0 0 0
SMALL
GASTEIGER

@<TRIPOS>ATOM
      1 C           8.1633    3.8472    0.3993 C.3     1  UNL1       -0.0028
      2 C           7.4318    2.5370    0.3455 C.ar    1  UNL1        0.1483
      3 N           8.0248    1.3269    0.2573 N.ar    1  UNL1       -0.2193
      4 C           7.0429    0.4060    0.2333 C.ar    1  UNL1        0.1202
      5 N           5.8557    1.0307    0.3055 N.ar    1  UNL1       -0.2199
      6 C           4.5766    0.4045    0.3078 C.ar    1  UNL1        0.0699
      7 C           3.9879    0.1302   -0.8995 C.ar    1  UNL1       -0.0170
      8 C           2.7707   -0.4645   -0.9993 C.ar    1  UNL1        0.0565
      9 CL          2.0626   -0.7911   -2.5565 Cl      1  UNL1       -0.0827
     10 C           2.0577   -0.8265    0.1504 C.ar    1  UNL1        0.0733
     11 C           0.7711   -1.4873   -0.0059 C.2     1  UNL1        0.2469
     12 O           0.4802   -1.9796   -1.1733 O.2     1  UNL1       -0.2701
     13 N          -0.2423   -1.6787    0.9424 N.am    1  UNL1       -0.3103
     14 C          -1.4941   -2.3690    0.6486 C.3     1  UNL1        0.0256
     15 C          -2.3073   -1.6921   -0.4238 C.3     1  UNL1        0.0577
     16 C          -3.5806   -2.3955   -0.7266 C.ar    1  UNL1       -0.0328
     17 C          -4.3161   -2.9914    0.2686 C.ar    1  UNL1       -0.0577
     18 C          -5.5110   -3.6647    0.0273 C.ar    1  UNL1       -0.0588
     19 C          -5.9984   -3.7518   -1.2521 C.ar    1  UNL1       -0.0264
     20 C          -5.2649   -3.1565   -2.2495 C.ar    1  UNL1        0.1237
     21 F          -5.7416   -3.2395   -3.5098 F       1  UNL1       -0.2055
     22 C          -4.0822   -2.4900   -2.0112 C.ar    1  UNL1       -0.0225
     23 C          -2.6029   -0.2748    0.0099 C.ar    1  UNL1        0.1171
     24 N          -2.6685    0.8307   -0.7390 N.ar    1  UNL1       -0.2318
     25 C          -2.9599    1.8779    0.0668 C.ar    1  UNL1        0.0892
     26 C          -3.1486    3.2431   -0.1408 C.ar    1  UNL1       -0.0329
     27 C          -3.4432    4.0949    0.9003 C.ar    1  UNL1       -0.0413
     28 C          -3.5661    3.6406    2.1981 C.ar    1  UNL1        0.0430
     29 CL         -3.9387    4.7267    3.5115 Cl      1  UNL1       -0.0835
     30 C          -3.3758    2.2790    2.3920 C.ar    1  UNL1       -0.0179
     31 C          -3.0801    1.4110    1.3608 C.ar    1  UNL1        0.0676
     32 N          -2.8517    0.0857    1.2685 N.ar    1  UNL1       -0.3412
     33 C           2.6425   -0.5553    1.3473 C.ar    1  UNL1        0.0565
     34 CL          1.9126   -0.9797    2.8790 Cl      1  UNL1       -0.0827
     35 C           3.9000    0.0597    1.4441 C.ar    1  UNL1       -0.0170
     36 N           6.1154    2.3281    0.3731 N.ar    1  UNL1       -0.1504
     37 H           7.7750    4.5060    1.1887 H       1  UNL1        0.0309
     38 H           9.2458    3.6548    0.5619 H       1  UNL1        0.0309
     39 H           7.9846    4.3549   -0.5827 H       1  UNL1        0.0309
     40 H           7.2160   -0.6587    0.1660 H       1  UNL1        0.1048
     41 H           4.5140    0.3986   -1.8276 H       1  UNL1        0.0654
     42 H          -0.1162   -1.2996    1.8962 H       1  UNL1        0.1490
     43 H          -1.3090   -3.4227    0.3543 H       1  UNL1        0.0472
     44 H          -2.0803   -2.4139    1.5827 H       1  UNL1        0.0472
     45 H          -1.7531   -1.6202   -1.4055 H       1  UNL1        0.0443
     46 H          -3.9830   -2.9556    1.3135 H       1  UNL1        0.0621
     47 H          -6.0639   -4.1227    0.8342 H       1  UNL1        0.0619
     48 H          -6.9287   -4.2677   -1.4926 H       1  UNL1        0.0646
     49 H          -3.4958   -2.0178   -2.7864 H       1  UNL1        0.0649
     50 H          -3.0543    3.6073   -1.1534 H       1  UNL1        0.0640
     51 H          -3.5859    5.1689    0.6981 H       1  UNL1        0.0633
     52 H          -3.4700    1.9146    3.4028 H       1  UNL1        0.0653
     53 H          -2.8692   -0.5675    2.0809 H       1  UNL1        0.1671
     54 H           4.3521    0.2692    2.4261 H       1  UNL1        0.0654
@<TRIPOS>BOND
     1     1     2    1
     2     2     3   ar
     3     3     4   ar
     4     4     5   ar
     5     5     6    1
     6     6     7   ar
     7     7     8   ar
     8     8     9    1
     9     8    10   ar
    10    10    11    1
    11    11    12    2
    12    11    13   am
    13    13    14    1
    14    14    15    1
    15    15    16    1
    16    16    17   ar
    17    17    18   ar
    18    18    19   ar
    19    19    20   ar
    20    20    21    1
    21    20    22   ar
    22    15    23    1
    23    23    24   ar
    24    24    25   ar
    25    25    26   ar
    26    26    27   ar
    27    27    28   ar
    28    28    29    1
    29    28    30   ar
    30    30    31   ar
    31    31    32   ar
    32    10    33   ar
    33    33    34    1
    34    33    35   ar
    35     5    36   ar
    36    36     2   ar
    37    35     6   ar
    38    22    16   ar
    39    32    23   ar
    40    31    25   ar
    41     1    37    1
    42     1    38    1
    43     1    39    1
    44     4    40    1
    45     7    41    1
    46    13    42    1
    47    14    43    1
    48    14    44    1
    49    15    45    1
    50    17    46    1
    51    18    47    1
    52    19    48    1
    53    22    49    1
    54    26    50    1
    55    27    51    1
    56    30    52    1
    57    32    53    1
    58    35    54    1
