@<TRIPOS>MOLECULE
*****
 60 64 0 0 0
SMALL
GASTEIGER

@<TRIPOS>ATOM
      1 C          -6.0198   -2.7540   -3.8108 C.3     1  UNL1        0.0788
      2 O          -5.1648   -2.4331   -2.7470 O.3     1  UNL1       -0.4951
      3 C          -5.6187   -2.3962   -1.4318 C.ar    1  UNL1        0.1208
      4 C          -6.9381   -2.6661   -1.1443 C.ar    1  UNL1       -0.0180
      5 C          -7.3834   -2.6297    0.1708 C.ar    1  UNL1       -0.0343
      6 C          -6.5248   -2.3243    1.2281 C.ar    1  UNL1        0.0479
      7 N          -6.6894   -2.2300    2.5517 N.ar    1  UNL1       -0.3486
      8 CA         -5.4966   -1.9005    3.1493 C.ar    1  UNL1        0.1325
      9 C          -5.3931   -1.6742    4.5697 C.2     1  UNL1        0.3539
     10 O          -6.4426   -1.8892    5.2822 O.2     1  UNL1       -0.2435
     11 OXT        -4.3158   -1.2464    5.2912 O.3     1  UNL1       -0.4761
     12 C          -4.5649   -1.7929    2.1697 C.ar    1  UNL1        0.0147
     13 C          -3.1357   -1.6383    2.2016 C.2     1  UNL1       -0.0469
     14 C          -2.2988   -1.9214    3.1389 C.2     1  UNL1        0.0011
     15 C          -0.8504   -1.7416    3.1330 C.2     1  UNL1        0.2411
     16 O          -0.2366   -2.1080    4.1664 O.2     1  UNL1       -0.2705
     17 N          -0.1333   -1.1991    2.0633 N.am    1  UNL1       -0.2820
     18 C           1.2875   -1.0186    1.9888 C.ar    1  UNL1        0.0342
     19 C           2.1309   -1.6536    2.8539 C.ar    1  UNL1       -0.0404
     20 C           3.4885   -1.4067    2.7533 C.ar    1  UNL1       -0.0595
     21 C           3.9822   -0.5303    1.7909 C.ar    1  UNL1       -0.0545
     22 C           3.1538    0.1185    0.9123 C.ar    1  UNL1       -0.0232
     23 C           3.6618    1.0471   -0.0818 C.2     1  UNL1       -0.0525
     24 C           4.9285    1.3382   -0.2367 C.2     1  UNL1       -0.0357
     25 C           5.4864    2.2690   -1.2207 C.ar    1  UNL1        0.0646
     26 C           6.8600    2.4242   -1.2231 C.ar    1  UNL1       -0.0357
     27 C           7.4672    3.2783   -2.0958 C.ar    1  UNL1       -0.0506
     28 C           6.6611    3.9824   -2.9764 C.ar    1  UNL1        0.0005
     29 C           7.2297    4.8676   -3.8775 C.ar    1  UNL1       -0.0512
     30 C           6.4757    5.5996   -4.7704 C.ar    1  UNL1       -0.0427
     31 C           5.1046    5.4350   -4.7567 C.ar    1  UNL1        0.0430
     32 CL          4.1295    6.3706   -5.8984 Cl      1  UNL1       -0.0835
     33 C           4.5284    4.5557   -3.8641 C.ar    1  UNL1       -0.0174
     34 C           5.2896    3.8284   -2.9756 C.ar    1  UNL1        0.0730
     35 N           4.7359    2.9698   -2.0922 N.ar    1  UNL1       -0.2472
     36 C           1.8128   -0.1415    1.0288 C.ar    1  UNL1       -0.0333
     37 C          -5.2272   -2.0601    0.9358 C.ar    1  UNL1        0.0111
     38 C          -4.7853   -2.0962   -0.3756 C.ar    1  UNL1       -0.0102
     39 H          -6.6940   -3.6022   -3.5302 H       1  UNL1        0.0660
     40 H          -6.6334   -1.9117   -4.1334 H       1  UNL1        0.0660
     41 H          -5.4495   -3.1243   -4.6900 H       1  UNL1        0.0660
     42 H          -7.6656   -2.9082   -1.8921 H       1  UNL1        0.0655
     43 H          -8.4154   -2.8378    0.4240 H       1  UNL1        0.0639
     44 H          -7.5852   -2.3858    3.0265 H       1  UNL1        0.1661
     45 HXT        -4.3729   -0.4831    5.9607 H       1  UNL1        0.2955
     46 H          -2.6620   -1.1964    1.2909 H       1  UNL1        0.0626
     47 H          -2.6922   -2.4052    4.0220 H       1  UNL1        0.0670
     48 H          -0.7271   -0.8974    1.2256 H       1  UNL1        0.1551
     49 H           1.7942   -2.3687    3.6252 H       1  UNL1        0.0636
     50 H           4.1457   -1.9194    3.4466 H       1  UNL1        0.0618
     51 H           5.0466   -0.3803    1.7659 H       1  UNL1        0.0623
     52 H           2.9530    1.5288   -0.7358 H       1  UNL1        0.0624
     53 H           5.6152    0.8378    0.4269 H       1  UNL1        0.0639
     54 H           7.4900    1.8692   -0.5296 H       1  UNL1        0.0639
     55 H           8.5513    3.4113   -2.1092 H       1  UNL1        0.0625
     56 H           8.3222    4.9479   -3.8372 H       1  UNL1        0.0625
     57 H           6.9987    6.2686   -5.4323 H       1  UNL1        0.0632
     58 H           3.4319    4.4572   -3.8845 H       1  UNL1        0.0653
     59 H           1.1085    0.3508    0.3501 H       1  UNL1        0.0642
     60 H          -3.7547   -1.8838   -0.5911 H       1  UNL1        0.0661
@<TRIPOS>BOND
     1     1     2    1
     2     2     3    1
     3     3     4   ar
     4     4     5   ar
     5     5     6   ar
     6     6     7   ar
     7     7     8   ar
     8     8     9    1
     9     9    10    2
    10     9    11    1
    11     8    12   ar
    12    12    13    1
    13    13    14    2
    14    14    15    1
    15    15    16    2
    16    15    17   am
    17    17    18    1
    18    18    19   ar
    19    19    20   ar
    20    20    21   ar
    21    21    22   ar
    22    22    23    1
    23    23    24    2
    24    24    25    1
    25    25    26   ar
    26    26    27   ar
    27    27    28   ar
    28    28    29   ar
    29    29    30   ar
    30    30    31   ar
    31    31    32    1
    32    31    33   ar
    33    33    34   ar
    34    34    35   ar
    35    22    36   ar
    36    12    37   ar
    37    37    38   ar
    38    38     3   ar
    39    37     6   ar
    40    36    18   ar
    41    35    25   ar
    42    34    28   ar
    43     1    39    1
    44     1    40    1
    45     1    41    1
    46     4    42    1
    47     5    43    1
    48     7    44    1
    49    11    45    1
    50    13    46    1
    51    14    47    1
    52    17    48    1
    53    19    49    1
    54    20    50    1
    55    21    51    1
    56    23    52    1
    57    24    53    1
    58    26    54    1
    59    27    55    1
    60    29    56    1
    61    30    57    1
    62    33    58    1
    63    36    59    1
    64    38    60    1
