@<TRIPOS>MOLECULE
*****
 56 59 0 0 0
SMALL
GASTEIGER

@<TRIPOS>ATOM
      1 C           1.1938   -0.4726    0.4698 C.3     1  UNL1        0.0240
      2 C           2.3126   -0.4930    1.4521 C.3     1  UNL1       -0.0085
      3 C           2.6051   -1.9713    1.7434 C.3     1  UNL1       -0.0577
      4 C           3.5658    0.0852    0.9421 C.ar    1  UNL1       -0.0296
      5 C           3.7706    0.8483   -0.1918 C.ar    1  UNL1        0.0668
      6 C           5.0266    1.3121   -0.5208 C.ar    1  UNL1        0.1279
      7 O           5.0679    2.0618   -1.6859 O.3     1  UNL1       -0.5060
      8 C           6.1434    1.0476    0.2503 C.ar    1  UNL1       -0.0194
      9 C           5.9417    0.2829    1.3877 C.ar    1  UNL1       -0.0580
     10 C           4.6757   -0.1983    1.7410 C.ar    1  UNL1       -0.0574
     11 C           2.5830    1.1227   -1.0013 C.2     1  UNL1        0.1966
     12 O           2.7187    1.8102   -2.0385 O.2     1  UNL1       -0.2867
     13 C           1.2972    0.5832   -0.5630 C.2     1  UNL1        0.0465
     14 C           0.2259    1.0974   -1.1472 C.2     1  UNL1        0.1408
     15 O           0.2906    2.1007   -2.1312 O.2     1  UNL1       -0.5073
     16 C          -1.1710    0.6912   -0.8480 C.3     1  UNL1        0.1922
     17 O          -1.8504    0.5172   -2.0401 O.3     1  UNL1       -0.3731
     18 C          -1.8588    1.7541   -0.0303 C.2     1  UNL1        0.2106
     19 O          -1.3590    2.8822    0.2132 O.2     1  UNL1       -0.2882
     20 C          -3.1788    1.4115    0.4889 C.2     1  UNL1        0.1208
     21 C          -4.1555    2.4520    0.7612 C.2     1  UNL1        0.2483
     22 N          -3.8243    3.8085    0.5211 N.am    1  UNL1       -0.3252
     23 O          -5.3181    2.2947    1.2061 O.2     1  UNL1       -0.2702
     24 C          -3.4383    0.1302    0.6960 C.2     1  UNL1        0.1271
     25 O          -4.6969   -0.1622    1.1881 O.2     1  UNL1       -0.5086
     26 C          -2.5073   -0.9881    0.4476 C.3     1  UNL1        0.0769
     27 N          -3.1395   -1.9381   -0.4353 N.3     1  UNL1       -0.2985
     28 C          -4.3521   -2.4989    0.0917 C.3     1  UNL1       -0.0124
     29 C          -2.2970   -3.0092   -0.8701 C.3     1  UNL1       -0.0124
     30 C          -1.1658   -0.5956   -0.0322 C.3     1  UNL1        0.0514
     31 C          -0.1816   -0.2991    1.1069 C.3     1  UNL1        0.0709
     32 O          -0.3697   -1.1471    2.1742 O.3     1  UNL1       -0.3907
     33 H           1.1057   -1.4471   -0.0939 H       1  UNL1        0.0382
     34 H           2.0260   -0.0618    2.4430 H       1  UNL1        0.0353
     35 H           3.3642   -2.3642    1.0231 H       1  UNL1        0.0236
     36 H           3.0654   -2.0887    2.7439 H       1  UNL1        0.0236
     37 H           1.6873   -2.5911    1.6276 H       1  UNL1        0.0236
     38 H           5.2013    1.5357   -2.5518 H       1  UNL1        0.2922
     39 H           7.0953    1.4357   -0.0566 H       1  UNL1        0.0654
     40 H           6.8231    0.0806    1.9862 H       1  UNL1        0.0619
     41 H           4.6412   -0.7908    2.6611 H       1  UNL1        0.0621
     42 H           0.3967    3.0797   -1.9037 H       1  UNL1        0.2918
     43 H          -1.3677    0.9360   -2.7999 H       1  UNL1        0.2113
     44 H          -3.3117    4.3248   -0.2064 H       1  UNL1        0.1453
     45 H          -3.2917    4.2689   -0.2520 H       1  UNL1        0.1453
     46 H          -5.5726    0.0185    0.7476 H       1  UNL1        0.2918
     47 H          -2.3771   -1.4937    1.4475 H       1  UNL1        0.0548
     48 H          -5.2181   -2.0414   -0.4289 H       1  UNL1        0.0391
     49 H          -4.4504   -3.5973   -0.1573 H       1  UNL1        0.0391
     50 H          -4.4277   -2.4826    1.1993 H       1  UNL1        0.0391
     51 H          -1.7159   -2.7756   -1.7845 H       1  UNL1        0.0391
     52 H          -2.9494   -3.8604   -1.1581 H       1  UNL1        0.0391
     53 H          -1.6347   -3.4175   -0.0513 H       1  UNL1        0.0391
     54 H          -0.7255   -1.3598   -0.7047 H       1  UNL1        0.0382
     55 H          -0.2378    0.7746    1.3850 H       1  UNL1        0.0604
     56 H          -0.6806   -0.6024    2.9410 H       1  UNL1        0.2098
@<TRIPOS>BOND
     1     1     2    1
     2     2     3    1
     3     2     4    1
     4     4     5   ar
     5     5     6   ar
     6     6     7    1
     7     6     8   ar
     8     8     9   ar
     9     9    10   ar
    10     5    11    1
    11    11    12    2
    12    11    13    1
    13    13    14    2
    14    14    15    1
    15    14    16    1
    16    16    17    1
    17    16    18    1
    18    18    19    2
    19    18    20    1
    20    20    21    1
    21    21    22   am
    22    21    23    2
    23    20    24    2
    24    24    25    1
    25    24    26    1
    26    26    27    1
    27    27    28    1
    28    27    29    1
    29    26    30    1
    30    30    31    1
    31    31    32    1
    32    13     1    1
    33    30    16    1
    34    31     1    1
    35    10     4   ar
    36     1    33    1
    37     2    34    1
    38     3    35    1
    39     3    36    1
    40     3    37    1
    41     7    38    1
    42     8    39    1
    43     9    40    1
    44    10    41    1
    45    15    42    1
    46    17    43    1
    47    22    44    1
    48    22    45    1
    49    25    46    1
    50    26    47    1
    51    28    48    1
    52    28    49    1
    53    28    50    1
    54    29    51    1
    55    29    52    1
    56    29    53    1
    57    30    54    1
    58    31    55    1
    59    32    56    1
