@<TRIPOS>MOLECULE
*****
 40 42 0 0 0
SMALL
GASTEIGER

@<TRIPOS>ATOM
      1 O           1.9410   -0.8423    0.7118 O.2     1  UNL1       -0.2507
      2 C           1.9023   -0.0634   -0.2744 C.2     1  UNL1        0.3234
      3 N           0.6646    0.0730   -0.9856 N.am    1  UNL1       -0.1900
      4 N          -0.4741   -0.5552   -0.7024 N.2     1  UNL1       -0.1780
      5 C          -1.6641   -0.3697   -0.3663 C.2     1  UNL1        0.0962
      6 C          -2.1533    0.9934   -0.1650 C.ar    1  UNL1        0.0024
      7 C          -1.2609    2.0514   -0.0310 C.ar    1  UNL1       -0.0525
      8 C          -1.6802    3.3844    0.0301 C.ar    1  UNL1       -0.0611
      9 C          -3.0086    3.7137   -0.0392 C.ar    1  UNL1       -0.0617
     10 C          -3.8962    2.6796   -0.1718 C.ar    1  UNL1       -0.0611
     11 C          -3.4789    1.3392   -0.2357 C.ar    1  UNL1       -0.0525
     12 C          -2.4531   -1.5824   -0.1886 C.ar    1  UNL1        0.0024
     13 C          -1.9336   -2.7825   -0.6391 C.ar    1  UNL1       -0.0525
     14 C          -2.5456   -3.9983   -0.4329 C.ar    1  UNL1       -0.0611
     15 C          -3.7179   -4.0421    0.2442 C.ar    1  UNL1       -0.0617
     16 C          -4.2861   -2.8923    0.7186 C.ar    1  UNL1       -0.0611
     17 C          -3.6294   -1.6637    0.4898 C.ar    1  UNL1       -0.0525
     18 N           3.0806    0.6317   -0.6236 N.am    1  UNL1       -0.2680
     19 C           4.3105    0.4992    0.0794 C.ar    1  UNL1        0.0377
     20 C           4.6006    1.3277    1.1429 C.ar    1  UNL1       -0.0223
     21 C           5.7796    1.2373    1.8551 C.ar    1  UNL1        0.0293
     22 N           6.6775    0.3013    1.4921 N.ar    1  UNL1       -0.2631
     23 C           6.4035   -0.5151    0.4523 C.ar    1  UNL1        0.0293
     24 C           5.2436   -0.4444   -0.2674 C.ar    1  UNL1       -0.0223
     25 H           0.7282    0.7513   -1.8174 H       1  UNL1        0.1789
     26 H          -0.2060    1.8329    0.0513 H       1  UNL1        0.0624
     27 H          -0.9161    4.1660    0.1356 H       1  UNL1        0.0618
     28 H          -3.3022    4.7518    0.0119 H       1  UNL1        0.0618
     29 H          -4.9545    2.8954   -0.2299 H       1  UNL1        0.0618
     30 H          -4.2377    0.5935   -0.4103 H       1  UNL1        0.0624
     31 H          -1.0056   -2.7686   -1.1805 H       1  UNL1        0.0624
     32 H          -2.1004   -4.9163   -0.8053 H       1  UNL1        0.0618
     33 H          -4.2288   -4.9931    0.4228 H       1  UNL1        0.0618
     34 H          -5.2302   -2.9084    1.2663 H       1  UNL1        0.0618
     35 H          -4.0703   -0.8036    0.9365 H       1  UNL1        0.0624
     36 H           3.0359    1.2774   -1.4466 H       1  UNL1        0.1564
     37 H           3.9018    2.0916    1.4624 H       1  UNL1        0.0651
     38 H           6.0080    1.8945    2.6975 H       1  UNL1        0.0830
     39 H           7.1452   -1.2506    0.1917 H       1  UNL1        0.0830
     40 H           5.0107   -1.0944   -1.1055 H       1  UNL1        0.0651
@<TRIPOS>BOND
     1     1     2    2
     2     2     3   am
     3     3     4    1
     4     4     5    2
     5     5     6    1
     6     6     7   ar
     7     7     8   ar
     8     8     9   ar
     9     9    10   ar
    10    10    11   ar
    11     5    12    1
    12    12    13   ar
    13    13    14   ar
    14    14    15   ar
    15    15    16   ar
    16    16    17   ar
    17     2    18   am
    18    18    19    1
    19    19    20   ar
    20    20    21   ar
    21    21    22   ar
    22    22    23   ar
    23    23    24   ar
    24    11     6   ar
    25    17    12   ar
    26    24    19   ar
    27     3    25    1
    28     7    26    1
    29     8    27    1
    30     9    28    1
    31    10    29    1
    32    11    30    1
    33    13    31    1
    34    14    32    1
    35    15    33    1
    36    16    34    1
    37    17    35    1
    38    18    36    1
    39    20    37    1
    40    21    38    1
    41    23    39    1
    42    24    40    1
