
     RDKit          3D

 47 50  0  0  0  0  0  0  0  0999 V2000
    3.2729    3.1419   -0.8801 N   0  0  0  0  0  0  0  0  0  0  0  0
    3.5461    1.7607   -0.5729 C   0  0  0  0  0  0  0  0  0  0  0  0
    2.5822    0.9301   -0.5857 N   0  0  0  0  0  0  0  0  0  0  0  0
    2.8289   -0.4902   -0.2768 C   0  0  2  0  0  0  0  0  0  0  0  0
    3.3432   -1.0650   -1.5724 C   0  0  0  0  0  0  0  0  0  0  0  0
    3.6423   -2.3805   -1.4976 F   0  0  0  0  0  0  0  0  0  0  0  0
    1.4929   -1.0607    0.0453 C   0  0  0  0  0  0  0  0  0  0  0  0
    0.3624   -0.2757   -0.0337 C   0  0  0  0  0  0  0  0  0  0  0  0
   -0.9276   -0.7500    0.2358 C   0  0  0  0  0  0  0  0  0  0  0  0
   -2.0336    0.1244    0.1412 N   0  0  0  0  0  0  0  0  0  0  0  0
   -3.3929   -0.2261    0.0574 C   0  0  0  0  0  0  0  0  0  0  0  0
   -3.8370   -1.4900    0.0102 N   0  0  0  0  0  0  0  0  0  0  0  0
   -5.1244   -1.8576   -0.0696 C   0  0  0  0  0  0  0  0  0  0  0  0
   -6.1096   -0.8954   -0.1091 C   0  0  0  0  0  0  0  0  0  0  0  0
   -5.7188    0.4226   -0.0640 C   0  0  0  0  0  0  0  0  0  0  0  0
   -6.6963    1.4155   -0.1026 C   0  0  0  0  0  0  0  0  0  0  0  0
   -6.2718    2.7191   -0.0558 C   0  0  0  0  0  0  0  0  0  0  0  0
   -7.4542    4.0218   -0.1011 Cl  0  0  0  0  0  0  0  0  0  0  0  0
   -4.9272    2.9873    0.0255 C   0  0  0  0  0  0  0  0  0  0  0  0
   -3.9931    2.0259    0.0622 N   0  0  0  0  0  0  0  0  0  0  0  0
   -4.3852    0.7476    0.0177 C   0  0  0  0  0  0  0  0  0  0  0  0
   -1.0147   -2.0741    0.5936 C   0  0  0  0  0  0  0  0  0  0  0  0
    0.1283   -2.8711    0.6745 C   0  0  0  0  0  0  0  0  0  0  0  0
    1.3913   -2.3865    0.4055 C   0  0  0  0  0  0  0  0  0  0  0  0
    2.4891   -3.1854    0.5118 F   0  0  0  0  0  0  0  0  0  0  0  0
    3.7716   -0.5601    0.8652 C   0  0  0  0  0  0  0  0  0  0  0  0
    4.9291    0.3774    0.8024 C   0  0  1  0  0  0  0  0  0  0  0  0
    6.2667   -0.3236    0.6853 C   0  0  0  0  0  0  0  0  0  0  0  0
    6.4203   -1.1349    1.8045 F   0  0  0  0  0  0  0  0  0  0  0  0
    6.1866   -1.1885   -0.3901 F   0  0  0  0  0  0  0  0  0  0  0  0
    7.3050    0.5482    0.5742 F   0  0  0  0  0  0  0  0  0  0  0  0
    4.8219    1.3046   -0.2638 O   0  0  0  0  0  0  0  0  0  0  0  0
    3.1195    3.4251   -1.8896 H   0  0  0  0  0  0  0  0  0  0  0  0
    3.2271    3.8454   -0.1275 H   0  0  0  0  0  0  0  0  0  0  0  0
    4.1508   -0.4179   -1.9740 H   0  0  0  0  0  0  0  0  0  0  0  0
    2.5008   -0.9467   -2.3064 H   0  0  0  0  0  0  0  0  0  0  0  0
    0.4323    0.7741   -0.3176 H   0  0  0  0  0  0  0  0  0  0  0  0
   -1.8129    1.1654    0.1343 H   0  0  0  0  0  0  0  0  0  0  0  0
   -5.4362   -2.8926   -0.1053 H   0  0  0  0  0  0  0  0  0  0  0  0
   -7.1578   -1.1139   -0.1727 H   0  0  0  0  0  0  0  0  0  0  0  0
   -7.7209    1.1263   -0.1662 H   0  0  0  0  0  0  0  0  0  0  0  0
   -4.6545    4.0523    0.0598 H   0  0  0  0  0  0  0  0  0  0  0  0
   -1.9891   -2.5019    0.8240 H   0  0  0  0  0  0  0  0  0  0  0  0
    0.0543   -3.9142    0.9568 H   0  0  0  0  0  0  0  0  0  0  0  0
    3.1836   -0.3225    1.7939 H   0  0  0  0  0  0  0  0  0  0  0  0
    4.1944   -1.5823    1.0307 H   0  0  0  0  0  0  0  0  0  0  0  0
    5.0141    0.9916    1.7479 H   0  0  0  0  0  0  0  0  0  0  0  0
  1  2  1  0
  2  3  2  0
  3  4  1  0
  4  5  1  6
  5  6  1  0
  4  7  1  0
  7  8  2  0
  8  9  1  0
  9 10  1  0
 10 11  1  0
 11 12  2  0
 12 13  1  0
 13 14  2  0
 14 15  1  0
 15 16  2  0
 16 17  1  0
 17 18  1  0
 17 19  2  0
 19 20  1  0
 20 21  2  0
  9 22  2  0
 22 23  1  0
 23 24  2  0
 24 25  1  0
  4 26  1  0
 26 27  1  0
 27 28  1  0
 28 29  1  0
 28 30  1  0
 28 31  1  0
 27 32  1  0
 32  2  1  0
 24  7  1  0
 21 11  1  0
 21 15  1  0
  1 33  1  0
  1 34  1  0
  5 35  1  0
  5 36  1  0
  8 37  1  0
 10 38  1  0
 13 39  1  0
 14 40  1  0
 16 41  1  0
 19 42  1  0
 22 43  1  0
 23 44  1  0
 26 45  1  0
 26 46  1  0
 27 47  1  1
M  END
$$$$
