@<TRIPOS>MOLECULE
*****
 47 50 0 0 0
SMALL
GASTEIGER

@<TRIPOS>ATOM
      1 N           3.2729    3.1419   -0.8801 N.pl3   1  UNL1       -0.3134
      2 C           3.5461    1.7607   -0.5729 C.2     1  UNL1        0.2766
      3 N           2.5822    0.9301   -0.5857 N.2     1  UNL1       -0.2228
      4 C           2.8289   -0.4902   -0.2768 C.3     1  UNL1        0.1258
      5 C           3.3432   -1.0650   -1.5724 C.3     1  UNL1        0.1196
      6 F           3.6423   -2.3805   -1.4976 F       1  UNL1       -0.2462
      7 C           1.4929   -1.0607    0.0453 C.ar    1  UNL1        0.0196
      8 C           0.3624   -0.2757   -0.0337 C.ar    1  UNL1       -0.0322
      9 C          -0.9276   -0.7500    0.2358 C.ar    1  UNL1        0.0329
     10 N          -2.0336    0.1244    0.1412 N.pl3   1  UNL1       -0.2977
     11 C          -3.3929   -0.2261    0.0574 C.ar    1  UNL1        0.1490
     12 N          -3.8370   -1.4900    0.0102 N.ar    1  UNL1       -0.2380
     13 C          -5.1244   -1.8576   -0.0696 C.ar    1  UNL1        0.0304
     14 C          -6.1096   -0.8954   -0.1091 C.ar    1  UNL1       -0.0342
     15 C          -5.7188    0.4226   -0.0640 C.ar    1  UNL1        0.0066
     16 C          -6.6963    1.4155   -0.1026 C.ar    1  UNL1       -0.0326
     17 C          -6.2718    2.7191   -0.0558 C.ar    1  UNL1        0.0596
     18 CL         -7.4542    4.0218   -0.1011 Cl      1  UNL1       -0.0820
     19 C          -4.9272    2.9873    0.0255 C.ar    1  UNL1        0.0467
     20 N          -3.9931    2.0259    0.0622 N.ar    1  UNL1       -0.2501
     21 C          -4.3852    0.7476    0.0177 C.ar    1  UNL1        0.1109
     22 C          -1.0147   -2.0741    0.5936 C.ar    1  UNL1       -0.0378
     23 C           0.1283   -2.8711    0.6745 C.ar    1  UNL1       -0.0243
     24 C           1.3913   -2.3865    0.4055 C.ar    1  UNL1        0.1291
     25 F           2.4891   -3.1854    0.5118 F       1  UNL1       -0.2051
     26 C           3.7716   -0.5601    0.8652 C.3     1  UNL1        0.0251
     27 C           4.9291    0.3774    0.8024 C.3     1  UNL1        0.1998
     28 C           6.2667   -0.3236    0.6853 C.3     1  UNL1        0.4266
     29 F           6.4203   -1.1349    1.8045 F       1  UNL1       -0.1669
     30 F           6.1866   -1.1885   -0.3901 F       1  UNL1       -0.1669
     31 F           7.3050    0.5482    0.5742 F       1  UNL1       -0.1669
     32 O           4.8219    1.3046   -0.2638 O.2     1  UNL1       -0.4534
     33 H           3.1195    3.4251   -1.8896 H       1  UNL1        0.1466
     34 H           3.2271    3.8454   -0.1275 H       1  UNL1        0.1466
     35 H           4.1508   -0.4179   -1.9740 H       1  UNL1        0.0643
     36 H           2.5008   -0.9467   -2.3064 H       1  UNL1        0.0643
     37 H           0.4323    0.7741   -0.3176 H       1  UNL1        0.0640
     38 H          -1.8129    1.1654    0.1343 H       1  UNL1        0.1536
     39 H          -5.4362   -2.8926   -0.1053 H       1  UNL1        0.0830
     40 H          -7.1578   -1.1139   -0.1727 H       1  UNL1        0.0639
     41 H          -7.7209    1.1263   -0.1662 H       1  UNL1        0.0639
     42 H          -4.6545    4.0523    0.0598 H       1  UNL1        0.0844
     43 H          -1.9891   -2.5019    0.8240 H       1  UNL1        0.0637
     44 H           0.0543   -3.9142    0.9568 H       1  UNL1        0.0647
     45 H           3.1836   -0.3225    1.7939 H       1  UNL1        0.0331
     46 H           4.1944   -1.5823    1.0307 H       1  UNL1        0.0331
     47 H           5.0141    0.9916    1.7479 H       1  UNL1        0.0826
@<TRIPOS>BOND
     1     1     2    1
     2     2     3    2
     3     3     4    1
     4     4     5    1
     5     5     6    1
     6     4     7    1
     7     7     8   ar
     8     8     9   ar
     9     9    10    1
    10    10    11    1
    11    11    12   ar
    12    12    13   ar
    13    13    14   ar
    14    14    15   ar
    15    15    16   ar
    16    16    17   ar
    17    17    18    1
    18    17    19   ar
    19    19    20   ar
    20    20    21   ar
    21     9    22   ar
    22    22    23   ar
    23    23    24   ar
    24    24    25    1
    25     4    26    1
    26    26    27    1
    27    27    28    1
    28    28    29    1
    29    28    30    1
    30    28    31    1
    31    27    32    1
    32    32     2    1
    33    24     7   ar
    34    21    11   ar
    35    21    15   ar
    36     1    33    1
    37     1    34    1
    38     5    35    1
    39     5    36    1
    40     8    37    1
    41    10    38    1
    42    13    39    1
    43    14    40    1
    44    16    41    1
    45    19    42    1
    46    22    43    1
    47    23    44    1
    48    26    45    1
    49    26    46    1
    50    27    47    1
