@<TRIPOS>MOLECULE
*****
 27 27 0 0 0
SMALL
GASTEIGER

@<TRIPOS>ATOM
      1 C           4.6825    0.3859    0.2367 C.3     1  UNL1       -0.0558
      2 C           4.3687   -1.0654   -0.0627 C.3     1  UNL1       -0.0020
      3 S           3.0541   -1.2212   -1.3030 S.3     1  UNL1       -0.0911
      4 C           1.5142   -0.6101   -0.6601 C.2     1  UNL1        0.1518
      5 N           1.5201   -0.1095    0.6706 N.pl3   1  UNL1       -0.3378
      6 N           0.4308   -0.6102   -1.3474 N.2     1  UNL1       -0.2266
      7 C          -0.7885   -0.1236   -0.8318 C.ar    1  UNL1        0.0665
      8 C          -1.8465   -0.9273   -1.2744 C.ar    1  UNL1       -0.0357
      9 C          -3.1653   -0.6503   -0.8980 C.ar    1  UNL1       -0.0481
     10 C          -3.4394    0.4356   -0.0734 C.ar    1  UNL1        0.0549
     11 C          -2.3754    1.2015    0.3409 C.ar    1  UNL1       -0.0481
     12 C          -1.0660    0.9526   -0.0139 C.ar    1  UNL1       -0.0357
     13 C          -4.8374    0.7576    0.3464 C.3     1  UNL1        0.4174
     14 F          -5.0277    0.6478    1.7051 F       1  UNL1       -0.1659
     15 F          -5.6785   -0.1147   -0.3150 F       1  UNL1       -0.1659
     16 F          -5.1674    2.0345   -0.1104 F       1  UNL1       -0.1659
     17 H           3.8117    0.9804   -0.1339 H       1  UNL1        0.0238
     18 H           5.6027    0.6558   -0.3341 H       1  UNL1        0.0238
     19 H           4.8429    0.5413    1.3072 H       1  UNL1        0.0238
     20 H           3.9884   -1.5028    0.9022 H       1  UNL1        0.0378
     21 H           5.2800   -1.6180   -0.3619 H       1  UNL1        0.0378
     22 H           1.2803   -0.9043    1.3087 H       1  UNL1        0.1442
     23 H           1.5567    0.3748    1.5883 H       1  UNL1        0.1442
     24 H          -1.7909   -1.8059   -1.9191 H       1  UNL1        0.0639
     25 H          -4.0138   -1.2412   -1.2141 H       1  UNL1        0.0624
     26 H          -2.5428    2.0492    0.9785 H       1  UNL1        0.0624
     27 H          -0.1934    1.4873    0.2581 H       1  UNL1        0.0639
@<TRIPOS>BOND
     1     1     2    1
     2     2     3    1
     3     3     4    1
     4     4     5    1
     5     4     6    2
     6     6     7    1
     7     7     8   ar
     8     8     9   ar
     9     9    10   ar
    10    10    11   ar
    11    11    12   ar
    12    10    13    1
    13    13    14    1
    14    13    15    1
    15    13    16    1
    16    12     7   ar
    17     1    17    1
    18     1    18    1
    19     1    19    1
    20     2    20    1
    21     2    21    1
    22     5    22    1
    23     5    23    1
    24     8    24    1
    25     9    25    1
    26    11    26    1
    27    12    27    1
