@<TRIPOS>MOLECULE
*****
 55 59 0 0 0
SMALL
GASTEIGER

@<TRIPOS>ATOM
      1 C          -8.7290    4.9207    1.9927 C.3     1  UNL1        0.0366
      2 O          -7.9731    3.7739    1.8774 O.3     1  UNL1       -0.3792
      3 C          -6.6370    3.9364    2.0133 C.3     1  UNL1        0.0874
      4 C          -5.8405    2.6757    1.9886 C.3     1  UNL1        0.1572
      5 C          -6.6534    1.5640    2.7602 C.3     1  UNL1        0.1287
      6 O          -5.8150    0.3748    2.7840 O.3     1  UNL1       -0.4846
      7 C          -5.1906    0.0885    1.6283 C.ar    1  UNL1        0.1621
      8 C          -4.4830   -1.1579    1.4310 C.ar    1  UNL1       -0.0156
      9 C          -3.8079   -1.5278    0.3429 C.ar    1  UNL1       -0.0458
     10 C          -3.8389   -0.6214   -0.6128 C.ar    1  UNL1        0.0422
     11 C          -2.6385   -0.7308   -1.6399 C.ar    1  UNL1        0.2493
     12 N          -2.2476   -0.9677   -2.5629 N.ar    1  UNL1       -0.1065
     13 N          -1.0231   -0.8758   -2.9428 N.ar    1  UNL1       -0.1006
     14 C          -0.4811   -0.3684   -1.6389 C.ar    1  UNL1        0.2779
     15 S           1.2801   -0.1264   -1.6280 S.3     1  UNL1       -0.0609
     16 C           2.0354   -1.0958   -3.0140 C.3     1  UNL1        0.0278
     17 C           3.4211   -1.1854   -2.5795 C.ar    1  UNL1       -0.0370
     18 C           3.4671   -2.0345   -1.1780 C.ar    1  UNL1       -0.0572
     19 C           4.7323   -2.1178   -0.7212 C.ar    1  UNL1       -0.0537
     20 C           5.8841   -1.5748   -1.2877 C.ar    1  UNL1       -0.0166
     21 C           7.1797   -1.9996   -0.5443 C.ar    1  UNL1       -0.0005
     22 C           7.4846   -3.1168   -0.5540 C.ar    1  UNL1       -0.0528
     23 C           8.5988   -3.7011    0.1115 C.ar    1  UNL1       -0.0611
     24 C           9.3443   -2.8133    0.8157 C.ar    1  UNL1       -0.0605
     25 C           8.9720   -1.3436    0.8196 C.ar    1  UNL1       -0.0438
     26 C           7.8464   -0.8826    0.1150 C.ar    1  UNL1        0.0595
     27 C           7.4699    0.3551   -0.0544 C.1     1  UNL1        0.0998
     28 N           7.0890    1.5674   -0.2035 N.1     1  UNL1       -0.1909
     29 C           5.8458   -0.8877   -2.3632 C.ar    1  UNL1       -0.0537
     30 C           4.5121   -0.7742   -2.9151 C.ar    1  UNL1       -0.0572
     31 O          -1.4412   -0.2529   -0.7787 O.2     1  UNL1       -0.4110
     32 C          -4.4194    0.5681   -0.7170 C.ar    1  UNL1       -0.0040
     33 C          -5.1328    0.9712    0.4518 C.ar    1  UNL1        0.1633
     34 O          -5.7864    2.1370    0.6645 O.3     1  UNL1       -0.4795
     35 H          -8.5038    5.6178    1.1382 H       1  UNL1        0.0524
     36 H          -9.8030    4.6844    2.1441 H       1  UNL1        0.0524
     37 H          -8.2778    5.4834    2.8858 H       1  UNL1        0.0524
     38 H          -6.2109    4.5740    1.1543 H       1  UNL1        0.0598
     39 H          -6.3984    4.4973    2.9372 H       1  UNL1        0.0598
     40 H          -4.8823    2.7949    2.5035 H       1  UNL1        0.0791
     41 H          -7.0051    1.9248    3.6491 H       1  UNL1        0.0735
     42 H          -7.4288    1.2583    1.9580 H       1  UNL1        0.0735
     43 H          -4.5599   -1.8336    2.3083 H       1  UNL1        0.0655
     44 H          -3.2914   -2.4869    0.1892 H       1  UNL1        0.0626
     45 H           1.5945   -2.0715   -3.1674 H       1  UNL1        0.0430
     46 H           1.9747   -0.5013   -3.9809 H       1  UNL1        0.0430
     47 H           2.5343   -2.3346   -0.9331 H       1  UNL1        0.0621
     48 H           4.8922   -2.6791    0.2338 H       1  UNL1        0.0624
     49 H           6.9018   -3.9629   -1.1387 H       1  UNL1        0.0624
     50 H           8.8125   -4.7645    0.0044 H       1  UNL1        0.0618
     51 H          10.2077   -3.0300    1.3875 H       1  UNL1        0.0618
     52 H           9.5647   -0.6894    1.3801 H       1  UNL1        0.0631
     53 H           6.6677   -0.4286   -2.8918 H       1  UNL1        0.0624
     54 H           4.6116   -0.0843   -3.8660 H       1  UNL1        0.0621
     55 H          -4.4245    1.2555   -1.5294 H       1  UNL1        0.0663
@<TRIPOS>BOND
     1     1     2    1
     2     2     3    1
     3     3     4    1
     4     4     5    1
     5     5     6    1
     6     6     7    1
     7     7     8   ar
     8     8     9   ar
     9     9    10   ar
    10    10    11    1
    11    11    12   ar
    12    12    13   ar
    13    13    14   ar
    14    14    15    1
    15    15    16    1
    16    16    17    1
    17    17    18   ar
    18    18    19   ar
    19    19    20   ar
    20    20    21    1
    21    21    22   ar
    22    22    23   ar
    23    23    24   ar
    24    24    25   ar
    25    25    26   ar
    26    26    27    1
    27    27    28    3
    28    20    29   ar
    29    29    30   ar
    30    14    31   ar
    31    10    32   ar
    32    32    33   ar
    33    33    34    1
    34    34     4    1
    35    33     7   ar
    36    31    11   ar
    37    30    17   ar
    38    26    21   ar
    39     1    35    1
    40     1    36    1
    41     1    37    1
    42     3    38    1
    43     3    39    1
    44     4    40    1
    45     5    41    1
    46     5    42    1
    47     8    43    1
    48     9    44    1
    49    16    45    1
    50    16    46    1
    51    18    47    1
    52    19    48    1
    53    22    49    1
    54    23    50    1
    55    24    51    1
    56    25    52    1
    57    29    53    1
    58    30    54    1
    59    32    55    1
