
     RDKit          3D

 55 59  0  0  0  0  0  0  0  0999 V2000
   -8.7290    4.9207    1.9927 C   0  0  0  0  0  0  0  0  0  0  0  0
   -7.9731    3.7739    1.8774 O   0  0  0  0  0  0  0  0  0  0  0  0
   -6.6370    3.9364    2.0133 C   0  0  0  0  0  0  0  0  0  0  0  0
   -5.8405    2.6757    1.9886 C   0  0  1  0  0  0  0  0  0  0  0  0
   -6.6534    1.5640    2.7602 C   0  0  0  0  0  0  0  0  0  0  0  0
   -5.8150    0.3748    2.7840 O   0  0  0  0  0  0  0  0  0  0  0  0
   -5.1906    0.0885    1.6283 C   0  0  0  0  0  0  0  0  0  0  0  0
   -4.4830   -1.1579    1.4310 C   0  0  0  0  0  0  0  0  0  0  0  0
   -3.8079   -1.5278    0.3429 C   0  0  0  0  0  0  0  0  0  0  0  0
   -3.8389   -0.6214   -0.6128 C   0  0  0  0  0  0  0  0  0  0  0  0
   -2.6385   -0.7308   -1.6399 C   0  0  0  0  0  0  0  0  0  0  0  0
   -2.2476   -0.9677   -2.5629 N   0  0  0  0  0  0  0  0  0  0  0  0
   -1.0231   -0.8758   -2.9428 N   0  0  0  0  0  0  0  0  0  0  0  0
   -0.4811   -0.3684   -1.6389 C   0  0  0  0  0  0  0  0  0  0  0  0
    1.2801   -0.1264   -1.6280 S   0  0  0  0  0  0  0  0  0  0  0  0
    2.0354   -1.0958   -3.0140 C   0  0  0  0  0  0  0  0  0  0  0  0
    3.4211   -1.1854   -2.5795 C   0  0  0  0  0  0  0  0  0  0  0  0
    3.4671   -2.0345   -1.1780 C   0  0  0  0  0  0  0  0  0  0  0  0
    4.7323   -2.1178   -0.7212 C   0  0  0  0  0  0  0  0  0  0  0  0
    5.8841   -1.5748   -1.2877 C   0  0  0  0  0  0  0  0  0  0  0  0
    7.1797   -1.9996   -0.5443 C   0  0  0  0  0  0  0  0  0  0  0  0
    7.4846   -3.1168   -0.5540 C   0  0  0  0  0  0  0  0  0  0  0  0
    8.5988   -3.7011    0.1115 C   0  0  0  0  0  0  0  0  0  0  0  0
    9.3443   -2.8133    0.8157 C   0  0  0  0  0  0  0  0  0  0  0  0
    8.9720   -1.3436    0.8196 C   0  0  0  0  0  0  0  0  0  0  0  0
    7.8464   -0.8826    0.1150 C   0  0  0  0  0  0  0  0  0  0  0  0
    7.4699    0.3551   -0.0544 C   0  0  0  0  0  0  0  0  0  0  0  0
    7.0890    1.5674   -0.2035 N   0  0  0  0  0  0  0  0  0  0  0  0
    5.8458   -0.8877   -2.3632 C   0  0  0  0  0  0  0  0  0  0  0  0
    4.5121   -0.7742   -2.9151 C   0  0  0  0  0  0  0  0  0  0  0  0
   -1.4412   -0.2529   -0.7787 O   0  0  0  0  0  0  0  0  0  0  0  0
   -4.4194    0.5681   -0.7170 C   0  0  0  0  0  0  0  0  0  0  0  0
   -5.1328    0.9712    0.4518 C   0  0  0  0  0  0  0  0  0  0  0  0
   -5.7864    2.1370    0.6645 O   0  0  0  0  0  0  0  0  0  0  0  0
   -8.5038    5.6178    1.1382 H   0  0  0  0  0  0  0  0  0  0  0  0
   -9.8030    4.6844    2.1441 H   0  0  0  0  0  0  0  0  0  0  0  0
   -8.2778    5.4834    2.8858 H   0  0  0  0  0  0  0  0  0  0  0  0
   -6.2109    4.5740    1.1543 H   0  0  0  0  0  0  0  0  0  0  0  0
   -6.3984    4.4973    2.9372 H   0  0  0  0  0  0  0  0  0  0  0  0
   -4.8823    2.7949    2.5035 H   0  0  0  0  0  0  0  0  0  0  0  0
   -7.0051    1.9248    3.6491 H   0  0  0  0  0  0  0  0  0  0  0  0
   -7.4288    1.2583    1.9580 H   0  0  0  0  0  0  0  0  0  0  0  0
   -4.5599   -1.8336    2.3083 H   0  0  0  0  0  0  0  0  0  0  0  0
   -3.2914   -2.4869    0.1892 H   0  0  0  0  0  0  0  0  0  0  0  0
    1.5945   -2.0715   -3.1674 H   0  0  0  0  0  0  0  0  0  0  0  0
    1.9747   -0.5013   -3.9809 H   0  0  0  0  0  0  0  0  0  0  0  0
    2.5343   -2.3346   -0.9331 H   0  0  0  0  0  0  0  0  0  0  0  0
    4.8922   -2.6791    0.2338 H   0  0  0  0  0  0  0  0  0  0  0  0
    6.9018   -3.9629   -1.1387 H   0  0  0  0  0  0  0  0  0  0  0  0
    8.8125   -4.7645    0.0044 H   0  0  0  0  0  0  0  0  0  0  0  0
   10.2077   -3.0300    1.3875 H   0  0  0  0  0  0  0  0  0  0  0  0
    9.5647   -0.6894    1.3801 H   0  0  0  0  0  0  0  0  0  0  0  0
    6.6677   -0.4286   -2.8918 H   0  0  0  0  0  0  0  0  0  0  0  0
    4.6116   -0.0843   -3.8660 H   0  0  0  0  0  0  0  0  0  0  0  0
   -4.4245    1.2555   -1.5294 H   0  0  0  0  0  0  0  0  0  0  0  0
  1  2  1  0
  2  3  1  0
  3  4  1  0
  4  5  1  0
  5  6  1  0
  6  7  1  0
  7  8  2  0
  8  9  1  0
  9 10  2  0
 10 11  1  0
 11 12  2  0
 12 13  1  0
 13 14  2  0
 14 15  1  0
 15 16  1  0
 16 17  1  0
 17 18  2  0
 18 19  1  0
 19 20  2  0
 20 21  1  0
 21 22  2  0
 22 23  1  0
 23 24  2  0
 24 25  1  0
 25 26  2  0
 26 27  1  0
 27 28  3  0
 20 29  1  0
 29 30  2  0
 14 31  1  0
 10 32  1  0
 32 33  2  0
 33 34  1  0
 34  4  1  0
 33  7  1  0
 31 11  1  0
 30 17  1  0
 26 21  1  0
  1 35  1  0
  1 36  1  0
  1 37  1  0
  3 38  1  0
  3 39  1  0
  4 40  1  1
  5 41  1  0
  5 42  1  0
  8 43  1  0
  9 44  1  0
 16 45  1  0
 16 46  1  0
 18 47  1  0
 19 48  1  0
 22 49  1  0
 23 50  1  0
 24 51  1  0
 25 52  1  0
 29 53  1  0
 30 54  1  0
 32 55  1  0
M  END
$$$$
