@<TRIPOS>MOLECULE
*****
 76 80 0 0 0
SMALL
GASTEIGER

@<TRIPOS>ATOM
      1 C          -5.0554    5.1938   -0.2759 C.3     1  UNL1       -0.0397
      2 C          -4.9722    3.7013   -0.1037 C.ar    1  UNL1       -0.0503
      3 C          -4.7243    3.1258    1.1301 C.ar    1  UNL1       -0.0568
      4 C          -4.6488    1.7502    1.2855 C.ar    1  UNL1       -0.0359
      5 C          -4.8258    0.9463    0.1816 C.ar    1  UNL1        0.0674
      6 N          -4.7612   -0.4687    0.2861 N.ar    1  UNL1       -0.2181
      7 N          -5.6022   -1.3108   -0.3323 N.ar    1  UNL1       -0.1691
      8 C          -5.2700   -2.5723   -0.0286 C.ar    1  UNL1        0.0706
      9 C          -5.9738   -3.7713   -0.5274 C.3     1  UNL1        0.0063
     10 C          -5.3065   -5.0108    0.0392 C.3     1  UNL1       -0.0546
     11 C          -7.4209   -3.6909   -0.1422 C.3     1  UNL1       -0.0546
     12 C          -5.8957   -3.7545   -2.0396 C.3     1  UNL1       -0.0546
     13 C          -4.1868   -2.5359    0.8071 C.ar    1  UNL1        0.0021
     14 C          -3.8756   -1.1810    0.9970 C.ar    1  UNL1        0.1299
     15 N          -2.8170   -0.6588    1.7932 N.am    1  UNL1       -0.2538
     16 C          -1.5381   -0.4232    1.1954 C.2     1  UNL1        0.3092
     17 O          -1.3624   -0.6694   -0.0134 O.2     1  UNL1       -0.2521
     18 N          -0.4323    0.0907    1.9333 N.am    1  UNL1       -0.2686
     19 C           0.8355    0.3272    1.3371 C.ar    1  UNL1        0.0427
     20 C           1.8390   -0.5866    1.2524 C.ar    1  UNL1       -0.0364
     21 C           3.0481   -0.2653    0.6524 C.ar    1  UNL1       -0.0176
     22 C           3.2898    0.9700    0.1236 C.ar    1  UNL1        0.1283
     23 O           4.4329    1.3863   -0.4852 O.3     1  UNL1       -0.4901
     24 C           5.6145    0.7177   -0.7051 C.3     1  UNL1        0.1023
     25 C           6.4066    0.2972    0.4808 C.3     1  UNL1        0.0333
     26 N           7.6238   -0.4000    0.1427 N.3     1  UNL1       -0.2948
     27 C           8.6023    0.4259   -0.4911 C.3     1  UNL1        0.0225
     28 C           9.9268   -0.3089   -0.4727 C.3     1  UNL1        0.0604
     29 O           9.7792   -1.6533   -0.7354 O.3     1  UNL1       -0.3772
     30 C           8.6029   -1.9689   -1.3759 C.3     1  UNL1        0.0604
     31 C           7.4256   -1.6736   -0.4665 C.3     1  UNL1        0.0225
     32 C           2.2499    1.9186    0.2104 C.ar    1  UNL1        0.0256
     33 C           2.4436    3.1811   -0.3088 C.ar    1  UNL1       -0.0505
     34 C           1.4480    4.1428   -0.2437 C.ar    1  UNL1       -0.0611
     35 C           0.2499    3.8301    0.3483 C.ar    1  UNL1       -0.0611
     36 C           0.0731    2.5652    0.8615 C.ar    1  UNL1       -0.0521
     37 C           1.0656    1.5785    0.8064 C.ar    1  UNL1        0.0069
     38 C          -5.0733    1.5191   -1.0509 C.ar    1  UNL1       -0.0359
     39 C          -5.1432    2.8657   -1.1816 C.ar    1  UNL1       -0.0568
     40 H          -4.0514    5.6613   -0.1838 H       1  UNL1        0.0278
     41 H          -5.4647    5.3920   -1.2863 H       1  UNL1        0.0278
     42 H          -5.7883    5.5745    0.4456 H       1  UNL1        0.0278
     43 H          -4.5893    3.7731    1.9785 H       1  UNL1        0.0621
     44 H          -4.4502    1.3376    2.2836 H       1  UNL1        0.0639
     45 H          -5.2569   -4.8602    1.1440 H       1  UNL1        0.0239
     46 H          -6.0059   -5.8646   -0.1721 H       1  UNL1        0.0239
     47 H          -4.3297   -5.2046   -0.4101 H       1  UNL1        0.0239
     48 H          -7.7631   -2.6425   -0.3274 H       1  UNL1        0.0239
     49 H          -7.6251   -4.0025    0.8927 H       1  UNL1        0.0239
     50 H          -7.9913   -4.3249   -0.8696 H       1  UNL1        0.0239
     51 H          -6.1751   -2.7557   -2.4082 H       1  UNL1        0.0239
     52 H          -4.8411   -3.9209   -2.3702 H       1  UNL1        0.0239
     53 H          -6.5811   -4.5396   -2.4095 H       1  UNL1        0.0239
     54 H          -3.6393   -3.3625    1.2611 H       1  UNL1        0.0671
     55 H          -2.9333   -0.4417    2.8069 H       1  UNL1        0.1578
     56 H          -0.5686    0.2964    2.9421 H       1  UNL1        0.1564
     57 H           1.6821   -1.5899    1.6668 H       1  UNL1        0.0637
     58 H           3.8150   -1.0469    0.5935 H       1  UNL1        0.0655
     59 H           5.3972   -0.1277   -1.4032 H       1  UNL1        0.0709
     60 H           6.2740    1.4000   -1.3382 H       1  UNL1        0.0709
     61 H           6.7461    1.2243    1.0428 H       1  UNL1        0.0460
     62 H           5.8506   -0.2830    1.2024 H       1  UNL1        0.0460
     63 H           8.3855    0.6624   -1.5532 H       1  UNL1        0.0449
     64 H           8.7158    1.3460    0.1255 H       1  UNL1        0.0449
     65 H          10.4590   -0.1444    0.4867 H       1  UNL1        0.0572
     66 H          10.6000    0.1073   -1.2696 H       1  UNL1        0.0572
     67 H           8.6171   -3.0734   -1.5607 H       1  UNL1        0.0572
     68 H           8.4747   -1.4870   -2.3484 H       1  UNL1        0.0572
     69 H           6.4674   -1.8079   -0.9841 H       1  UNL1        0.0449
     70 H           7.4813   -2.4451    0.3565 H       1  UNL1        0.0449
     71 H           3.3888    3.4069   -0.7685 H       1  UNL1        0.0625
     72 H           1.6282    5.1180   -0.6569 H       1  UNL1        0.0618
     73 H          -0.5676    4.5319    0.4326 H       1  UNL1        0.0618
     74 H          -0.8748    2.2896    1.3395 H       1  UNL1        0.0624
     75 H          -5.2178    0.8893   -1.9476 H       1  UNL1        0.0639
     76 H          -5.3399    3.2851   -2.1671 H       1  UNL1        0.0621
@<TRIPOS>BOND
     1     1     2    1
     2     2     3   ar
     3     3     4   ar
     4     4     5   ar
     5     5     6    1
     6     6     7   ar
     7     7     8   ar
     8     8     9    1
     9     9    10    1
    10     9    11    1
    11     9    12    1
    12     8    13   ar
    13    13    14   ar
    14    14    15    1
    15    15    16   am
    16    16    17    2
    17    16    18   am
    18    18    19    1
    19    19    20   ar
    20    20    21   ar
    21    21    22   ar
    22    22    23    1
    23    23    24    1
    24    24    25    1
    25    25    26    1
    26    26    27    1
    27    27    28    1
    28    28    29    1
    29    29    30    1
    30    30    31    1
    31    22    32   ar
    32    32    33   ar
    33    33    34   ar
    34    34    35   ar
    35    35    36   ar
    36    36    37   ar
    37     5    38   ar
    38    38    39   ar
    39    39     2   ar
    40    14     6   ar
    41    37    19   ar
    42    31    26    1
    43    37    32   ar
    44     1    40    1
    45     1    41    1
    46     1    42    1
    47     3    43    1
    48     4    44    1
    49    10    45    1
    50    10    46    1
    51    10    47    1
    52    11    48    1
    53    11    49    1
    54    11    50    1
    55    12    51    1
    56    12    52    1
    57    12    53    1
    58    13    54    1
    59    15    55    1
    60    18    56    1
    61    20    57    1
    62    21    58    1
    63    24    59    1
    64    24    60    1
    65    25    61    1
    66    25    62    1
    67    27    63    1
    68    27    64    1
    69    28    65    1
    70    28    66    1
    71    30    67    1
    72    30    68    1
    73    31    69    1
    74    31    70    1
    75    33    71    1
    76    34    72    1
    77    35    73    1
    78    36    74    1
    79    38    75    1
    80    39    76    1
