
     RDKit          3D

 47 49  0  0  0  0  0  0  0  0999 V2000
    7.3529    2.8527    0.6854 C   0  0  0  0  0  0  0  0  0  0  0  0
    6.2234    1.9358    0.5207 N   0  0  0  0  0  0  0  0  0  0  0  0
    4.8963    2.3844    0.6611 C   0  0  0  0  0  0  0  0  0  0  0  0
    4.7465    3.6211    0.9366 O   0  0  0  0  0  0  0  0  0  0  0  0
    3.7064    1.5632    0.5192 C   0  0  0  0  0  0  0  0  0  0  0  0
    3.7385    0.2787    0.2370 C   0  0  0  0  0  0  0  0  0  0  0  0
    2.5658   -0.5788    0.0865 C   0  0  0  0  0  0  0  0  0  0  0  0
    2.7481   -1.9126   -0.2111 C   0  0  0  0  0  0  0  0  0  0  0  0
    1.6802   -2.7501   -0.3608 C   0  0  0  0  0  0  0  0  0  0  0  0
    1.8492   -4.0875   -0.6588 O   0  0  0  0  0  0  0  0  0  0  0  0
    3.1612   -4.5871   -0.8095 C   0  0  0  0  0  0  0  0  0  0  0  0
    0.3796   -2.2514   -0.2106 C   0  0  0  0  0  0  0  0  0  0  0  0
    0.1772   -0.9206    0.0870 C   0  0  0  0  0  0  0  0  0  0  0  0
   -1.1593   -0.3644    0.2507 C   0  0  0  0  0  0  0  0  0  0  0  0
   -1.4169    0.6829    1.1045 C   0  0  0  0  0  0  0  0  0  0  0  0
   -2.7177    1.1440    1.1932 C   0  0  0  0  0  0  0  0  0  0  0  0
   -3.7405    0.5836    0.4558 C   0  0  0  0  0  0  0  0  0  0  0  0
   -5.0550    1.0450    0.5414 C   0  0  0  0  0  0  0  0  0  0  0  0
   -6.0725    0.4790   -0.1998 C   0  0  0  0  0  0  0  0  0  0  0  0
   -7.3638    0.9296   -0.1179 O   0  0  0  0  0  0  0  0  0  0  0  0
   -7.6789    2.0053    0.7466 C   0  0  0  0  0  0  0  0  0  0  0  0
   -5.8036   -0.5836   -1.0641 C   0  0  0  0  0  0  0  0  0  0  0  0
   -4.4928   -1.0187   -1.1276 C   0  0  0  0  0  0  0  0  0  0  0  0
   -3.4916   -0.4582   -0.3952 C   0  0  0  0  0  0  0  0  0  0  0  0
   -2.2026   -0.9214   -0.4887 C   0  0  0  0  0  0  0  0  0  0  0  0
    1.2880   -0.0945    0.2328 C   0  0  0  0  0  0  0  0  0  0  0  0
    6.9521    3.8699    0.7604 H   0  0  0  0  0  0  0  0  0  0  0  0
    8.0382    2.8113   -0.1905 H   0  0  0  0  0  0  0  0  0  0  0  0
    7.9247    2.5766    1.5772 H   0  0  0  0  0  0  0  0  0  0  0  0
    6.4055    0.9492    0.2990 H   0  0  0  0  0  0  0  0  0  0  0  0
    2.7207    2.0184    0.6500 H   0  0  0  0  0  0  0  0  0  0  0  0
    4.7488   -0.1381    0.1137 H   0  0  0  0  0  0  0  0  0  0  0  0
    3.7643   -2.2711   -0.3216 H   0  0  0  0  0  0  0  0  0  0  0  0
    3.7652   -4.2735    0.0803 H   0  0  0  0  0  0  0  0  0  0  0  0
    3.6120   -4.0332   -1.6699 H   0  0  0  0  0  0  0  0  0  0  0  0
    3.1849   -5.6783   -0.9611 H   0  0  0  0  0  0  0  0  0  0  0  0
   -0.4909   -2.8901   -0.3230 H   0  0  0  0  0  0  0  0  0  0  0  0
   -0.6206    1.1273    1.6858 H   0  0  0  0  0  0  0  0  0  0  0  0
   -2.9912    1.9678    1.8475 H   0  0  0  0  0  0  0  0  0  0  0  0
   -5.2245    1.8614    1.2146 H   0  0  0  0  0  0  0  0  0  0  0  0
   -7.1955    1.9157    1.7382 H   0  0  0  0  0  0  0  0  0  0  0  0
   -8.7804    1.9805    0.8890 H   0  0  0  0  0  0  0  0  0  0  0  0
   -7.3431    2.9429    0.2447 H   0  0  0  0  0  0  0  0  0  0  0  0
   -6.5792   -1.0515   -1.6609 H   0  0  0  0  0  0  0  0  0  0  0  0
   -4.2859   -1.8529   -1.8072 H   0  0  0  0  0  0  0  0  0  0  0  0
   -1.9921   -1.7458   -1.1589 H   0  0  0  0  0  0  0  0  0  0  0  0
    1.0691    0.9371    0.4655 H   0  0  0  0  0  0  0  0  0  0  0  0
  1  2  1  0
  2  3  1  0
  3  4  2  0
  3  5  1  0
  5  6  2  0
  6  7  1  0
  7  8  2  0
  8  9  1  0
  9 10  1  0
 10 11  1  0
  9 12  2  0
 12 13  1  0
 13 14  1  0
 14 15  2  0
 15 16  1  0
 16 17  2  0
 17 18  1  0
 18 19  2  0
 19 20  1  0
 20 21  1  0
 19 22  1  0
 22 23  2  0
 23 24  1  0
 24 25  2  0
 13 26  2  0
 26  7  1  0
 25 14  1  0
 24 17  1  0
  1 27  1  0
  1 28  1  0
  1 29  1  0
  2 30  1  0
  5 31  1  0
  6 32  1  0
  8 33  1  0
 11 34  1  0
 11 35  1  0
 11 36  1  0
 12 37  1  0
 15 38  1  0
 16 39  1  0
 18 40  1  0
 21 41  1  0
 21 42  1  0
 21 43  1  0
 22 44  1  0
 23 45  1  0
 25 46  1  0
 26 47  1  0
M  END
$$$$
