@<TRIPOS>MOLECULE
*****
 47 49 0 0 0
SMALL
GASTEIGER

@<TRIPOS>ATOM
      1 C           7.3529    2.8527    0.6854 C.3     1  UNL1        0.0003
      2 N           6.2234    1.9358    0.5207 N.am    1  UNL1       -0.3149
      3 C           4.8963    2.3844    0.6611 C.2     1  UNL1        0.2367
      4 O           4.7465    3.6211    0.9366 O.2     1  UNL1       -0.2709
      5 C           3.7064    1.5632    0.5192 C.2     1  UNL1        0.0007
      6 C           3.7385    0.2787    0.2370 C.2     1  UNL1       -0.0496
      7 C           2.5658   -0.5788    0.0865 C.ar    1  UNL1       -0.0208
      8 C           2.7481   -1.9126   -0.2111 C.ar    1  UNL1       -0.0128
      9 C           1.6802   -2.7501   -0.3608 C.ar    1  UNL1        0.1212
     10 O           1.8492   -4.0875   -0.6588 O.3     1  UNL1       -0.4951
     11 C           3.1612   -4.5871   -0.8095 C.3     1  UNL1        0.0788
     12 C           0.3796   -2.2514   -0.2106 C.ar    1  UNL1       -0.0122
     13 C           0.1772   -0.9206    0.0870 C.ar    1  UNL1       -0.0139
     14 C          -1.1593   -0.3644    0.2507 C.ar    1  UNL1       -0.0172
     15 C          -1.4169    0.6829    1.1045 C.ar    1  UNL1       -0.0534
     16 C          -2.7177    1.1440    1.1932 C.ar    1  UNL1       -0.0533
     17 C          -3.7405    0.5836    0.4558 C.ar    1  UNL1       -0.0144
     18 C          -5.0550    1.0450    0.5414 C.ar    1  UNL1       -0.0122
     19 C          -6.0725    0.4790   -0.1998 C.ar    1  UNL1        0.1207
     20 O          -7.3638    0.9296   -0.1179 O.3     1  UNL1       -0.4951
     21 C          -7.6789    2.0053    0.7466 C.3     1  UNL1        0.0788
     22 C          -5.8036   -0.5836   -1.0641 C.ar    1  UNL1       -0.0194
     23 C          -4.4928   -1.0187   -1.1276 C.ar    1  UNL1       -0.0506
     24 C          -3.4916   -0.4582   -0.3952 C.ar    1  UNL1       -0.0171
     25 C          -2.2026   -0.9214   -0.4887 C.ar    1  UNL1       -0.0463
     26 C           1.2880   -0.0945    0.2328 C.ar    1  UNL1       -0.0466
     27 H           6.9521    3.8699    0.7604 H       1  UNL1        0.0426
     28 H           8.0382    2.8113   -0.1905 H       1  UNL1        0.0426
     29 H           7.9247    2.5766    1.5772 H       1  UNL1        0.0426
     30 H           6.4055    0.9492    0.2990 H       1  UNL1        0.1487
     31 H           2.7207    2.0184    0.6500 H       1  UNL1        0.0669
     32 H           4.7488   -0.1381    0.1137 H       1  UNL1        0.0625
     33 H           3.7643   -2.2711   -0.3216 H       1  UNL1        0.0660
     34 H           3.7652   -4.2735    0.0803 H       1  UNL1        0.0660
     35 H           3.6120   -4.0332   -1.6699 H       1  UNL1        0.0660
     36 H           3.1849   -5.6783   -0.9611 H       1  UNL1        0.0660
     37 H          -0.4909   -2.8901   -0.3230 H       1  UNL1        0.0660
     38 H          -0.6206    1.1273    1.6858 H       1  UNL1        0.0624
     39 H          -2.9912    1.9678    1.8475 H       1  UNL1        0.0624
     40 H          -5.2245    1.8614    1.2146 H       1  UNL1        0.0660
     41 H          -7.1955    1.9157    1.7382 H       1  UNL1        0.0660
     42 H          -8.7804    1.9805    0.8890 H       1  UNL1        0.0660
     43 H          -7.3431    2.9429    0.2447 H       1  UNL1        0.0660
     44 H          -6.5792   -1.0515   -1.6609 H       1  UNL1        0.0654
     45 H          -4.2859   -1.8529   -1.8072 H       1  UNL1        0.0625
     46 H          -1.9921   -1.7458   -1.1589 H       1  UNL1        0.0630
     47 H           1.0691    0.9371    0.4655 H       1  UNL1        0.0630
@<TRIPOS>BOND
     1     1     2    1
     2     2     3   am
     3     3     4    2
     4     3     5    1
     5     5     6    2
     6     6     7    1
     7     7     8   ar
     8     8     9   ar
     9     9    10    1
    10    10    11    1
    11     9    12   ar
    12    12    13   ar
    13    13    14    1
    14    14    15   ar
    15    15    16   ar
    16    16    17   ar
    17    17    18   ar
    18    18    19   ar
    19    19    20    1
    20    20    21    1
    21    19    22   ar
    22    22    23   ar
    23    23    24   ar
    24    24    25   ar
    25    13    26   ar
    26    26     7   ar
    27    25    14   ar
    28    24    17   ar
    29     1    27    1
    30     1    28    1
    31     1    29    1
    32     2    30    1
    33     5    31    1
    34     6    32    1
    35     8    33    1
    36    11    34    1
    37    11    35    1
    38    11    36    1
    39    12    37    1
    40    15    38    1
    41    16    39    1
    42    18    40    1
    43    21    41    1
    44    21    42    1
    45    21    43    1
    46    22    44    1
    47    23    45    1
    48    25    46    1
    49    26    47    1
