@<TRIPOS>MOLECULE
*****
 89 93 0 0 0
SMALL
GASTEIGER

@<TRIPOS>ATOM
      1 C          10.4475    2.3256   -1.6151 C.3     1  UNL1       -0.0306
      2 C           9.8928    3.7165   -1.4820 C.3     1  UNL1        0.0884
      3 O           8.5430    3.8211   -1.8998 O.3     1  UNL1       -0.4766
      4 C           7.5127    3.1207   -1.3410 C.ar    1  UNL1        0.2147
      5 C           6.2369    3.3128   -1.8368 C.ar    1  UNL1        0.0006
      6 C           5.2206    2.5942   -1.2531 C.ar    1  UNL1       -0.0476
      7 C           5.4400    1.7113   -0.2137 C.ar    1  UNL1        0.0005
      8 C           4.3412    0.9655    0.4068 C.ar    1  UNL1       -0.0164
      9 C           3.2347    0.5880   -0.3226 C.ar    1  UNL1       -0.0537
     10 C           2.1906   -0.1200    0.2811 C.ar    1  UNL1       -0.0563
     11 C           2.2573   -0.4463    1.6048 C.ar    1  UNL1       -0.0277
     12 C           1.1762   -1.1642    2.2682 C.3     1  UNL1        0.0486
     13 N          -0.0350   -1.3116    1.4618 N.ar    1  UNL1       -0.3383
     14 C          -0.4619   -2.3656    0.7212 C.ar    1  UNL1        0.0346
     15 C           0.2076   -3.6613    0.6530 C.3     1  UNL1        0.0040
     16 C           1.0110   -4.0272   -0.5348 C.3     1  UNL1        0.0673
     17 C           0.2457   -4.0382   -1.8537 C.3     1  UNL1       -0.0493
     18 C           2.3191   -3.2956   -0.6869 C.3     1  UNL1       -0.0493
     19 C           1.3747   -5.4952   -0.3458 C.2     1  UNL1        0.3108
     20 O           2.5770   -5.7855   -0.2950 O.2     1  UNL1       -0.2504
     21 O           0.3770   -6.4423   -0.2387 O.3     1  UNL1       -0.4802
     22 C          -1.6441   -2.0221    0.0955 C.ar    1  UNL1        0.0370
     23 S          -2.6947   -3.0462   -0.9752 S.3     1  UNL1       -0.1169
     24 C          -3.9480   -3.9120   -0.0206 C.3     1  UNL1        0.0129
     25 C          -4.7716   -4.7502   -0.9685 C.3     1  UNL1       -0.0506
     26 C          -4.9010   -2.9511    0.6673 C.3     1  UNL1       -0.0506
     27 C          -3.3881   -4.8117    1.0425 C.3     1  UNL1       -0.0506
     28 C          -1.9333   -0.7280    0.4704 C.ar    1  UNL1        0.0170
     29 C          -2.9882    0.1057    0.1436 C.ar    1  UNL1       -0.0097
     30 C          -3.0480    1.3754    0.6620 C.ar    1  UNL1        0.1218
     31 O          -4.0818    2.2563    0.3696 O.3     1  UNL1       -0.4858
     32 C          -4.1318    3.5581    0.9104 C.3     1  UNL1        0.1313
     33 C          -5.3456    4.2305    0.3996 C.ar    1  UNL1        0.0785
     34 C          -6.1981    3.5962   -0.4904 C.ar    1  UNL1       -0.0368
     35 C          -7.3269    4.2116   -0.9712 C.ar    1  UNL1       -0.0556
     36 C          -7.6327    5.4864   -0.5703 C.ar    1  UNL1       -0.0323
     37 C          -8.8301    6.2285   -1.0408 C.3     1  UNL1       -0.0383
     38 C          -6.7730    6.1091    0.3191 C.ar    1  UNL1        0.0309
     39 N          -5.6757    5.4727    0.7682 N.ar    1  UNL1       -0.2562
     40 C          -2.0459    1.7986    1.5064 C.ar    1  UNL1       -0.0179
     41 C          -0.9890    0.9603    1.8322 C.ar    1  UNL1       -0.0341
     42 C          -0.9305   -0.3323    1.3027 C.ar    1  UNL1        0.0509
     43 C           3.3642   -0.0681    2.3282 C.ar    1  UNL1       -0.0563
     44 C           4.4059    0.6339    1.7445 C.ar    1  UNL1       -0.0537
     45 C           6.7409    1.5562    0.2453 C.ar    1  UNL1        0.0391
     46 N           7.7424    2.2583   -0.3229 N.ar    1  UNL1       -0.2207
     47 H          10.3776    1.9893   -2.6629 H       1  UNL1        0.0262
     48 H           9.9851    1.6088   -0.9049 H       1  UNL1        0.0262
     49 H          11.5315    2.3939   -1.3551 H       1  UNL1        0.0262
     50 H           9.9018    4.0045   -0.3950 H       1  UNL1        0.0694
     51 H          10.5456    4.3935   -2.0674 H       1  UNL1        0.0694
     52 H           6.0457    4.0139   -2.6651 H       1  UNL1        0.0671
     53 H           4.2086    2.7195   -1.6155 H       1  UNL1        0.0626
     54 H           3.2012    0.8539   -1.3676 H       1  UNL1        0.0624
     55 H           1.3500   -0.3842   -0.3635 H       1  UNL1        0.0621
     56 H           1.5232   -2.1468    2.6422 H       1  UNL1        0.0541
     57 H           0.8474   -0.5991    3.1928 H       1  UNL1        0.0541
     58 H          -0.5223   -4.5020    0.8539 H       1  UNL1        0.0338
     59 H           0.9055   -3.7562    1.5509 H       1  UNL1        0.0338
     60 H           0.9843   -4.3942   -2.6483 H       1  UNL1        0.0240
     61 H          -0.5349   -4.8109   -1.8547 H       1  UNL1        0.0240
     62 H          -0.0406   -3.0411   -2.1974 H       1  UNL1        0.0240
     63 H           3.0797   -4.0361   -1.0785 H       1  UNL1        0.0240
     64 H           2.7371   -2.9565    0.2781 H       1  UNL1        0.0240
     65 H           2.2318   -2.4395   -1.3909 H       1  UNL1        0.0240
     66 H           0.6029   -7.3741    0.1004 H       1  UNL1        0.2951
     67 H          -5.2298   -5.5675   -0.3614 H       1  UNL1        0.0243
     68 H          -5.6044   -4.2000   -1.4225 H       1  UNL1        0.0243
     69 H          -4.1281   -5.2606   -1.7297 H       1  UNL1        0.0243
     70 H          -5.6961   -3.5589    1.1517 H       1  UNL1        0.0243
     71 H          -5.4033   -2.2860   -0.0609 H       1  UNL1        0.0243
     72 H          -4.4009   -2.3876    1.4774 H       1  UNL1        0.0243
     73 H          -4.1911   -5.3286    1.5983 H       1  UNL1        0.0243
     74 H          -2.7387   -5.5752    0.5731 H       1  UNL1        0.0243
     75 H          -2.7261   -4.2330    1.7470 H       1  UNL1        0.0243
     76 H          -3.7628   -0.2458   -0.5193 H       1  UNL1        0.0661
     77 H          -4.1407    3.5599    2.0167 H       1  UNL1        0.0763
     78 H          -3.2093    4.0958    0.6057 H       1  UNL1        0.0763
     79 H          -5.9133    2.5817   -0.7811 H       1  UNL1        0.0637
     80 H          -7.9672    3.6983   -1.6568 H       1  UNL1        0.0621
     81 H          -8.4709    7.0836   -1.6825 H       1  UNL1        0.0278
     82 H          -9.5105    5.5612   -1.5807 H       1  UNL1        0.0278
     83 H          -9.3560    6.6343   -0.1500 H       1  UNL1        0.0278
     84 H          -7.0038    7.0954    0.6342 H       1  UNL1        0.0832
     85 H          -2.1032    2.7943    1.9060 H       1  UNL1        0.0655
     86 H          -0.1993    1.2842    2.4939 H       1  UNL1        0.0639
     87 H           3.4645   -0.3031    3.3827 H       1  UNL1        0.0621
     88 H           5.2610    0.9205    2.3253 H       1  UNL1        0.0624
     89 H           6.9845    0.8820    1.0558 H       1  UNL1        0.0837
@<TRIPOS>BOND
     1     1     2    1
     2     2     3    1
     3     3     4    1
     4     4     5   ar
     5     5     6   ar
     6     6     7   ar
     7     7     8    1
     8     8     9   ar
     9     9    10   ar
    10    10    11   ar
    11    11    12    1
    12    12    13    1
    13    13    14   ar
    14    14    15    1
    15    15    16    1
    16    16    17    1
    17    16    18    1
    18    16    19    1
    19    19    20    2
    20    19    21    1
    21    14    22   ar
    22    22    23    1
    23    23    24    1
    24    24    25    1
    25    24    26    1
    26    24    27    1
    27    22    28   ar
    28    28    29   ar
    29    29    30   ar
    30    30    31    1
    31    31    32    1
    32    32    33    1
    33    33    34   ar
    34    34    35   ar
    35    35    36   ar
    36    36    37    1
    37    36    38   ar
    38    38    39   ar
    39    30    40   ar
    40    40    41   ar
    41    41    42   ar
    42    11    43   ar
    43    43    44   ar
    44     7    45   ar
    45    45    46   ar
    46    46     4   ar
    47    44     8   ar
    48    42    13   ar
    49    42    28   ar
    50    39    33   ar
    51     1    47    1
    52     1    48    1
    53     1    49    1
    54     2    50    1
    55     2    51    1
    56     5    52    1
    57     6    53    1
    58     9    54    1
    59    10    55    1
    60    12    56    1
    61    12    57    1
    62    15    58    1
    63    15    59    1
    64    17    60    1
    65    17    61    1
    66    17    62    1
    67    18    63    1
    68    18    64    1
    69    18    65    1
    70    21    66    1
    71    25    67    1
    72    25    68    1
    73    25    69    1
    74    26    70    1
    75    26    71    1
    76    26    72    1
    77    27    73    1
    78    27    74    1
    79    27    75    1
    80    29    76    1
    81    32    77    1
    82    32    78    1
    83    34    79    1
    84    35    80    1
    85    37    81    1
    86    37    82    1
    87    37    83    1
    88    38    84    1
    89    40    85    1
    90    41    86    1
    91    43    87    1
    92    44    88    1
    93    45    89    1
