
     RDKit          3D

 89 93  0  0  0  0  0  0  0  0999 V2000
   10.4475    2.3256   -1.6151 C   0  0  0  0  0  0  0  0  0  0  0  0
    9.8928    3.7165   -1.4820 C   0  0  0  0  0  0  0  0  0  0  0  0
    8.5430    3.8211   -1.8998 O   0  0  0  0  0  0  0  0  0  0  0  0
    7.5127    3.1207   -1.3410 C   0  0  0  0  0  0  0  0  0  0  0  0
    6.2369    3.3128   -1.8368 C   0  0  0  0  0  0  0  0  0  0  0  0
    5.2206    2.5942   -1.2531 C   0  0  0  0  0  0  0  0  0  0  0  0
    5.4400    1.7113   -0.2137 C   0  0  0  0  0  0  0  0  0  0  0  0
    4.3412    0.9655    0.4068 C   0  0  0  0  0  0  0  0  0  0  0  0
    3.2347    0.5880   -0.3226 C   0  0  0  0  0  0  0  0  0  0  0  0
    2.1906   -0.1200    0.2811 C   0  0  0  0  0  0  0  0  0  0  0  0
    2.2573   -0.4463    1.6048 C   0  0  0  0  0  0  0  0  0  0  0  0
    1.1762   -1.1642    2.2682 C   0  0  0  0  0  0  0  0  0  0  0  0
   -0.0350   -1.3116    1.4618 N   0  0  0  0  0  0  0  0  0  0  0  0
   -0.4619   -2.3656    0.7212 C   0  0  0  0  0  0  0  0  0  0  0  0
    0.2076   -3.6613    0.6530 C   0  0  0  0  0  0  0  0  0  0  0  0
    1.0110   -4.0272   -0.5348 C   0  0  0  0  0  0  0  0  0  0  0  0
    0.2457   -4.0382   -1.8537 C   0  0  0  0  0  0  0  0  0  0  0  0
    2.3191   -3.2956   -0.6869 C   0  0  0  0  0  0  0  0  0  0  0  0
    1.3747   -5.4952   -0.3458 C   0  0  0  0  0  0  0  0  0  0  0  0
    2.5770   -5.7855   -0.2950 O   0  0  0  0  0  0  0  0  0  0  0  0
    0.3770   -6.4423   -0.2387 O   0  0  0  0  0  0  0  0  0  0  0  0
   -1.6441   -2.0221    0.0955 C   0  0  0  0  0  0  0  0  0  0  0  0
   -2.6947   -3.0462   -0.9752 S   0  0  0  0  0  0  0  0  0  0  0  0
   -3.9480   -3.9120   -0.0206 C   0  0  0  0  0  0  0  0  0  0  0  0
   -4.7716   -4.7502   -0.9685 C   0  0  0  0  0  0  0  0  0  0  0  0
   -4.9010   -2.9511    0.6673 C   0  0  0  0  0  0  0  0  0  0  0  0
   -3.3881   -4.8117    1.0425 C   0  0  0  0  0  0  0  0  0  0  0  0
   -1.9333   -0.7280    0.4704 C   0  0  0  0  0  0  0  0  0  0  0  0
   -2.9882    0.1057    0.1436 C   0  0  0  0  0  0  0  0  0  0  0  0
   -3.0480    1.3754    0.6620 C   0  0  0  0  0  0  0  0  0  0  0  0
   -4.0818    2.2563    0.3696 O   0  0  0  0  0  0  0  0  0  0  0  0
   -4.1318    3.5581    0.9104 C   0  0  0  0  0  0  0  0  0  0  0  0
   -5.3456    4.2305    0.3996 C   0  0  0  0  0  0  0  0  0  0  0  0
   -6.1981    3.5962   -0.4904 C   0  0  0  0  0  0  0  0  0  0  0  0
   -7.3269    4.2116   -0.9712 C   0  0  0  0  0  0  0  0  0  0  0  0
   -7.6327    5.4864   -0.5703 C   0  0  0  0  0  0  0  0  0  0  0  0
   -8.8301    6.2285   -1.0408 C   0  0  0  0  0  0  0  0  0  0  0  0
   -6.7730    6.1091    0.3191 C   0  0  0  0  0  0  0  0  0  0  0  0
   -5.6757    5.4727    0.7682 N   0  0  0  0  0  0  0  0  0  0  0  0
   -2.0459    1.7986    1.5064 C   0  0  0  0  0  0  0  0  0  0  0  0
   -0.9890    0.9603    1.8322 C   0  0  0  0  0  0  0  0  0  0  0  0
   -0.9305   -0.3323    1.3027 C   0  0  0  0  0  0  0  0  0  0  0  0
    3.3642   -0.0681    2.3282 C   0  0  0  0  0  0  0  0  0  0  0  0
    4.4059    0.6339    1.7445 C   0  0  0  0  0  0  0  0  0  0  0  0
    6.7409    1.5562    0.2453 C   0  0  0  0  0  0  0  0  0  0  0  0
    7.7424    2.2583   -0.3229 N   0  0  0  0  0  0  0  0  0  0  0  0
   10.3776    1.9893   -2.6629 H   0  0  0  0  0  0  0  0  0  0  0  0
    9.9851    1.6088   -0.9049 H   0  0  0  0  0  0  0  0  0  0  0  0
   11.5315    2.3939   -1.3551 H   0  0  0  0  0  0  0  0  0  0  0  0
    9.9018    4.0045   -0.3950 H   0  0  0  0  0  0  0  0  0  0  0  0
   10.5456    4.3935   -2.0674 H   0  0  0  0  0  0  0  0  0  0  0  0
    6.0457    4.0139   -2.6651 H   0  0  0  0  0  0  0  0  0  0  0  0
    4.2086    2.7195   -1.6155 H   0  0  0  0  0  0  0  0  0  0  0  0
    3.2012    0.8539   -1.3676 H   0  0  0  0  0  0  0  0  0  0  0  0
    1.3500   -0.3842   -0.3635 H   0  0  0  0  0  0  0  0  0  0  0  0
    1.5232   -2.1468    2.6422 H   0  0  0  0  0  0  0  0  0  0  0  0
    0.8474   -0.5991    3.1928 H   0  0  0  0  0  0  0  0  0  0  0  0
   -0.5223   -4.5020    0.8539 H   0  0  0  0  0  0  0  0  0  0  0  0
    0.9055   -3.7562    1.5509 H   0  0  0  0  0  0  0  0  0  0  0  0
    0.9843   -4.3942   -2.6483 H   0  0  0  0  0  0  0  0  0  0  0  0
   -0.5349   -4.8109   -1.8547 H   0  0  0  0  0  0  0  0  0  0  0  0
   -0.0406   -3.0411   -2.1974 H   0  0  0  0  0  0  0  0  0  0  0  0
    3.0797   -4.0361   -1.0785 H   0  0  0  0  0  0  0  0  0  0  0  0
    2.7371   -2.9565    0.2781 H   0  0  0  0  0  0  0  0  0  0  0  0
    2.2318   -2.4395   -1.3909 H   0  0  0  0  0  0  0  0  0  0  0  0
    0.6029   -7.3741    0.1004 H   0  0  0  0  0  0  0  0  0  0  0  0
   -5.2298   -5.5675   -0.3614 H   0  0  0  0  0  0  0  0  0  0  0  0
   -5.6044   -4.2000   -1.4225 H   0  0  0  0  0  0  0  0  0  0  0  0
   -4.1281   -5.2606   -1.7297 H   0  0  0  0  0  0  0  0  0  0  0  0
   -5.6961   -3.5589    1.1517 H   0  0  0  0  0  0  0  0  0  0  0  0
   -5.4033   -2.2860   -0.0609 H   0  0  0  0  0  0  0  0  0  0  0  0
   -4.4009   -2.3876    1.4774 H   0  0  0  0  0  0  0  0  0  0  0  0
   -4.1911   -5.3286    1.5983 H   0  0  0  0  0  0  0  0  0  0  0  0
   -2.7387   -5.5752    0.5731 H   0  0  0  0  0  0  0  0  0  0  0  0
   -2.7261   -4.2330    1.7470 H   0  0  0  0  0  0  0  0  0  0  0  0
   -3.7628   -0.2458   -0.5193 H   0  0  0  0  0  0  0  0  0  0  0  0
   -4.1407    3.5599    2.0167 H   0  0  0  0  0  0  0  0  0  0  0  0
   -3.2093    4.0958    0.6057 H   0  0  0  0  0  0  0  0  0  0  0  0
   -5.9133    2.5817   -0.7811 H   0  0  0  0  0  0  0  0  0  0  0  0
   -7.9672    3.6983   -1.6568 H   0  0  0  0  0  0  0  0  0  0  0  0
   -8.4709    7.0836   -1.6825 H   0  0  0  0  0  0  0  0  0  0  0  0
   -9.5105    5.5612   -1.5807 H   0  0  0  0  0  0  0  0  0  0  0  0
   -9.3560    6.6343   -0.1500 H   0  0  0  0  0  0  0  0  0  0  0  0
   -7.0038    7.0954    0.6342 H   0  0  0  0  0  0  0  0  0  0  0  0
   -2.1032    2.7943    1.9060 H   0  0  0  0  0  0  0  0  0  0  0  0
   -0.1993    1.2842    2.4939 H   0  0  0  0  0  0  0  0  0  0  0  0
    3.4645   -0.3031    3.3827 H   0  0  0  0  0  0  0  0  0  0  0  0
    5.2610    0.9205    2.3253 H   0  0  0  0  0  0  0  0  0  0  0  0
    6.9845    0.8820    1.0558 H   0  0  0  0  0  0  0  0  0  0  0  0
  1  2  1  0
  2  3  1  0
  3  4  1  0
  4  5  2  0
  5  6  1  0
  6  7  2  0
  7  8  1  0
  8  9  2  0
  9 10  1  0
 10 11  2  0
 11 12  1  0
 12 13  1  0
 13 14  1  0
 14 15  1  0
 15 16  1  0
 16 17  1  0
 16 18  1  0
 16 19  1  0
 19 20  2  0
 19 21  1  0
 14 22  2  0
 22 23  1  0
 23 24  1  0
 24 25  1  0
 24 26  1  0
 24 27  1  0
 22 28  1  0
 28 29  2  0
 29 30  1  0
 30 31  1  0
 31 32  1  0
 32 33  1  0
 33 34  2  0
 34 35  1  0
 35 36  2  0
 36 37  1  0
 36 38  1  0
 38 39  2  0
 30 40  2  0
 40 41  1  0
 41 42  2  0
 11 43  1  0
 43 44  2  0
  7 45  1  0
 45 46  2  0
 46  4  1  0
 44  8  1  0
 42 13  1  0
 42 28  1  0
 39 33  1  0
  1 47  1  0
  1 48  1  0
  1 49  1  0
  2 50  1  0
  2 51  1  0
  5 52  1  0
  6 53  1  0
  9 54  1  0
 10 55  1  0
 12 56  1  0
 12 57  1  0
 15 58  1  0
 15 59  1  0
 17 60  1  0
 17 61  1  0
 17 62  1  0
 18 63  1  0
 18 64  1  0
 18 65  1  0
 21 66  1  0
 25 67  1  0
 25 68  1  0
 25 69  1  0
 26 70  1  0
 26 71  1  0
 26 72  1  0
 27 73  1  0
 27 74  1  0
 27 75  1  0
 29 76  1  0
 32 77  1  0
 32 78  1  0
 34 79  1  0
 35 80  1  0
 37 81  1  0
 37 82  1  0
 37 83  1  0
 38 84  1  0
 40 85  1  0
 41 86  1  0
 43 87  1  0
 44 88  1  0
 45 89  1  0
M  END
$$$$
