@<TRIPOS>MOLECULE
*****
 68 72 0 0 0
SMALL
GASTEIGER

@<TRIPOS>ATOM
      1 C          -1.7132    4.9739    2.1750 C.3     1  UNL1       -0.0217
      2 C          -2.9196    4.3845    1.5324 C.ar    1  UNL1        0.0472
      3 N          -4.0996    4.9878    1.6711 N.ar    1  UNL1       -0.2582
      4 C          -5.1397    4.4554    1.0182 C.ar    1  UNL1        0.0471
      5 C          -5.0460    3.3567    0.2376 C.ar    1  UNL1        0.0915
      6 C          -6.2025    2.8729   -0.4188 C.1     1  UNL1        0.1026
      7 N          -7.2030    2.4750   -0.9935 N.1     1  UNL1       -0.1908
      8 C          -3.7759    2.6865    0.0752 C.ar    1  UNL1        0.0593
      9 N          -3.8555    1.5943   -0.7684 N.pl3   1  UNL1       -0.3127
     10 C          -3.7012    0.2214   -0.6867 C.ar    1  UNL1        0.0350
     11 C          -2.9074   -0.4315   -1.6555 C.ar    1  UNL1       -0.0383
     12 C          -2.6730   -1.7780   -1.6220 C.ar    1  UNL1       -0.0360
     13 C          -3.2208   -2.5307   -0.6199 C.ar    1  UNL1        0.0468
     14 N          -3.1608   -3.8422   -0.3347 N.ar    1  UNL1       -0.3606
     15 C          -3.8772   -4.0818    0.7780 C.ar    1  UNL1        0.0027
     16 C          -4.4258   -2.8901    1.2372 C.ar    1  UNL1       -0.0364
     17 C          -4.0122   -1.9188    0.3581 C.ar    1  UNL1        0.0043
     18 C          -4.2329   -0.5601    0.2994 C.ar    1  UNL1       -0.0202
     19 C          -5.0854    0.0418    1.3859 C.3     1  UNL1       -0.0373
     20 C          -2.7206    3.2199    0.7383 C.ar    1  UNL1        0.0184
     21 C          -1.4253    2.6390    0.8444 C.2     1  UNL1       -0.0505
     22 C          -0.7698    1.7162    0.2076 C.2     1  UNL1       -0.0539
     23 C           0.6112    1.3280    0.5894 C.ar    1  UNL1       -0.0232
     24 C           1.3456    2.0871    1.4670 C.ar    1  UNL1       -0.0545
     25 C           2.6052    1.6626    1.9223 C.ar    1  UNL1       -0.0594
     26 C           3.1473    0.4898    1.5169 C.ar    1  UNL1       -0.0353
     27 C           2.3895   -0.2849    0.6119 C.ar    1  UNL1        0.1060
     28 S           3.1023   -1.8100    0.1538 S.O2    1  UNL1        0.0609
     29 O           3.6785   -2.5147    1.3691 O.2     1  UNL1       -0.1528
     30 O           2.0380   -2.7478   -0.4022 O.2     1  UNL1       -0.1528
     31 N           4.2780   -1.5819   -1.0168 N.3     1  UNL1       -0.1741
     32 C           4.0815   -2.1205   -2.2502 C.3     1  UNL1        0.0333
     33 C           5.2159   -1.7662   -3.2200 C.3     1  UNL1        0.0131
     34 N           6.4896   -2.1453   -2.6585 N.3     1  UNL1       -0.3028
     35 C           6.5198   -3.5799   -2.4823 C.3     1  UNL1       -0.0127
     36 C           6.7336   -1.5254   -1.3792 C.3     1  UNL1        0.0131
     37 C           5.5137   -1.0651   -0.6526 C.3     1  UNL1        0.0333
     38 C           1.1542    0.1337    0.1659 C.ar    1  UNL1       -0.0282
     39 H          -1.8612    6.0653    2.3918 H       1  UNL1        0.0293
     40 H          -1.4318    4.4211    3.0765 H       1  UNL1        0.0293
     41 H          -0.8597    4.9799    1.4387 H       1  UNL1        0.0293
     42 H          -6.1297    4.9516    1.1355 H       1  UNL1        0.0843
     43 H          -4.1202    1.9067   -1.8079 H       1  UNL1        0.1522
     44 H          -2.4477    0.1260   -2.4769 H       1  UNL1        0.0637
     45 H          -2.0608   -2.3085   -2.3699 H       1  UNL1        0.0639
     46 H          -2.6363   -4.5732   -0.9000 H       1  UNL1        0.1653
     47 H          -4.0239   -5.0423    1.2666 H       1  UNL1        0.0807
     48 H          -5.0445   -2.7181    2.0927 H       1  UNL1        0.0639
     49 H          -5.1913   -0.6249    2.2555 H       1  UNL1        0.0278
     50 H          -6.0710    0.3452    0.9827 H       1  UNL1        0.0278
     51 H          -4.5228    0.9382    1.7188 H       1  UNL1        0.0278
     52 H          -0.8014    3.0053    1.7183 H       1  UNL1        0.0625
     53 H          -1.2271    1.2826   -0.6261 H       1  UNL1        0.0624
     54 H           1.0072    3.0448    1.8298 H       1  UNL1        0.0623
     55 H           3.1664    2.3048    2.6252 H       1  UNL1        0.0618
     56 H           4.1139    0.1186    1.8456 H       1  UNL1        0.0637
     57 H           3.1176   -1.7984   -2.7511 H       1  UNL1        0.0456
     58 H           4.0849   -3.2466   -2.2442 H       1  UNL1        0.0456
     59 H           5.0458   -2.2814   -4.1888 H       1  UNL1        0.0439
     60 H           5.1736   -0.6480   -3.3477 H       1  UNL1        0.0439
     61 H           5.9914   -3.8002   -1.5130 H       1  UNL1        0.0391
     62 H           7.5522   -3.9796   -2.4129 H       1  UNL1        0.0391
     63 H           5.9264   -4.1087   -3.2657 H       1  UNL1        0.0391
     64 H           7.3736   -2.2148   -0.7809 H       1  UNL1        0.0439
     65 H           7.4008   -0.6475   -1.5906 H       1  UNL1        0.0439
     66 H           5.7155   -1.2493    0.4596 H       1  UNL1        0.0456
     67 H           5.4519    0.0731   -0.7635 H       1  UNL1        0.0456
     68 H           0.5715   -0.4732   -0.5318 H       1  UNL1        0.0643
@<TRIPOS>BOND
     1     1     2    1
     2     2     3   ar
     3     3     4   ar
     4     4     5   ar
     5     5     6    1
     6     6     7    3
     7     5     8   ar
     8     8     9    1
     9     9    10    1
    10    10    11   ar
    11    11    12   ar
    12    12    13   ar
    13    13    14   ar
    14    14    15   ar
    15    15    16   ar
    16    16    17   ar
    17    17    18   ar
    18    18    19    1
    19     8    20   ar
    20    20    21    1
    21    21    22    2
    22    22    23    1
    23    23    24   ar
    24    24    25   ar
    25    25    26   ar
    26    26    27   ar
    27    27    28    1
    28    28    29    2
    29    28    30    2
    30    28    31    1
    31    31    32    1
    32    32    33    1
    33    33    34    1
    34    34    35    1
    35    34    36    1
    36    36    37    1
    37    27    38   ar
    38    20     2   ar
    39    38    23   ar
    40    18    10   ar
    41    37    31    1
    42    17    13   ar
    43     1    39    1
    44     1    40    1
    45     1    41    1
    46     4    42    1
    47     9    43    1
    48    11    44    1
    49    12    45    1
    50    14    46    1
    51    15    47    1
    52    16    48    1
    53    19    49    1
    54    19    50    1
    55    19    51    1
    56    21    52    1
    57    22    53    1
    58    24    54    1
    59    25    55    1
    60    26    56    1
    61    32    57    1
    62    32    58    1
    63    33    59    1
    64    33    60    1
    65    35    61    1
    66    35    62    1
    67    35    63    1
    68    36    64    1
    69    36    65    1
    70    37    66    1
    71    37    67    1
    72    38    68    1
