
     RDKit          3D

 68 72  0  0  0  0  0  0  0  0999 V2000
   -1.7132    4.9739    2.1750 C   0  0  0  0  0  0  0  0  0  0  0  0
   -2.9196    4.3845    1.5324 C   0  0  0  0  0  0  0  0  0  0  0  0
   -4.0996    4.9878    1.6711 N   0  0  0  0  0  0  0  0  0  0  0  0
   -5.1397    4.4554    1.0182 C   0  0  0  0  0  0  0  0  0  0  0  0
   -5.0460    3.3567    0.2376 C   0  0  0  0  0  0  0  0  0  0  0  0
   -6.2025    2.8729   -0.4188 C   0  0  0  0  0  0  0  0  0  0  0  0
   -7.2030    2.4750   -0.9935 N   0  0  0  0  0  0  0  0  0  0  0  0
   -3.7759    2.6865    0.0752 C   0  0  0  0  0  0  0  0  0  0  0  0
   -3.8555    1.5943   -0.7684 N   0  0  0  0  0  0  0  0  0  0  0  0
   -3.7012    0.2214   -0.6867 C   0  0  0  0  0  0  0  0  0  0  0  0
   -2.9074   -0.4315   -1.6555 C   0  0  0  0  0  0  0  0  0  0  0  0
   -2.6730   -1.7780   -1.6220 C   0  0  0  0  0  0  0  0  0  0  0  0
   -3.2208   -2.5307   -0.6199 C   0  0  0  0  0  0  0  0  0  0  0  0
   -3.1608   -3.8422   -0.3347 N   0  0  0  0  0  0  0  0  0  0  0  0
   -3.8772   -4.0818    0.7780 C   0  0  0  0  0  0  0  0  0  0  0  0
   -4.4258   -2.8901    1.2372 C   0  0  0  0  0  0  0  0  0  0  0  0
   -4.0122   -1.9188    0.3581 C   0  0  0  0  0  0  0  0  0  0  0  0
   -4.2329   -0.5601    0.2994 C   0  0  0  0  0  0  0  0  0  0  0  0
   -5.0854    0.0418    1.3859 C   0  0  0  0  0  0  0  0  0  0  0  0
   -2.7206    3.2199    0.7383 C   0  0  0  0  0  0  0  0  0  0  0  0
   -1.4253    2.6390    0.8444 C   0  0  0  0  0  0  0  0  0  0  0  0
   -0.7698    1.7162    0.2076 C   0  0  0  0  0  0  0  0  0  0  0  0
    0.6112    1.3280    0.5894 C   0  0  0  0  0  0  0  0  0  0  0  0
    1.3456    2.0871    1.4670 C   0  0  0  0  0  0  0  0  0  0  0  0
    2.6052    1.6626    1.9223 C   0  0  0  0  0  0  0  0  0  0  0  0
    3.1473    0.4898    1.5169 C   0  0  0  0  0  0  0  0  0  0  0  0
    2.3895   -0.2849    0.6119 C   0  0  0  0  0  0  0  0  0  0  0  0
    3.1023   -1.8100    0.1538 S   0  0  0  0  0  6  0  0  0  0  0  0
    3.6785   -2.5147    1.3691 O   0  0  0  0  0  0  0  0  0  0  0  0
    2.0380   -2.7478   -0.4022 O   0  0  0  0  0  0  0  0  0  0  0  0
    4.2780   -1.5819   -1.0168 N   0  0  0  0  0  0  0  0  0  0  0  0
    4.0815   -2.1205   -2.2502 C   0  0  0  0  0  0  0  0  0  0  0  0
    5.2159   -1.7662   -3.2200 C   0  0  0  0  0  0  0  0  0  0  0  0
    6.4896   -2.1453   -2.6585 N   0  0  0  0  0  0  0  0  0  0  0  0
    6.5198   -3.5799   -2.4823 C   0  0  0  0  0  0  0  0  0  0  0  0
    6.7336   -1.5254   -1.3792 C   0  0  0  0  0  0  0  0  0  0  0  0
    5.5137   -1.0651   -0.6526 C   0  0  0  0  0  0  0  0  0  0  0  0
    1.1542    0.1337    0.1659 C   0  0  0  0  0  0  0  0  0  0  0  0
   -1.8612    6.0653    2.3918 H   0  0  0  0  0  0  0  0  0  0  0  0
   -1.4318    4.4211    3.0765 H   0  0  0  0  0  0  0  0  0  0  0  0
   -0.8597    4.9799    1.4387 H   0  0  0  0  0  0  0  0  0  0  0  0
   -6.1297    4.9516    1.1355 H   0  0  0  0  0  0  0  0  0  0  0  0
   -4.1202    1.9067   -1.8079 H   0  0  0  0  0  0  0  0  0  0  0  0
   -2.4477    0.1260   -2.4769 H   0  0  0  0  0  0  0  0  0  0  0  0
   -2.0608   -2.3085   -2.3699 H   0  0  0  0  0  0  0  0  0  0  0  0
   -2.6363   -4.5732   -0.9000 H   0  0  0  0  0  0  0  0  0  0  0  0
   -4.0239   -5.0423    1.2666 H   0  0  0  0  0  0  0  0  0  0  0  0
   -5.0445   -2.7181    2.0927 H   0  0  0  0  0  0  0  0  0  0  0  0
   -5.1913   -0.6249    2.2555 H   0  0  0  0  0  0  0  0  0  0  0  0
   -6.0710    0.3452    0.9827 H   0  0  0  0  0  0  0  0  0  0  0  0
   -4.5228    0.9382    1.7188 H   0  0  0  0  0  0  0  0  0  0  0  0
   -0.8014    3.0053    1.7183 H   0  0  0  0  0  0  0  0  0  0  0  0
   -1.2271    1.2826   -0.6261 H   0  0  0  0  0  0  0  0  0  0  0  0
    1.0072    3.0448    1.8298 H   0  0  0  0  0  0  0  0  0  0  0  0
    3.1664    2.3048    2.6252 H   0  0  0  0  0  0  0  0  0  0  0  0
    4.1139    0.1186    1.8456 H   0  0  0  0  0  0  0  0  0  0  0  0
    3.1176   -1.7984   -2.7511 H   0  0  0  0  0  0  0  0  0  0  0  0
    4.0849   -3.2466   -2.2442 H   0  0  0  0  0  0  0  0  0  0  0  0
    5.0458   -2.2814   -4.1888 H   0  0  0  0  0  0  0  0  0  0  0  0
    5.1736   -0.6480   -3.3477 H   0  0  0  0  0  0  0  0  0  0  0  0
    5.9914   -3.8002   -1.5130 H   0  0  0  0  0  0  0  0  0  0  0  0
    7.5522   -3.9796   -2.4129 H   0  0  0  0  0  0  0  0  0  0  0  0
    5.9264   -4.1087   -3.2657 H   0  0  0  0  0  0  0  0  0  0  0  0
    7.3736   -2.2148   -0.7809 H   0  0  0  0  0  0  0  0  0  0  0  0
    7.4008   -0.6475   -1.5906 H   0  0  0  0  0  0  0  0  0  0  0  0
    5.7155   -1.2493    0.4596 H   0  0  0  0  0  0  0  0  0  0  0  0
    5.4519    0.0731   -0.7635 H   0  0  0  0  0  0  0  0  0  0  0  0
    0.5715   -0.4732   -0.5318 H   0  0  0  0  0  0  0  0  0  0  0  0
  1  2  1  0
  2  3  2  0
  3  4  1  0
  4  5  2  0
  5  6  1  0
  6  7  3  0
  5  8  1  0
  8  9  1  0
  9 10  1  0
 10 11  2  0
 11 12  1  0
 12 13  2  0
 13 14  1  0
 14 15  1  0
 15 16  2  0
 16 17  1  0
 17 18  2  0
 18 19  1  0
  8 20  2  0
 20 21  1  0
 21 22  2  0
 22 23  1  0
 23 24  2  0
 24 25  1  0
 25 26  2  0
 26 27  1  0
 27 28  1  0
 28 29  2  0
 28 30  2  0
 28 31  1  0
 31 32  1  0
 32 33  1  0
 33 34  1  0
 34 35  1  0
 34 36  1  0
 36 37  1  0
 27 38  2  0
 20  2  1  0
 38 23  1  0
 18 10  1  0
 37 31  1  0
 17 13  1  0
  1 39  1  0
  1 40  1  0
  1 41  1  0
  4 42  1  0
  9 43  1  0
 11 44  1  0
 12 45  1  0
 14 46  1  0
 15 47  1  0
 16 48  1  0
 19 49  1  0
 19 50  1  0
 19 51  1  0
 21 52  1  0
 22 53  1  0
 24 54  1  0
 25 55  1  0
 26 56  1  0
 32 57  1  0
 32 58  1  0
 33 59  1  0
 33 60  1  0
 35 61  1  0
 35 62  1  0
 35 63  1  0
 36 64  1  0
 36 65  1  0
 37 66  1  0
 37 67  1  0
 38 68  1  0
M  END
$$$$
