@<TRIPOS>MOLECULE
*****
 32 34 0 0 0
SMALL
GASTEIGER

@<TRIPOS>ATOM
      1 C          -5.9358    0.2430   -0.7052 C.3     1  UNL1        0.0790
      2 O          -4.7533    0.5029   -1.4379 O.3     1  UNL1       -0.4915
      3 C          -3.4914    0.3434   -0.9314 C.ar    1  UNL1        0.1613
      4 C          -3.2183   -0.0882    0.3494 C.ar    1  UNL1       -0.0156
      5 C          -1.9010   -0.2244    0.7888 C.ar    1  UNL1       -0.0474
      6 C          -0.8332    0.0600   -0.0195 C.ar    1  UNL1        0.0210
      7 C           0.5524   -0.0729    0.4124 C.ar    1  UNL1        0.1416
      8 N           1.5764    0.2176   -0.4152 N.ar    1  UNL1       -0.2290
      9 C           2.8709    0.0969   -0.0222 C.ar    1  UNL1        0.0785
     10 C           3.8920    0.4070   -0.9075 C.ar    1  UNL1       -0.0355
     11 C           5.2143    0.2979   -0.5477 C.ar    1  UNL1       -0.0597
     12 C           5.5027   -0.1311    0.7261 C.ar    1  UNL1       -0.0609
     13 C           4.4953   -0.4412    1.6116 C.ar    1  UNL1       -0.0474
     14 C           3.1769   -0.3314    1.2499 C.ar    1  UNL1        0.0647
     15 C           2.1345   -0.6257    2.0882 C.ar    1  UNL1        0.2595
     16 O           2.3904   -1.0192    3.2563 O.2     1  UNL1       -0.2671
     17 N           0.8537   -0.4896    1.6499 N.ar    1  UNL1       -0.3064
     18 C          -1.1167    0.4934   -1.3055 C.ar    1  UNL1       -0.0059
     19 C          -2.4165    0.6301   -1.7461 C.ar    1  UNL1        0.1591
     20 O          -2.6465    1.0731   -3.0590 O.3     1  UNL1       -0.5033
     21 H          -6.1192   -0.8661   -0.6006 H       1  UNL1        0.0660
     22 H          -5.8968    0.6346    0.3292 H       1  UNL1        0.0660
     23 H          -6.8089    0.6389   -1.2569 H       1  UNL1        0.0660
     24 H          -4.0592   -0.3139    0.9908 H       1  UNL1        0.0655
     25 H          -1.7873   -0.5673    1.8030 H       1  UNL1        0.0626
     26 H           3.6458    0.7434   -1.9067 H       1  UNL1        0.0639
     27 H           6.0165    0.5485   -1.2640 H       1  UNL1        0.0618
     28 H           6.5213   -0.2229    1.0260 H       1  UNL1        0.0618
     29 H           4.7255   -0.7860    2.6355 H       1  UNL1        0.0626
     30 H           0.1101   -0.7352    2.3532 H       1  UNL1        0.1704
     31 H          -0.2615    0.7160   -1.9376 H       1  UNL1        0.0662
     32 H          -2.4331    2.0661   -3.2074 H       1  UNL1        0.2923
@<TRIPOS>BOND
     1     1     2    1
     2     2     3    1
     3     3     4   ar
     4     4     5   ar
     5     5     6   ar
     6     6     7    1
     7     7     8   ar
     8     8     9   ar
     9     9    10   ar
    10    10    11   ar
    11    11    12   ar
    12    12    13   ar
    13    13    14   ar
    14    14    15   ar
    15    15    16    2
    16    15    17   ar
    17     6    18   ar
    18    18    19   ar
    19    19    20    1
    20    19     3   ar
    21    17     7   ar
    22    14     9   ar
    23     1    21    1
    24     1    22    1
    25     1    23    1
    26     4    24    1
    27     5    25    1
    28    10    26    1
    29    11    27    1
    30    12    28    1
    31    13    29    1
    32    17    30    1
    33    18    31    1
    34    20    32    1
