
     RDKit          3D

 32 34  0  0  0  0  0  0  0  0999 V2000
   -5.9358    0.2430   -0.7052 C   0  0  0  0  0  0  0  0  0  0  0  0
   -4.7533    0.5029   -1.4379 O   0  0  0  0  0  0  0  0  0  0  0  0
   -3.4914    0.3434   -0.9314 C   0  0  0  0  0  0  0  0  0  0  0  0
   -3.2183   -0.0882    0.3494 C   0  0  0  0  0  0  0  0  0  0  0  0
   -1.9010   -0.2244    0.7888 C   0  0  0  0  0  0  0  0  0  0  0  0
   -0.8332    0.0600   -0.0195 C   0  0  0  0  0  0  0  0  0  0  0  0
    0.5524   -0.0729    0.4124 C   0  0  0  0  0  0  0  0  0  0  0  0
    1.5764    0.2176   -0.4152 N   0  0  0  0  0  0  0  0  0  0  0  0
    2.8709    0.0969   -0.0222 C   0  0  0  0  0  0  0  0  0  0  0  0
    3.8920    0.4070   -0.9075 C   0  0  0  0  0  0  0  0  0  0  0  0
    5.2143    0.2979   -0.5477 C   0  0  0  0  0  0  0  0  0  0  0  0
    5.5027   -0.1311    0.7261 C   0  0  0  0  0  0  0  0  0  0  0  0
    4.4953   -0.4412    1.6116 C   0  0  0  0  0  0  0  0  0  0  0  0
    3.1769   -0.3314    1.2499 C   0  0  0  0  0  0  0  0  0  0  0  0
    2.1345   -0.6257    2.0882 C   0  0  0  0  0  0  0  0  0  0  0  0
    2.3904   -1.0192    3.2563 O   0  0  0  0  0  0  0  0  0  0  0  0
    0.8537   -0.4896    1.6499 N   0  0  0  0  0  0  0  0  0  0  0  0
   -1.1167    0.4934   -1.3055 C   0  0  0  0  0  0  0  0  0  0  0  0
   -2.4165    0.6301   -1.7461 C   0  0  0  0  0  0  0  0  0  0  0  0
   -2.6465    1.0731   -3.0590 O   0  0  0  0  0  0  0  0  0  0  0  0
   -6.1192   -0.8661   -0.6006 H   0  0  0  0  0  0  0  0  0  0  0  0
   -5.8968    0.6346    0.3292 H   0  0  0  0  0  0  0  0  0  0  0  0
   -6.8089    0.6389   -1.2569 H   0  0  0  0  0  0  0  0  0  0  0  0
   -4.0592   -0.3139    0.9908 H   0  0  0  0  0  0  0  0  0  0  0  0
   -1.7873   -0.5673    1.8030 H   0  0  0  0  0  0  0  0  0  0  0  0
    3.6458    0.7434   -1.9067 H   0  0  0  0  0  0  0  0  0  0  0  0
    6.0165    0.5485   -1.2640 H   0  0  0  0  0  0  0  0  0  0  0  0
    6.5213   -0.2229    1.0260 H   0  0  0  0  0  0  0  0  0  0  0  0
    4.7255   -0.7860    2.6355 H   0  0  0  0  0  0  0  0  0  0  0  0
    0.1101   -0.7352    2.3532 H   0  0  0  0  0  0  0  0  0  0  0  0
   -0.2615    0.7160   -1.9376 H   0  0  0  0  0  0  0  0  0  0  0  0
   -2.4331    2.0661   -3.2074 H   0  0  0  0  0  0  0  0  0  0  0  0
  1  2  1  0
  2  3  1  0
  3  4  2  0
  4  5  1  0
  5  6  2  0
  6  7  1  0
  7  8  2  0
  8  9  1  0
  9 10  2  0
 10 11  1  0
 11 12  2  0
 12 13  1  0
 13 14  2  0
 14 15  1  0
 15 16  2  0
 15 17  1  0
  6 18  1  0
 18 19  2  0
 19 20  1  0
 19  3  1  0
 17  7  1  0
 14  9  1  0
  1 21  1  0
  1 22  1  0
  1 23  1  0
  4 24  1  0
  5 25  1  0
 10 26  1  0
 11 27  1  0
 12 28  1  0
 13 29  1  0
 17 30  1  0
 18 31  1  0
 20 32  1  0
M  END
$$$$
