@<TRIPOS>MOLECULE
*****
 59 63 0 0 0
SMALL
GASTEIGER

@<TRIPOS>ATOM
      1 C           7.9016    5.5740    4.1354 C.1     1  UNL1       -0.1139
      2 C           7.0662    4.8410    3.6062 C.1     1  UNL1       -0.0681
      3 C           6.1147    4.0148    3.0321 C.ar    1  UNL1        0.0428
      4 C           5.3726    3.0554    3.6772 C.ar    1  UNL1       -0.0428
      5 C           4.4808    2.1488    3.0972 C.ar    1  UNL1       -0.0323
      6 C           4.3712    2.2955    1.6541 C.ar    1  UNL1        0.0990
      7 C           3.4074    1.5708    0.9242 C.2     1  UNL1        0.1492
      8 F           3.9674    1.3134   -0.4128 F       1  UNL1       -0.2032
      9 C           2.2796    0.9679    1.0179 C.2     1  UNL1       -0.0172
     10 C           1.7735    0.3809   -0.2769 C.ar    1  UNL1       -0.0217
     11 C           1.9627    1.0621   -1.4558 C.ar    1  UNL1       -0.0518
     12 C           1.5416    0.3183   -2.6428 C.ar    1  UNL1       -0.0255
     13 C           1.0051   -0.8727   -2.5849 C.ar    1  UNL1        0.1289
     14 F           0.6464   -1.5653   -3.7379 F       1  UNL1       -0.2051
     15 C           0.8050   -1.5278   -1.3788 C.ar    1  UNL1        0.0158
     16 C           0.0148   -2.7969   -1.3149 C.3     1  UNL1        0.0935
     17 C           0.7964   -3.8878   -2.0156 C.3     1  UNL1       -0.0351
     18 N          -0.0654   -3.2498    0.0820 N.2     1  UNL1       -0.2521
     19 C          -0.7608   -2.6556    0.9504 C.2     1  UNL1        0.1485
     20 N          -0.9278   -2.9887    2.2712 N.pl3   1  UNL1       -0.3380
     21 S          -1.7085   -1.2183    0.3140 S.3     1  UNL1       -0.0746
     22 C          -2.3527   -1.9021   -1.2695 C.3     1  UNL1        0.1054
     23 C          -3.8063   -1.9586   -1.4163 C.2     1  UNL1        0.2326
     24 O          -4.3705   -2.9070   -1.9466 O.2     1  UNL1       -0.2741
     25 N          -4.6205   -0.8730   -0.9192 N.am    1  UNL1       -0.2960
     26 C          -4.0466    0.1807   -0.1719 C.3     1  UNL1        0.0382
     27 C          -5.1174    1.2326    0.0905 C.3     1  UNL1        0.0635
     28 O          -5.9590    1.5023   -0.9304 O.3     1  UNL1       -0.3767
     29 C          -6.4059    0.4923   -1.7133 C.3     1  UNL1        0.0635
     30 C          -6.0237   -0.9060   -1.2234 C.3     1  UNL1        0.0382
     31 C          -1.7003   -1.3297   -2.5433 C.3     1  UNL1       -0.0220
     32 C          -1.3428   -2.6451   -1.9768 C.3     1  UNL1        0.0134
     33 C           1.2154   -0.8636   -0.2636 C.ar    1  UNL1       -0.0463
     34 N           5.0874    3.1945    1.0892 N.ar    1  UNL1       -0.2515
     35 C           5.9190    4.0385    1.6360 C.ar    1  UNL1        0.0437
     36 H           8.6986    6.2500    4.6448 H       1  UNL1        0.1232
     37 H           5.4634    2.9917    4.7693 H       1  UNL1        0.0631
     38 H           3.9149    1.4347    3.5794 H       1  UNL1        0.0640
     39 H           1.7625    0.9043    1.8956 H       1  UNL1        0.0653
     40 H           2.3381    2.0355   -1.5291 H       1  UNL1        0.0624
     41 H           1.7154    0.9003   -3.5877 H       1  UNL1        0.0646
     42 H           0.2503   -4.8713   -1.9045 H       1  UNL1        0.0256
     43 H           0.9953   -3.6901   -3.0813 H       1  UNL1        0.0256
     44 H           1.7531   -4.0236   -1.4684 H       1  UNL1        0.0256
     45 H          -0.4616   -2.5363    3.0726 H       1  UNL1        0.1442
     46 H          -1.5816   -3.8087    2.5549 H       1  UNL1        0.1442
     47 H          -3.7450   -0.1315    0.8746 H       1  UNL1        0.0487
     48 H          -3.2024    0.6833   -0.6662 H       1  UNL1        0.0487
     49 H          -4.6075    2.2184    0.3781 H       1  UNL1        0.0575
     50 H          -5.7072    0.9752    1.0237 H       1  UNL1        0.0575
     51 H          -5.9816    0.6936   -2.7419 H       1  UNL1        0.0575
     52 H          -7.5204    0.4546   -1.8378 H       1  UNL1        0.0575
     53 H          -6.6780   -1.0926   -0.3142 H       1  UNL1        0.0487
     54 H          -6.3156   -1.6245   -2.0383 H       1  UNL1        0.0487
     55 H          -1.2657   -0.3696   -2.3218 H       1  UNL1        0.0287
     56 H          -2.2681   -1.3483   -3.4926 H       1  UNL1        0.0287
     57 H          -1.6736   -3.5364   -2.4910 H       1  UNL1        0.0346
     58 H           1.1299   -1.3289    0.7382 H       1  UNL1        0.0628
     59 H           6.4664    4.7844    1.0762 H       1  UNL1        0.0842
@<TRIPOS>BOND
     1     1     2    3
     2     2     3    1
     3     3     4   ar
     4     4     5   ar
     5     5     6   ar
     6     6     7    1
     7     7     8    1
     8     7     9    2
     9     9    10    1
    10    10    11   ar
    11    11    12   ar
    12    12    13   ar
    13    13    14    1
    14    13    15   ar
    15    15    16    1
    16    16    17    1
    17    16    18    1
    18    18    19    2
    19    19    20    1
    20    19    21    1
    21    21    22    1
    22    22    23    1
    23    23    24    2
    24    23    25   am
    25    25    26    1
    26    26    27    1
    27    27    28    1
    28    28    29    1
    29    29    30    1
    30    22    31    1
    31    31    32    1
    32    15    33   ar
    33     6    34   ar
    34    34    35   ar
    35    35     3   ar
    36    33    10   ar
    37    32    16    1
    38    32    22    1
    39    30    25    1
    40     1    36    1
    41     4    37    1
    42     5    38    1
    43     9    39    1
    44    11    40    1
    45    12    41    1
    46    17    42    1
    47    17    43    1
    48    17    44    1
    49    20    45    1
    50    20    46    1
    51    26    47    1
    52    26    48    1
    53    27    49    1
    54    27    50    1
    55    29    51    1
    56    29    52    1
    57    30    53    1
    58    30    54    1
    59    31    55    1
    60    31    56    1
    61    32    57    1
    62    33    58    1
    63    35    59    1
