
     RDKit          3D

 59 63  0  0  0  0  0  0  0  0999 V2000
    7.9016    5.5740    4.1354 C   0  0  0  0  0  0  0  0  0  0  0  0
    7.0662    4.8410    3.6062 C   0  0  0  0  0  0  0  0  0  0  0  0
    6.1147    4.0148    3.0321 C   0  0  0  0  0  0  0  0  0  0  0  0
    5.3726    3.0554    3.6772 C   0  0  0  0  0  0  0  0  0  0  0  0
    4.4808    2.1488    3.0972 C   0  0  0  0  0  0  0  0  0  0  0  0
    4.3712    2.2955    1.6541 C   0  0  0  0  0  0  0  0  0  0  0  0
    3.4074    1.5708    0.9242 C   0  0  0  0  0  0  0  0  0  0  0  0
    3.9674    1.3134   -0.4128 F   0  0  0  0  0  0  0  0  0  0  0  0
    2.2796    0.9679    1.0179 C   0  0  0  0  0  0  0  0  0  0  0  0
    1.7735    0.3809   -0.2769 C   0  0  0  0  0  0  0  0  0  0  0  0
    1.9627    1.0621   -1.4558 C   0  0  0  0  0  0  0  0  0  0  0  0
    1.5416    0.3183   -2.6428 C   0  0  0  0  0  0  0  0  0  0  0  0
    1.0051   -0.8727   -2.5849 C   0  0  0  0  0  0  0  0  0  0  0  0
    0.6464   -1.5653   -3.7379 F   0  0  0  0  0  0  0  0  0  0  0  0
    0.8050   -1.5278   -1.3788 C   0  0  0  0  0  0  0  0  0  0  0  0
    0.0148   -2.7969   -1.3149 C   0  0  1  0  0  0  0  0  0  0  0  0
    0.7964   -3.8878   -2.0156 C   0  0  0  0  0  0  0  0  0  0  0  0
   -0.0654   -3.2498    0.0820 N   0  0  0  0  0  0  0  0  0  0  0  0
   -0.7608   -2.6556    0.9504 C   0  0  0  0  0  0  0  0  0  0  0  0
   -0.9278   -2.9887    2.2712 N   0  0  0  0  0  0  0  0  0  0  0  0
   -1.7085   -1.2183    0.3140 S   0  0  0  0  0  0  0  0  0  0  0  0
   -2.3527   -1.9021   -1.2695 C   0  0  1  0  0  0  0  0  0  0  0  0
   -3.8063   -1.9586   -1.4163 C   0  0  0  0  0  0  0  0  0  0  0  0
   -4.3705   -2.9070   -1.9466 O   0  0  0  0  0  0  0  0  0  0  0  0
   -4.6205   -0.8730   -0.9192 N   0  0  0  0  0  0  0  0  0  0  0  0
   -4.0466    0.1807   -0.1719 C   0  0  0  0  0  0  0  0  0  0  0  0
   -5.1174    1.2326    0.0905 C   0  0  0  0  0  0  0  0  0  0  0  0
   -5.9590    1.5023   -0.9304 O   0  0  0  0  0  0  0  0  0  0  0  0
   -6.4059    0.4923   -1.7133 C   0  0  0  0  0  0  0  0  0  0  0  0
   -6.0237   -0.9060   -1.2234 C   0  0  0  0  0  0  0  0  0  0  0  0
   -1.7003   -1.3297   -2.5433 C   0  0  0  0  0  0  0  0  0  0  0  0
   -1.3428   -2.6451   -1.9768 C   0  0  1  0  0  0  0  0  0  0  0  0
    1.2154   -0.8636   -0.2636 C   0  0  0  0  0  0  0  0  0  0  0  0
    5.0874    3.1945    1.0892 N   0  0  0  0  0  0  0  0  0  0  0  0
    5.9190    4.0385    1.6360 C   0  0  0  0  0  0  0  0  0  0  0  0
    8.6986    6.2500    4.6448 H   0  0  0  0  0  0  0  0  0  0  0  0
    5.4634    2.9917    4.7693 H   0  0  0  0  0  0  0  0  0  0  0  0
    3.9149    1.4347    3.5794 H   0  0  0  0  0  0  0  0  0  0  0  0
    1.7625    0.9043    1.8956 H   0  0  0  0  0  0  0  0  0  0  0  0
    2.3381    2.0355   -1.5291 H   0  0  0  0  0  0  0  0  0  0  0  0
    1.7154    0.9003   -3.5877 H   0  0  0  0  0  0  0  0  0  0  0  0
    0.2503   -4.8713   -1.9045 H   0  0  0  0  0  0  0  0  0  0  0  0
    0.9953   -3.6901   -3.0813 H   0  0  0  0  0  0  0  0  0  0  0  0
    1.7531   -4.0236   -1.4684 H   0  0  0  0  0  0  0  0  0  0  0  0
   -0.4616   -2.5363    3.0726 H   0  0  0  0  0  0  0  0  0  0  0  0
   -1.5816   -3.8087    2.5549 H   0  0  0  0  0  0  0  0  0  0  0  0
   -3.7450   -0.1315    0.8746 H   0  0  0  0  0  0  0  0  0  0  0  0
   -3.2024    0.6833   -0.6662 H   0  0  0  0  0  0  0  0  0  0  0  0
   -4.6075    2.2184    0.3781 H   0  0  0  0  0  0  0  0  0  0  0  0
   -5.7072    0.9752    1.0237 H   0  0  0  0  0  0  0  0  0  0  0  0
   -5.9816    0.6936   -2.7419 H   0  0  0  0  0  0  0  0  0  0  0  0
   -7.5204    0.4546   -1.8378 H   0  0  0  0  0  0  0  0  0  0  0  0
   -6.6780   -1.0926   -0.3142 H   0  0  0  0  0  0  0  0  0  0  0  0
   -6.3156   -1.6245   -2.0383 H   0  0  0  0  0  0  0  0  0  0  0  0
   -1.2657   -0.3696   -2.3218 H   0  0  0  0  0  0  0  0  0  0  0  0
   -2.2681   -1.3483   -3.4926 H   0  0  0  0  0  0  0  0  0  0  0  0
   -1.6736   -3.5364   -2.4910 H   0  0  0  0  0  0  0  0  0  0  0  0
    1.1299   -1.3289    0.7382 H   0  0  0  0  0  0  0  0  0  0  0  0
    6.4664    4.7844    1.0762 H   0  0  0  0  0  0  0  0  0  0  0  0
  1  2  3  0
  2  3  1  0
  3  4  2  0
  4  5  1  0
  5  6  2  0
  6  7  1  0
  7  8  1  0
  7  9  2  0
  9 10  1  0
 10 11  2  0
 11 12  1  0
 12 13  2  0
 13 14  1  0
 13 15  1  0
 15 16  1  0
 16 17  1  6
 16 18  1  0
 18 19  2  0
 19 20  1  0
 19 21  1  0
 21 22  1  0
 22 23  1  6
 23 24  2  0
 23 25  1  0
 25 26  1  0
 26 27  1  0
 27 28  1  0
 28 29  1  0
 29 30  1  0
 22 31  1  0
 31 32  1  0
 15 33  2  0
  6 34  1  0
 34 35  2  0
 35  3  1  0
 33 10  1  0
 32 16  1  0
 32 22  1  0
 30 25  1  0
  1 36  1  0
  4 37  1  0
  5 38  1  0
  9 39  1  0
 11 40  1  0
 12 41  1  0
 17 42  1  0
 17 43  1  0
 17 44  1  0
 20 45  1  0
 20 46  1  0
 26 47  1  0
 26 48  1  0
 27 49  1  0
 27 50  1  0
 29 51  1  0
 29 52  1  0
 30 53  1  0
 30 54  1  0
 31 55  1  0
 31 56  1  0
 32 57  1  6
 33 58  1  0
 35 59  1  0
M  END
$$$$
