@<TRIPOS>MOLECULE
*****
 12 11 0 0 0
SMALL
GASTEIGER

@<TRIPOS>ATOM
      1 F          -2.4827    1.4996    0.6409 F       1  UNL1       -0.1783
      2 C          -1.7445    0.4429    0.1686 C.3     1  UNL1        0.3482
      3 F          -2.4045   -0.7637    0.3574 F       1  UNL1       -0.1783
      4 O          -0.5061    0.3343    0.7554 O.3     1  UNL1       -0.2938
      5 C           0.5676    0.3981   -0.0915 C.3     1  UNL1        0.2315
      6 CL          1.7057    1.6839    0.3683 Cl      1  UNL1       -0.0813
      7 C           1.3688   -0.9075   -0.0635 C.3     1  UNL1        0.4297
      8 F           1.7888   -1.0591    1.2466 F       1  UNL1       -0.1667
      9 F           0.6037   -1.9646   -0.4506 F       1  UNL1       -0.1667
     10 F           2.5079   -0.7669   -0.8244 F       1  UNL1       -0.1667
     11 H          -1.6932    0.5713   -0.9473 H       1  UNL1        0.1361
     12 H           0.2885    0.5317   -1.1598 H       1  UNL1        0.0861
@<TRIPOS>BOND
     1     1     2    1
     2     2     3    1
     3     2     4    1
     4     4     5    1
     5     5     6    1
     6     5     7    1
     7     7     8    1
     8     7     9    1
     9     7    10    1
    10     2    11    1
    11     5    12    1
