@<TRIPOS>MOLECULE
*****
 69 73 0 0 0
SMALL
GASTEIGER

@<TRIPOS>ATOM
      1 N           3.2395    1.7681    0.6090 N.3     1  UNL1       -0.3173
      2 C           2.1599    0.8681    0.3342 C.3     1  UNL1        0.0965
      3 C           0.8786    1.5683    0.6757 C.2     1  UNL1        0.2336
      4 O           0.8709    2.7516    1.1048 O.2     1  UNL1       -0.2738
      5 N          -0.3952    0.9560    0.5416 N.am    1  UNL1       -0.3069
      6 C          -1.6158    1.5995    0.8590 C.3     1  UNL1        0.0496
      7 C          -2.5664    1.8180   -0.2795 C.3     1  UNL1       -0.0175
      8 C          -2.9681    0.4833   -0.9165 C.3     1  UNL1        0.0009
      9 N          -3.8843    0.7046   -2.0177 N.3     1  UNL1       -0.3022
     10 C          -5.1697    1.1877   -1.6220 C.3     1  UNL1       -0.0011
     11 C          -5.9750    0.1416   -0.8533 C.3     1  UNL1       -0.0402
     12 C          -6.2225   -1.0290   -1.7700 C.3     1  UNL1       -0.0507
     13 C          -5.4531   -0.9002   -3.0425 C.3     1  UNL1       -0.0402
     14 C          -4.0246   -0.5198   -2.7509 C.3     1  UNL1       -0.0011
     15 C          -2.2998    1.0315    2.0649 C.ar    1  UNL1       -0.0271
     16 C          -2.8705    1.8522    3.0323 C.ar    1  UNL1       -0.0554
     17 C          -3.4999    1.3421    4.1465 C.ar    1  UNL1       -0.0431
     18 C          -3.5677   -0.0191    4.3103 C.ar    1  UNL1        0.0410
     19 CL         -4.3867   -0.6120    5.7581 Cl      1  UNL1       -0.0835
     20 C          -3.0159   -0.8673    3.3771 C.ar    1  UNL1       -0.0431
     21 C          -2.3998   -0.3155    2.2848 C.ar    1  UNL1       -0.0554
     22 C           2.2791   -0.3692    1.1868 C.3     1  UNL1       -0.0104
     23 C           3.6598   -0.9899    1.0058 C.3     1  UNL1        0.0156
     24 N           3.8419   -1.2256   -0.4061 N.pl3   1  UNL1       -0.3144
     25 C           5.0689   -1.7620   -0.8696 C.ar    1  UNL1        0.1337
     26 N           5.1285   -3.0202   -1.3912 N.ar    1  UNL1       -0.2200
     27 C           6.2912   -3.5415   -1.8178 C.ar    1  UNL1        0.1204
     28 N           7.4245   -2.8490   -1.7462 N.ar    1  UNL1       -0.2178
     29 C           7.4382   -1.6038   -1.2436 C.ar    1  UNL1        0.1432
     30 N           8.4227   -0.6995   -1.0648 N.ar    1  UNL1       -0.3457
     31 C           7.8934    0.4016   -0.5251 C.ar    1  UNL1        0.0042
     32 C           6.5277    0.2017   -0.3506 C.ar    1  UNL1       -0.0318
     33 C           6.2394   -1.0551   -0.7997 C.ar    1  UNL1        0.0585
     34 C           2.7525   -0.9063   -1.3126 C.3     1  UNL1        0.0156
     35 C           2.2217    0.4983   -1.1261 C.3     1  UNL1       -0.0104
     36 H           2.9178    2.5714    1.1723 H       1  UNL1        0.1192
     37 H           3.7549    2.0594   -0.2352 H       1  UNL1        0.1192
     38 H          -0.3694   -0.0410    0.1781 H       1  UNL1        0.1493
     39 H          -1.3336    2.6511    1.1848 H       1  UNL1        0.0549
     40 H          -2.1876    2.4396   -1.0824 H       1  UNL1        0.0299
     41 H          -3.5279    2.2705    0.0503 H       1  UNL1        0.0299
     42 H          -2.0521    0.0263   -1.3633 H       1  UNL1        0.0427
     43 H          -3.4278   -0.1821   -0.1420 H       1  UNL1        0.0427
     44 H          -5.7492    1.3376   -2.5803 H       1  UNL1        0.0426
     45 H          -5.1781    2.1640   -1.1297 H       1  UNL1        0.0426
     46 H          -6.9726    0.6162   -0.6535 H       1  UNL1        0.0278
     47 H          -5.4544   -0.1324    0.0732 H       1  UNL1        0.0278
     48 H          -5.8559   -1.9533   -1.2409 H       1  UNL1        0.0266
     49 H          -7.3061   -1.1868   -1.9637 H       1  UNL1        0.0266
     50 H          -5.9326   -0.2736   -3.8116 H       1  UNL1        0.0278
     51 H          -5.4040   -1.9322   -3.4955 H       1  UNL1        0.0278
     52 H          -3.5928   -1.3796   -2.1631 H       1  UNL1        0.0426
     53 H          -3.4107   -0.4869   -3.6824 H       1  UNL1        0.0426
     54 H          -2.8016    2.9346    2.8748 H       1  UNL1        0.0621
     55 H          -3.9375    2.0310    4.8868 H       1  UNL1        0.0632
     56 H          -3.0929   -1.9335    3.5464 H       1  UNL1        0.0632
     57 H          -1.9724   -0.9969    1.5686 H       1  UNL1        0.0621
     58 H           2.0763   -0.0930    2.2378 H       1  UNL1        0.0303
     59 H           1.5065   -1.1028    0.8336 H       1  UNL1        0.0303
     60 H           4.3872   -0.2928    1.4312 H       1  UNL1        0.0465
     61 H           3.6139   -1.9446    1.5838 H       1  UNL1        0.0465
     62 H           6.3527   -4.5534   -2.2397 H       1  UNL1        0.1048
     63 H           9.4267   -0.8122   -1.2968 H       1  UNL1        0.1668
     64 H           8.4192    1.3060   -0.2609 H       1  UNL1        0.0807
     65 H           5.8465    0.9263    0.0611 H       1  UNL1        0.0640
     66 H           3.1660   -0.9949   -2.3565 H       1  UNL1        0.0465
     67 H           1.9374   -1.6601   -1.2176 H       1  UNL1        0.0465
     68 H           2.8974    1.1783   -1.6848 H       1  UNL1        0.0303
     69 H           1.2332    0.5508   -1.6218 H       1  UNL1        0.0303
@<TRIPOS>BOND
     1     1     2    1
     2     2     3    1
     3     3     4    2
     4     3     5   am
     5     5     6    1
     6     6     7    1
     7     7     8    1
     8     8     9    1
     9     9    10    1
    10    10    11    1
    11    11    12    1
    12    12    13    1
    13    13    14    1
    14     6    15    1
    15    15    16   ar
    16    16    17   ar
    17    17    18   ar
    18    18    19    1
    19    18    20   ar
    20    20    21   ar
    21     2    22    1
    22    22    23    1
    23    23    24    1
    24    24    25    1
    25    25    26   ar
    26    26    27   ar
    27    27    28   ar
    28    28    29   ar
    29    29    30   ar
    30    30    31   ar
    31    31    32   ar
    32    32    33   ar
    33    24    34    1
    34    34    35    1
    35    35     2    1
    36    14     9    1
    37    21    15   ar
    38    33    25   ar
    39    33    29   ar
    40     1    36    1
    41     1    37    1
    42     5    38    1
    43     6    39    1
    44     7    40    1
    45     7    41    1
    46     8    42    1
    47     8    43    1
    48    10    44    1
    49    10    45    1
    50    11    46    1
    51    11    47    1
    52    12    48    1
    53    12    49    1
    54    13    50    1
    55    13    51    1
    56    14    52    1
    57    14    53    1
    58    16    54    1
    59    17    55    1
    60    20    56    1
    61    21    57    1
    62    22    58    1
    63    22    59    1
    64    23    60    1
    65    23    61    1
    66    27    62    1
    67    30    63    1
    68    31    64    1
    69    32    65    1
    70    34    66    1
    71    34    67    1
    72    35    68    1
    73    35    69    1
