@<TRIPOS>MOLECULE
*****
 60 64 0 0 0
SMALL
GASTEIGER

@<TRIPOS>ATOM
      1 C           7.0903    1.0168    0.9246 C.3     1  UNL1        0.0000
      2 C           5.6483    0.5670    0.8617 C.3     1  UNL1        0.0000
      3 C           5.4318   -0.5400   -0.1407 C.3     1  UNL1        0.0000
      4 O           5.8181   -0.0335   -1.3950 O.3     1  UNL1        0.0000
      5 C           6.2771   -1.7161    0.1201 C.2     1  UNL1        0.0000
      6 O           7.4801   -1.7022   -0.2495 O.2     1  UNL1        0.0000
      7 O           5.6396   -2.7573    0.7694 O.3     1  UNL1        0.0000
      8 C           4.3377   -3.1781    0.5212 C.3     1  UNL1        0.0000
      9 C           3.4151   -2.0706    0.1741 C.ar    1  UNL1        0.0000
     10 C           3.9792   -0.8551   -0.1279 C.ar    1  UNL1        0.0000
     11 C           3.0949    0.1535   -0.4461 C.ar    1  UNL1        0.0000
     12 C           1.7288   -0.0264   -0.4657 C.ar    1  UNL1        0.0000
     13 N           1.2535   -1.2442   -0.1590 N.ar    1  UNL1        0.0000
     14 C          -0.2015   -1.3441   -0.2054 C.3     1  UNL1        0.0000
     15 C          -0.6302    0.0205   -0.5927 C.ar    1  UNL1        0.0000
     16 C          -1.8102    0.7055   -0.8389 C.ar    1  UNL1        0.0000
     17 C          -3.0769   -0.0132   -0.6976 C.3     1  UNL1        0.0000
     18 C          -3.4420   -0.1074    0.7774 C.3     1  UNL1        0.0000
     19 SI         -5.0457   -1.0153    1.0204 Si      1  UNL1        0.0000
     20 C          -6.3522    0.1652    1.6736 C.3     1  UNL1        0.0000
     21 C          -4.7993   -2.3825    2.2422 C.3     1  UNL1        0.0000
     22 C          -5.6403   -1.6459   -0.6298 C.3     1  UNL1        0.0000
     23 C          -1.7184    2.0470   -1.2010 C.ar    1  UNL1        0.0000
     24 C          -2.8597    2.7621   -1.4509 C.ar    1  UNL1        0.0000
     25 C          -2.8882    4.1012   -1.8161 C.ar    1  UNL1        0.0000
     26 C          -1.6805    4.7663   -1.9381 C.ar    1  UNL1        0.0000
     27 C          -0.5095    4.0795   -1.6944 C.ar    1  UNL1        0.0000
     28 C          -0.5517    2.7564   -1.3368 C.ar    1  UNL1        0.0000
     29 N           0.6081    2.0911   -1.0967 N.ar    1  UNL1        0.0000
     30 C           0.5397    0.7730   -0.7400 C.ar    1  UNL1        0.0000
     31 C           2.0594   -2.2842    0.1640 C.ar    1  UNL1        0.0000
     32 O           1.6563   -3.4443    0.4585 O.2     1  UNL1        0.0000
     33 H           7.0784    2.0393    1.3627 H       1  UNL1        0.0000
     34 H           7.5966    0.3088    1.6219 H       1  UNL1        0.0000
     35 H           7.5899    1.0131   -0.0424 H       1  UNL1        0.0000
     36 H           5.0729    1.4503    0.5146 H       1  UNL1        0.0000
     37 H           5.2905    0.3495    1.8697 H       1  UNL1        0.0000
     38 H           5.0248    0.2644   -1.8751 H       1  UNL1        0.0000
     39 H           3.9468   -3.6386    1.4550 H       1  UNL1        0.0000
     40 H           4.2849   -3.9829   -0.2540 H       1  UNL1        0.0000
     41 H           3.4676    1.1239   -0.6915 H       1  UNL1        0.0000
     42 H          -0.5178   -2.0662   -1.0096 H       1  UNL1        0.0000
     43 H          -0.6242   -1.6626    0.7434 H       1  UNL1        0.0000
     44 H          -3.9205    0.3569   -1.2921 H       1  UNL1        0.0000
     45 H          -2.9123   -1.0677   -1.0624 H       1  UNL1        0.0000
     46 H          -2.5973   -0.5089    1.3278 H       1  UNL1        0.0000
     47 H          -3.5710    0.9535    1.1099 H       1  UNL1        0.0000
     48 H          -6.1353    0.4612    2.7148 H       1  UNL1        0.0000
     49 H          -7.3283   -0.3417    1.6632 H       1  UNL1        0.0000
     50 H          -6.3821    1.0841    1.0535 H       1  UNL1        0.0000
     51 H          -3.9178   -2.1418    2.8625 H       1  UNL1        0.0000
     52 H          -5.6850   -2.4177    2.9311 H       1  UNL1        0.0000
     53 H          -4.6514   -3.3707    1.7484 H       1  UNL1        0.0000
     54 H          -5.7739   -0.7655   -1.2907 H       1  UNL1        0.0000
     55 H          -4.9012   -2.3105   -1.1195 H       1  UNL1        0.0000
     56 H          -6.6303   -2.1395   -0.4970 H       1  UNL1        0.0000
     57 H          -3.8400    2.3293   -1.3787 H       1  UNL1        0.0000
     58 H          -3.7527    4.6836   -2.0170 H       1  UNL1        0.0000
     59 H          -1.5274    5.8131   -2.2159 H       1  UNL1        0.0000
     60 H           0.4641    4.5386   -1.7721 H       1  UNL1        0.0000
@<TRIPOS>BOND
     1     1     2    1
     2     2     3    1
     3     3     4    1
     4     3     5    1
     5     5     6    2
     6     5     7    1
     7     7     8    1
     8     8     9    1
     9     9    10   ar
    10    10    11   ar
    11    11    12   ar
    12    12    13   ar
    13    13    14    1
    14    14    15    1
    15    15    16   ar
    16    16    17    1
    17    17    18    1
    18    18    19    1
    19    19    20    1
    20    19    21    1
    21    19    22    1
    22    16    23   ar
    23    23    24   ar
    24    24    25   ar
    25    25    26   ar
    26    26    27   ar
    27    27    28   ar
    28    28    29   ar
    29    29    30   ar
    30    13    31   ar
    31    31    32    2
    32    10     3    1
    33    30    12    1
    34    31     9   ar
    35    30    15   ar
    36    28    23   ar
    37     1    33    1
    38     1    34    1
    39     1    35    1
    40     2    36    1
    41     2    37    1
    42     4    38    1
    43     8    39    1
    44     8    40    1
    45    11    41    1
    46    14    42    1
    47    14    43    1
    48    17    44    1
    49    17    45    1
    50    18    46    1
    51    18    47    1
    52    20    48    1
    53    20    49    1
    54    20    50    1
    55    21    51    1
    56    21    52    1
    57    21    53    1
    58    22    54    1
    59    22    55    1
    60    22    56    1
    61    24    57    1
    62    25    58    1
    63    26    59    1
    64    27    60    1
