@<TRIPOS>MOLECULE
*****
 45 46 0 0 0
SMALL
GASTEIGER

@<TRIPOS>ATOM
      1 C           6.8206   -1.8509   -1.1829 C.3     1  UNL1        0.0332
      2 C           5.7739   -0.8526   -0.9641 C.2     1  UNL1        0.3043
      3 O           5.9222    0.1170   -0.2161 O.2     1  UNL1       -0.2512
      4 O           4.5441   -1.0006   -1.6332 O.3     1  UNL1       -0.4603
      5 C           3.4888   -0.1624   -1.5306 C.3     1  UNL1        0.1171
      6 C           2.5203   -0.0401   -0.5012 C.2     1  UNL1        0.0115
      7 C           2.3311   -0.7010    0.6106 C.2     1  UNL1        0.0651
      8 C           3.1276   -1.7900    1.0675 C.2     1  UNL1        0.0861
      9 O           4.0547   -2.3241    0.4765 O.co2   1  UNL1       -0.5433
     10 O           2.8569   -2.3499    2.3477 O.co2   1  UNL1       -0.5433
     11 N           1.1726   -0.3509    1.4334 N.am    1  UNL1       -0.2389
     12 C           0.6643    0.0005    2.6739 C.2     1  UNL1        0.2523
     13 O           1.1238    0.1288    3.8735 O.2     1  UNL1       -0.2698
     14 C          -0.6625    0.1898    2.1312 C.2     1  UNL1        0.0636
     15 C          -1.8352    0.6187    2.5997 C.2     1  UNL1        0.0340
     16 C          -3.0357    0.6994    1.8096 C.2     1  UNL1        0.3330
     17 O          -4.1327    1.1281    2.2623 O.2     1  UNL1       -0.2456
     18 O          -3.0581    0.3011    0.4871 O.3     1  UNL1       -0.4558
     19 C          -4.2123    0.3695   -0.2885 C.3     1  UNL1        0.1055
     20 C          -4.7638    1.7668   -0.4230 C.3     1  UNL1       -0.0254
     21 C          -5.2540   -0.5296    0.3429 C.3     1  UNL1       -0.0254
     22 C          -3.8985   -0.1461   -1.6768 C.3     1  UNL1       -0.0254
     23 C          -0.1608   -0.2656    0.8658 C.3     1  UNL1        0.1792
     24 S          -0.0991    0.8644   -0.5014 S.O2    1  UNL1       -0.0034
     25 O          -0.6719    0.2345   -1.7327 O.2     1  UNL1       -0.1719
     26 O          -0.8414    2.1475   -0.2343 O.2     1  UNL1       -0.1719
     27 C           1.6033    1.1576   -0.6890 C.3     1  UNL1        0.0944
     28 H           6.4545   -2.7947   -1.6223 H       1  UNL1        0.0342
     29 H           7.3004   -2.1404   -0.2081 H       1  UNL1        0.0342
     30 H           7.6350   -1.4226   -1.8062 H       1  UNL1        0.0342
     31 H           2.8615   -0.3719   -2.5057 H       1  UNL1        0.0747
     32 H           3.8688    0.9289   -1.8224 H       1  UNL1        0.0747
     33 H          -1.8665    0.9191    3.6353 H       1  UNL1        0.0694
     34 H          -4.4488    2.4527    0.3628 H       1  UNL1        0.0268
     35 H          -5.8703    1.6949   -0.3819 H       1  UNL1        0.0268
     36 H          -4.5430    2.1754   -1.4526 H       1  UNL1        0.0268
     37 H          -5.9165   -0.8913   -0.4649 H       1  UNL1        0.0268
     38 H          -5.8908    0.0218    1.0656 H       1  UNL1        0.0268
     39 H          -4.7329   -1.3841    0.7815 H       1  UNL1        0.0268
     40 H          -3.3483    0.6542   -2.2063 H       1  UNL1        0.0268
     41 H          -4.8302   -0.4385   -2.2112 H       1  UNL1        0.0268
     42 H          -3.1995   -1.0052   -1.5527 H       1  UNL1        0.0268
     43 H          -0.6435   -1.2081    0.5546 H       1  UNL1        0.0802
     44 H           1.8555    1.6144   -1.6561 H       1  UNL1        0.0549
     45 H           1.9361    1.9161    0.0830 H       1  UNL1        0.0549
@<TRIPOS>UNITY_ATOM_ATTR
10 1
charge -1
@<TRIPOS>BOND
     1     1     2    1
     2     2     3    2
     3     2     4    1
     4     4     5    1
     5     5     6    1
     6     6     7    2
     7     7     8    1
     8     8     9   ar
     9     8    10   ar
    10     7    11    1
    11    11    12   am
    12    12    13    2
    13    12    14    1
    14    14    15    2
    15    15    16    1
    16    16    17    2
    17    16    18    1
    18    18    19    1
    19    19    20    1
    20    19    21    1
    21    19    22    1
    22    14    23    1
    23    23    24    1
    24    24    25    2
    25    24    26    2
    26    24    27    1
    27    27     6    1
    28    23    11    1
    29     1    28    1
    30     1    29    1
    31     1    30    1
    32     5    31    1
    33     5    32    1
    34    15    33    1
    35    20    34    1
    36    20    35    1
    37    20    36    1
    38    21    37    1
    39    21    38    1
    40    21    39    1
    41    22    40    1
    42    22    41    1
    43    22    42    1
    44    23    43    1
    45    27    44    1
    46    27    45    1
