
     RDKit          3D

 45 46  0  0  0  0  0  0  0  0999 V2000
    6.8206   -1.8509   -1.1829 C   0  0  0  0  0  0  0  0  0  0  0  0
    5.7739   -0.8526   -0.9641 C   0  0  0  0  0  0  0  0  0  0  0  0
    5.9222    0.1170   -0.2161 O   0  0  0  0  0  0  0  0  0  0  0  0
    4.5441   -1.0006   -1.6332 O   0  0  0  0  0  0  0  0  0  0  0  0
    3.4888   -0.1624   -1.5306 C   0  0  0  0  0  0  0  0  0  0  0  0
    2.5203   -0.0401   -0.5012 C   0  0  0  0  0  0  0  0  0  0  0  0
    2.3311   -0.7010    0.6106 C   0  0  0  0  0  0  0  0  0  0  0  0
    3.1276   -1.7900    1.0675 C   0  0  0  0  0  0  0  0  0  0  0  0
    4.0547   -2.3241    0.4765 O   0  0  0  0  0  0  0  0  0  0  0  0
    2.8569   -2.3499    2.3477 O   0  0  0  0  0  1  0  0  0  0  0  0
    1.1726   -0.3509    1.4334 N   0  0  0  0  0  0  0  0  0  0  0  0
    0.6643    0.0005    2.6739 C   0  0  0  0  0  0  0  0  0  0  0  0
    1.1238    0.1288    3.8735 O   0  0  0  0  0  0  0  0  0  0  0  0
   -0.6625    0.1898    2.1312 C   0  0  0  0  0  0  0  0  0  0  0  0
   -1.8352    0.6187    2.5997 C   0  0  0  0  0  0  0  0  0  0  0  0
   -3.0357    0.6994    1.8096 C   0  0  0  0  0  0  0  0  0  0  0  0
   -4.1327    1.1281    2.2623 O   0  0  0  0  0  0  0  0  0  0  0  0
   -3.0581    0.3011    0.4871 O   0  0  0  0  0  0  0  0  0  0  0  0
   -4.2123    0.3695   -0.2885 C   0  0  0  0  0  0  0  0  0  0  0  0
   -4.7638    1.7668   -0.4230 C   0  0  0  0  0  0  0  0  0  0  0  0
   -5.2540   -0.5296    0.3429 C   0  0  0  0  0  0  0  0  0  0  0  0
   -3.8985   -0.1461   -1.6768 C   0  0  0  0  0  0  0  0  0  0  0  0
   -0.1608   -0.2656    0.8658 C   0  0  1  0  0  0  0  0  0  0  0  0
   -0.0991    0.8644   -0.5014 S   0  0  0  0  0  6  0  0  0  0  0  0
   -0.6719    0.2345   -1.7327 O   0  0  0  0  0  0  0  0  0  0  0  0
   -0.8414    2.1475   -0.2343 O   0  0  0  0  0  0  0  0  0  0  0  0
    1.6033    1.1576   -0.6890 C   0  0  0  0  0  0  0  0  0  0  0  0
    6.4545   -2.7947   -1.6223 H   0  0  0  0  0  0  0  0  0  0  0  0
    7.3004   -2.1404   -0.2081 H   0  0  0  0  0  0  0  0  0  0  0  0
    7.6350   -1.4226   -1.8062 H   0  0  0  0  0  0  0  0  0  0  0  0
    2.8615   -0.3719   -2.5057 H   0  0  0  0  0  0  0  0  0  0  0  0
    3.8688    0.9289   -1.8224 H   0  0  0  0  0  0  0  0  0  0  0  0
   -1.8665    0.9191    3.6353 H   0  0  0  0  0  0  0  0  0  0  0  0
   -4.4488    2.4527    0.3628 H   0  0  0  0  0  0  0  0  0  0  0  0
   -5.8703    1.6949   -0.3819 H   0  0  0  0  0  0  0  0  0  0  0  0
   -4.5430    2.1754   -1.4526 H   0  0  0  0  0  0  0  0  0  0  0  0
   -5.9165   -0.8913   -0.4649 H   0  0  0  0  0  0  0  0  0  0  0  0
   -5.8908    0.0218    1.0656 H   0  0  0  0  0  0  0  0  0  0  0  0
   -4.7329   -1.3841    0.7815 H   0  0  0  0  0  0  0  0  0  0  0  0
   -3.3483    0.6542   -2.2063 H   0  0  0  0  0  0  0  0  0  0  0  0
   -4.8302   -0.4385   -2.2112 H   0  0  0  0  0  0  0  0  0  0  0  0
   -3.1995   -1.0052   -1.5527 H   0  0  0  0  0  0  0  0  0  0  0  0
   -0.6435   -1.2081    0.5546 H   0  0  0  0  0  0  0  0  0  0  0  0
    1.8555    1.6144   -1.6561 H   0  0  0  0  0  0  0  0  0  0  0  0
    1.9361    1.9161    0.0830 H   0  0  0  0  0  0  0  0  0  0  0  0
  1  2  1  0
  2  3  2  0
  2  4  1  0
  4  5  1  0
  5  6  1  0
  6  7  2  0
  7  8  1  0
  8  9  2  0
  8 10  1  0
  7 11  1  0
 11 12  1  0
 12 13  2  0
 12 14  1  0
 14 15  2  0
 15 16  1  0
 16 17  2  0
 16 18  1  0
 18 19  1  0
 19 20  1  0
 19 21  1  0
 19 22  1  0
 14 23  1  0
 23 24  1  0
 24 25  2  0
 24 26  2  0
 24 27  1  0
 27  6  1  0
 23 11  1  0
  1 28  1  0
  1 29  1  0
  1 30  1  0
  5 31  1  0
  5 32  1  0
 15 33  1  0
 20 34  1  0
 20 35  1  0
 20 36  1  0
 21 37  1  0
 21 38  1  0
 21 39  1  0
 22 40  1  0
 22 41  1  0
 22 42  1  0
 23 43  1  6
 27 44  1  0
 27 45  1  0
M  CHG  1  10  -1
M  END
$$$$
