
     RDKit          3D

 48 49  0  0  0  0  0  0  0  0999 V2000
    6.9000   -0.8451    1.1207 C   0  0  0  0  0  0  0  0  0  0  0  0
    5.7425    0.1034    0.7620 C   0  0  0  0  0  0  0  0  0  0  0  0
    5.5227   -0.0660   -0.7426 C   0  0  0  0  0  0  0  0  0  0  0  0
    4.4254    0.8239   -1.1932 C   0  0  0  0  0  0  0  0  0  0  0  0
    3.1099    0.5046   -0.4618 C   0  0  0  0  0  0  0  0  0  0  0  0
    2.6723   -0.8985   -0.6967 C   0  0  0  0  0  0  0  0  0  0  0  0
    1.4638   -1.3848   -0.0246 C   0  0  0  0  0  0  0  0  0  0  0  0
    0.1282   -0.8101   -0.2151 C   0  0  0  0  0  0  0  0  0  0  0  0
   -0.1811    0.5731    0.1803 C   0  0  0  0  0  0  0  0  0  0  0  0
   -1.6544    0.8717   -0.1540 C   0  0  0  0  0  0  0  0  0  0  0  0
   -2.5932   -0.0333    0.5742 C   0  0  0  0  0  0  0  0  0  0  0  0
   -4.0378    0.3142    0.2419 C   0  0  0  0  0  0  0  0  0  0  0  0
   -4.3514    1.2808   -0.5865 C   0  0  0  0  0  0  0  0  0  0  0  0
   -3.6201    2.1842   -1.3344 O   0  0  0  0  0  0  0  0  0  0  0  0
   -5.7792    1.4630   -0.7777 C   0  0  0  0  0  0  0  0  0  0  0  0
   -6.3146    2.3276   -1.5253 O   0  0  0  0  0  0  0  0  0  0  0  0
   -6.7715    0.6536   -0.1163 C   0  0  0  0  0  0  0  0  0  0  0  0
   -6.4237   -0.3768    0.7671 C   0  0  0  0  0  0  0  0  0  0  0  0
   -7.4350   -1.0486    1.3115 N   0  0  0  0  0  0  0  0  0  0  0  0
   -8.5775   -0.8650    1.1265 C   0  0  0  0  0  0  0  0  0  0  0  0
   -8.5328    0.5846   -0.1027 S   0  0  0  0  0  0  0  0  0  0  0  0
   -4.9653   -0.5313    0.9356 C   0  0  0  0  0  0  0  0  0  0  0  0
   -4.5514   -1.4497    1.7257 O   0  0  0  0  0  0  0  0  0  0  0  0
    6.5608   -1.8650    0.7966 H   0  0  0  0  0  0  0  0  0  0  0  0
    7.7265   -0.5859    0.4463 H   0  0  0  0  0  0  0  0  0  0  0  0
    7.1191   -0.7809    2.1870 H   0  0  0  0  0  0  0  0  0  0  0  0
    5.9938    1.1385    1.0286 H   0  0  0  0  0  0  0  0  0  0  0  0
    4.8537   -0.2048    1.3271 H   0  0  0  0  0  0  0  0  0  0  0  0
    5.3636   -1.1283   -0.9454 H   0  0  0  0  0  0  0  0  0  0  0  0
    6.4603    0.2892   -1.2773 H   0  0  0  0  0  0  0  0  0  0  0  0
    4.6541    1.8717   -0.9162 H   0  0  0  0  0  0  0  0  0  0  0  0
    4.2773    0.7080   -2.2896 H   0  0  0  0  0  0  0  0  0  0  0  0
    3.2694    0.7639    0.5938 H   0  0  0  0  0  0  0  0  0  0  0  0
    2.4148    1.2549   -0.9391 H   0  0  0  0  0  0  0  0  0  0  0  0
    3.5390   -1.5394   -0.2990 H   0  0  0  0  0  0  0  0  0  0  0  0
    2.7041   -1.1620   -1.7940 H   0  0  0  0  0  0  0  0  0  0  0  0
    1.7012   -1.4444    1.1075 H   0  0  0  0  0  0  0  0  0  0  0  0
    1.3348   -2.5141   -0.2329 H   0  0  0  0  0  0  0  0  0  0  0  0
   -0.5700   -1.4855    0.4013 H   0  0  0  0  0  0  0  0  0  0  0  0
   -0.2399   -1.0451   -1.2699 H   0  0  0  0  0  0  0  0  0  0  0  0
   -0.1377    0.7099    1.3116 H   0  0  0  0  0  0  0  0  0  0  0  0
    0.3916    1.3913   -0.2365 H   0  0  0  0  0  0  0  0  0  0  0  0
   -1.7771    0.7907   -1.2395 H   0  0  0  0  0  0  0  0  0  0  0  0
   -1.8916    1.9255    0.1674 H   0  0  0  0  0  0  0  0  0  0  0  0
   -2.4483   -1.1063    0.2872 H   0  0  0  0  0  0  0  0  0  0  0  0
   -2.4240    0.0247    1.6677 H   0  0  0  0  0  0  0  0  0  0  0  0
   -3.6979    2.1293   -2.3525 H   0  0  0  0  0  0  0  0  0  0  0  0
   -9.3535   -1.5115    1.6553 H   0  0  0  0  0  0  0  0  0  0  0  0
  1  2  1  0
  2  3  1  0
  3  4  1  0
  4  5  1  0
  5  6  1  0
  6  7  1  0
  7  8  1  0
  8  9  1  0
  9 10  1  0
 10 11  1  0
 11 12  1  0
 12 13  2  0
 13 14  1  0
 13 15  1  0
 15 16  2  0
 15 17  1  0
 17 18  2  0
 18 19  1  0
 19 20  2  0
 20 21  1  0
 18 22  1  0
 22 23  2  0
 22 12  1  0
 21 17  1  0
  1 24  1  0
  1 25  1  0
  1 26  1  0
  2 27  1  0
  2 28  1  0
  3 29  1  0
  3 30  1  0
  4 31  1  0
  4 32  1  0
  5 33  1  0
  5 34  1  0
  6 35  1  0
  6 36  1  0
  7 37  1  0
  7 38  1  0
  8 39  1  0
  8 40  1  0
  9 41  1  0
  9 42  1  0
 10 43  1  0
 10 44  1  0
 11 45  1  0
 11 46  1  0
 14 47  1  0
 20 48  1  0
M  END
$$$$
