@<TRIPOS>MOLECULE
*****
 48 49 0 0 0
SMALL
GASTEIGER

@<TRIPOS>ATOM
      1 C           6.9000   -0.8451    1.1207 C.3     1  UNL1       -0.0653
      2 C           5.7425    0.1034    0.7620 C.3     1  UNL1       -0.0559
      3 C           5.5227   -0.0660   -0.7426 C.3     1  UNL1       -0.0533
      4 C           4.4254    0.8239   -1.1932 C.3     1  UNL1       -0.0531
      5 C           3.1099    0.5046   -0.4618 C.3     1  UNL1       -0.0531
      6 C           2.6723   -0.8985   -0.6967 C.3     1  UNL1       -0.0531
      7 C           1.4638   -1.3848   -0.0246 C.3     1  UNL1       -0.0531
      8 C           0.1282   -0.8101   -0.2151 C.3     1  UNL1       -0.0530
      9 C          -0.1811    0.5731    0.1803 C.3     1  UNL1       -0.0528
     10 C          -1.6544    0.8717   -0.1540 C.3     1  UNL1       -0.0488
     11 C          -2.5932   -0.0333    0.5742 C.3     1  UNL1       -0.0204
     12 C          -4.0378    0.3142    0.2419 C.2     1  UNL1        0.0466
     13 C          -4.3514    1.2808   -0.5865 C.2     1  UNL1        0.1717
     14 O          -3.6201    2.1842   -1.3344 O.2     1  UNL1       -0.5029
     15 C          -5.7792    1.4630   -0.7777 C.2     1  UNL1        0.2362
     16 O          -6.3146    2.3276   -1.5253 O.2     1  UNL1       -0.2827
     17 C          -6.7715    0.6536   -0.1163 C.ar    1  UNL1        0.0930
     18 C          -6.4237   -0.3768    0.7671 C.ar    1  UNL1        0.1288
     19 N          -7.4350   -1.0486    1.3115 N.ar    1  UNL1       -0.2434
     20 C          -8.5775   -0.8650    1.1265 C.ar    1  UNL1        0.0662
     21 S          -8.5328    0.5846   -0.1027 S.2     1  UNL1       -0.0714
     22 C          -4.9653   -0.5313    0.9356 C.2     1  UNL1        0.2121
     23 O          -4.5514   -1.4497    1.7257 O.2     1  UNL1       -0.2852
     24 H           6.5608   -1.8650    0.7966 H       1  UNL1        0.0230
     25 H           7.7265   -0.5859    0.4463 H       1  UNL1        0.0230
     26 H           7.1191   -0.7809    2.1870 H       1  UNL1        0.0230
     27 H           5.9938    1.1385    1.0286 H       1  UNL1        0.0263
     28 H           4.8537   -0.2048    1.3271 H       1  UNL1        0.0263
     29 H           5.3636   -1.1283   -0.9454 H       1  UNL1        0.0265
     30 H           6.4603    0.2892   -1.2773 H       1  UNL1        0.0265
     31 H           4.6541    1.8717   -0.9162 H       1  UNL1        0.0265
     32 H           4.2773    0.7080   -2.2896 H       1  UNL1        0.0265
     33 H           3.2694    0.7639    0.5938 H       1  UNL1        0.0265
     34 H           2.4148    1.2549   -0.9391 H       1  UNL1        0.0265
     35 H           3.5390   -1.5394   -0.2990 H       1  UNL1        0.0265
     36 H           2.7041   -1.1620   -1.7940 H       1  UNL1        0.0265
     37 H           1.7012   -1.4444    1.1075 H       1  UNL1        0.0265
     38 H           1.3348   -2.5141   -0.2329 H       1  UNL1        0.0265
     39 H          -0.5700   -1.4855    0.4013 H       1  UNL1        0.0265
     40 H          -0.2399   -1.0451   -1.2699 H       1  UNL1        0.0265
     41 H          -0.1377    0.7099    1.3116 H       1  UNL1        0.0265
     42 H           0.3916    1.3913   -0.2365 H       1  UNL1        0.0265
     43 H          -1.7771    0.7907   -1.2395 H       1  UNL1        0.0268
     44 H          -1.8916    1.9255    0.1674 H       1  UNL1        0.0268
     45 H          -2.4483   -1.1063    0.2872 H       1  UNL1        0.0316
     46 H          -2.4240    0.0247    1.6677 H       1  UNL1        0.0316
     47 H          -3.6979    2.1293   -2.3525 H       1  UNL1        0.2923
     48 H          -9.3535   -1.5115    1.6553 H       1  UNL1        0.0908
@<TRIPOS>BOND
     1     1     2    1
     2     2     3    1
     3     3     4    1
     4     4     5    1
     5     5     6    1
     6     6     7    1
     7     7     8    1
     8     8     9    1
     9     9    10    1
    10    10    11    1
    11    11    12    1
    12    12    13    2
    13    13    14    1
    14    13    15    1
    15    15    16    2
    16    15    17    1
    17    17    18   ar
    18    18    19   ar
    19    19    20   ar
    20    20    21   ar
    21    18    22    1
    22    22    23    2
    23    22    12    1
    24    21    17   ar
    25     1    24    1
    26     1    25    1
    27     1    26    1
    28     2    27    1
    29     2    28    1
    30     3    29    1
    31     3    30    1
    32     4    31    1
    33     4    32    1
    34     5    33    1
    35     5    34    1
    36     6    35    1
    37     6    36    1
    38     7    37    1
    39     7    38    1
    40     8    39    1
    41     8    40    1
    42     9    41    1
    43     9    42    1
    44    10    43    1
    45    10    44    1
    46    11    45    1
    47    11    46    1
    48    14    47    1
    49    20    48    1
