
     RDKit          3D

 28 29  0  0  0  0  0  0  0  0999 V2000
   -2.7782   -0.4066    0.8523 C   0  0  2  0  0  0  0  0  0  0  0  0
   -1.7617    0.5681    1.0391 N   0  0  0  0  0  0  0  0  0  0  0  0
   -0.4014    0.4700    0.6355 C   0  0  0  0  0  0  0  0  0  0  0  0
    0.5942    1.0617    1.4191 C   0  0  0  0  0  0  0  0  0  0  0  0
    1.9093    0.9201    0.9623 C   0  0  0  0  0  0  0  0  0  0  0  0
    3.2117    1.6478    1.9127 Cl  0  0  0  0  0  0  0  0  0  0  0  0
    2.1667    0.2271   -0.2024 C   0  0  0  0  0  0  0  0  0  0  0  0
    1.1492   -0.3469   -0.9540 C   0  0  0  0  0  0  0  0  0  0  0  0
   -0.1297   -0.2204   -0.5280 C   0  0  0  0  0  0  0  0  0  0  0  0
   -1.4875   -0.8978   -1.3984 S   0  0  0  0  0  0  0  0  0  0  0  0
   -2.0153    0.2244   -2.2632 O   0  0  0  0  0  0  0  0  0  0  0  0
   -1.0845   -2.0776   -2.2243 O   0  0  0  0  0  0  0  0  0  0  0  0
   -2.6631   -1.3026   -0.2394 N   0  0  0  0  0  0  0  0  0  0  0  0
    3.8197    0.0697   -0.7433 S   0  0  0  0  0  0  0  0  0  0  0  0
    4.7642   -0.7361    0.4251 N   0  0  0  0  0  0  0  0  0  0  0  0
    3.8672   -0.6860   -2.0453 O   0  0  0  0  0  0  0  0  0  0  0  0
    4.3463    1.4501   -1.0627 O   0  0  0  0  0  0  0  0  0  0  0  0
   -4.1331    0.3064    0.7044 C   0  0  0  0  0  0  0  0  0  0  0  0
   -4.0795    1.3956   -0.6999 Cl  0  0  0  0  0  0  0  0  0  0  0  0
   -4.5186    1.2761    2.1402 Cl  0  0  0  0  0  0  0  0  0  0  0  0
   -2.8441   -1.0318    1.7950 H   0  0  0  0  0  0  0  0  0  0  0  0
   -2.0471    1.4673    1.5365 H   0  0  0  0  0  0  0  0  0  0  0  0
    0.3379    1.6048    2.3394 H   0  0  0  0  0  0  0  0  0  0  0  0
    1.3666   -0.8854   -1.8621 H   0  0  0  0  0  0  0  0  0  0  0  0
   -2.5462   -2.3055    0.0227 H   0  0  0  0  0  0  0  0  0  0  0  0
    5.6667   -0.2737    0.6585 H   0  0  0  0  0  0  0  0  0  0  0  0
    4.2282   -1.0788    1.2470 H   0  0  0  0  0  0  0  0  0  0  0  0
   -4.9379   -0.4400    0.5106 H   0  0  0  0  0  0  0  0  0  0  0  0
  1  2  1  0
  2  3  1  0
  3  4  2  0
  4  5  1  0
  5  6  1  0
  5  7  2  0
  7  8  1  0
  8  9  2  0
  9 10  1  0
 10 11  2  0
 10 12  2  0
 10 13  1  0
  7 14  1  0
 14 15  1  0
 14 16  2  0
 14 17  2  0
  1 18  1  0
 18 19  1  0
 18 20  1  0
 13  1  1  0
  9  3  1  0
  1 21  1  1
  2 22  1  0
  4 23  1  0
  8 24  1  0
 13 25  1  0
 15 26  1  0
 15 27  1  0
 18 28  1  0
M  END
$$$$
