@<TRIPOS>MOLECULE
*****
 28 29 0 0 0
SMALL
GASTEIGER

@<TRIPOS>ATOM
      1 C          -2.7782   -0.4066    0.8523 C.3     1  UNL1        0.1215
      2 N          -1.7617    0.5681    1.0391 N.pl3   1  UNL1       -0.3238
      3 C          -0.4014    0.4700    0.6355 C.ar    1  UNL1        0.0565
      4 C           0.5942    1.0617    1.4191 C.ar    1  UNL1       -0.0186
      5 C           1.9093    0.9201    0.9623 C.ar    1  UNL1        0.0691
      6 CL          3.2117    1.6478    1.9127 Cl      1  UNL1       -0.0815
      7 C           2.1667    0.2271   -0.2024 C.ar    1  UNL1        0.1252
      8 C           1.1492   -0.3469   -0.9540 C.ar    1  UNL1       -0.0057
      9 C          -0.1297   -0.2204   -0.5280 C.ar    1  UNL1        0.1280
     10 S          -1.4875   -0.8978   -1.3984 S.O2    1  UNL1        0.0619
     11 O          -2.0153    0.2244   -2.2632 O.2     1  UNL1       -0.1529
     12 O          -1.0845   -2.0776   -2.2243 O.2     1  UNL1       -0.1529
     13 N          -2.6631   -1.3026   -0.2394 N.3     1  UNL1       -0.1673
     14 S           3.8197    0.0697   -0.7433 S.O2    1  UNL1        0.0574
     15 N           4.7642   -0.7361    0.4251 N.3     1  UNL1       -0.2035
     16 O           3.8672   -0.6860   -2.0453 O.2     1  UNL1       -0.1532
     17 O           4.3463    1.4501   -1.0627 O.2     1  UNL1       -0.1532
     18 C          -4.1331    0.3064    0.7044 C.3     1  UNL1        0.1405
     19 CL         -4.0795    1.3956   -0.6999 Cl      1  UNL1       -0.1012
     20 CL         -4.5186    1.2761    2.1402 Cl      1  UNL1       -0.1012
     21 H          -2.8441   -1.0318    1.7950 H       1  UNL1        0.0709
     22 H          -2.0471    1.4673    1.5365 H       1  UNL1        0.1477
     23 H           0.3379    1.6048    2.3394 H       1  UNL1        0.0652
     24 H           1.3666   -0.8854   -1.8621 H       1  UNL1        0.0658
     25 H          -2.5462   -2.3055    0.0227 H       1  UNL1        0.1502
     26 H           5.6667   -0.2737    0.6585 H       1  UNL1        0.1442
     27 H           4.2282   -1.0788    1.2470 H       1  UNL1        0.1442
     28 H          -4.9379   -0.4400    0.5106 H       1  UNL1        0.0667
@<TRIPOS>BOND
     1     1     2    1
     2     2     3    1
     3     3     4   ar
     4     4     5   ar
     5     5     6    1
     6     5     7   ar
     7     7     8   ar
     8     8     9   ar
     9     9    10    1
    10    10    11    2
    11    10    12    2
    12    10    13    1
    13     7    14    1
    14    14    15    1
    15    14    16    2
    16    14    17    2
    17     1    18    1
    18    18    19    1
    19    18    20    1
    20    13     1    1
    21     9     3   ar
    22     1    21    1
    23     2    22    1
    24     4    23    1
    25     8    24    1
    26    13    25    1
    27    15    26    1
    28    15    27    1
    29    18    28    1
