@<TRIPOS>MOLECULE
*****
 54 56 0 0 0
SMALL
GASTEIGER

@<TRIPOS>ATOM
      1 C           1.3693    3.2748   -1.2394 C.3     1  UNL1       -0.0364
      2 C           2.3591    2.2424   -0.8258 C.ar    1  UNL1       -0.0061
      3 C           3.7031    2.5947   -1.0286 C.ar    1  UNL1        0.1276
      4 F           4.0197    3.7691   -1.6245 F       1  UNL1       -0.2052
      5 C           4.7003    1.7561   -0.6269 C.ar    1  UNL1       -0.0140
      6 C           4.3908    0.5594   -0.0200 C.ar    1  UNL1        0.0400
      7 C           5.4468   -0.3729    0.4293 C.2     1  UNL1        0.2444
      8 O           5.0718   -1.4437    0.9741 O.2     1  UNL1       -0.2702
      9 N           6.8290   -0.1387    0.2865 N.am    1  UNL1       -0.3085
     10 C           7.8266   -1.1091    0.7560 C.3     1  UNL1        0.0235
     11 C           8.9511   -1.3406   -0.2355 C.3     1  UNL1       -0.0328
     12 C           9.1907   -0.6829    1.0731 C.3     1  UNL1       -0.0328
     13 C           3.0668    0.2436    0.1627 C.ar    1  UNL1       -0.0400
     14 C           2.0026    1.0735   -0.2349 C.ar    1  UNL1        0.0067
     15 C           0.6517    0.6263    0.0667 C.ar    1  UNL1        0.0714
     16 C          -0.4426    0.9777   -0.6590 C.ar    1  UNL1       -0.0350
     17 C          -1.7080    0.4487   -0.3373 C.ar    1  UNL1       -0.0461
     18 C          -1.8677   -0.4253    0.7025 C.ar    1  UNL1        0.0548
     19 C          -3.1382   -1.0140    1.0967 C.2     1  UNL1        0.2456
     20 O          -3.2133   -1.8228    2.0777 O.2     1  UNL1       -0.2701
     21 N          -4.3651   -0.7422    0.4378 N.am    1  UNL1       -0.3108
     22 C          -5.6166   -1.3655    0.8798 C.3     1  UNL1        0.0168
     23 C          -6.7716   -0.9155    0.0193 C.3     1  UNL1       -0.0222
     24 C          -6.5327   -1.2975   -1.4196 C.3     1  UNL1       -0.0586
     25 C          -8.0030   -1.6557    0.5033 C.3     1  UNL1       -0.0586
     26 C          -7.0243    0.5603    0.1314 C.3     1  UNL1       -0.0586
     27 C          -0.7274   -0.7511    1.4057 C.ar    1  UNL1        0.0404
     28 N           0.4667   -0.2483    1.0989 N.ar    1  UNL1       -0.2542
     29 H           1.0352    3.1777   -2.2653 H       1  UNL1        0.0279
     30 H           0.5656    3.3455   -0.5104 H       1  UNL1        0.0279
     31 H           1.8779    4.3022   -1.1770 H       1  UNL1        0.0279
     32 H           5.7551    1.9944   -0.7670 H       1  UNL1        0.0654
     33 H           7.1484    0.7436   -0.1626 H       1  UNL1        0.1493
     34 H           7.4380   -2.0345    1.2281 H       1  UNL1        0.0498
     35 H           9.3130   -2.3542   -0.4283 H       1  UNL1        0.0284
     36 H           9.0131   -0.6778   -1.1329 H       1  UNL1        0.0284
     37 H           9.4719    0.4015    1.0808 H       1  UNL1        0.0284
     38 H           9.7501   -1.2565    1.8408 H       1  UNL1        0.0284
     39 H           2.8007   -0.6886    0.6358 H       1  UNL1        0.0632
     40 H          -0.4220    1.6360   -1.5319 H       1  UNL1        0.0639
     41 H          -2.5660    0.7323   -0.9142 H       1  UNL1        0.0626
     42 H          -4.3475   -0.0851   -0.3707 H       1  UNL1        0.1490
     43 H          -5.4971   -2.4590    0.7485 H       1  UNL1        0.0467
     44 H          -5.7670   -1.0839    1.9419 H       1  UNL1        0.0467
     45 H          -7.4280   -1.7136   -1.9151 H       1  UNL1        0.0235
     46 H          -5.7673   -2.1210   -1.4410 H       1  UNL1        0.0235
     47 H          -6.0994   -0.4665   -2.0150 H       1  UNL1        0.0235
     48 H          -8.4627   -1.0398    1.3282 H       1  UNL1        0.0235
     49 H          -7.6865   -2.6166    0.9594 H       1  UNL1        0.0235
     50 H          -8.7284   -1.8335   -0.3062 H       1  UNL1        0.0235
     51 H          -8.0510    0.7697   -0.1745 H       1  UNL1        0.0235
     52 H          -6.3524    1.1445   -0.5161 H       1  UNL1        0.0235
     53 H          -6.8634    0.8272    1.2145 H       1  UNL1        0.0235
     54 H          -0.7661   -1.4450    2.2532 H       1  UNL1        0.0837
@<TRIPOS>BOND
     1     1     2    1
     2     2     3   ar
     3     3     4    1
     4     3     5   ar
     5     5     6   ar
     6     6     7    1
     7     7     8    2
     8     7     9   am
     9     9    10    1
    10    10    11    1
    11    11    12    1
    12     6    13   ar
    13    13    14   ar
    14    14    15    1
    15    15    16   ar
    16    16    17   ar
    17    17    18   ar
    18    18    19    1
    19    19    20    2
    20    19    21   am
    21    21    22    1
    22    22    23    1
    23    23    24    1
    24    23    25    1
    25    23    26    1
    26    18    27   ar
    27    27    28   ar
    28    14     2   ar
    29    28    15   ar
    30    12    10    1
    31     1    29    1
    32     1    30    1
    33     1    31    1
    34     5    32    1
    35     9    33    1
    36    10    34    1
    37    11    35    1
    38    11    36    1
    39    12    37    1
    40    12    38    1
    41    13    39    1
    42    16    40    1
    43    17    41    1
    44    21    42    1
    45    22    43    1
    46    22    44    1
    47    24    45    1
    48    24    46    1
    49    24    47    1
    50    25    48    1
    51    25    49    1
    52    25    50    1
    53    26    51    1
    54    26    52    1
    55    26    53    1
    56    27    54    1
