
     RDKit          3D

 54 56  0  0  0  0  0  0  0  0999 V2000
    1.3693    3.2748   -1.2394 C   0  0  0  0  0  0  0  0  0  0  0  0
    2.3591    2.2424   -0.8258 C   0  0  0  0  0  0  0  0  0  0  0  0
    3.7031    2.5947   -1.0286 C   0  0  0  0  0  0  0  0  0  0  0  0
    4.0197    3.7691   -1.6245 F   0  0  0  0  0  0  0  0  0  0  0  0
    4.7003    1.7561   -0.6269 C   0  0  0  0  0  0  0  0  0  0  0  0
    4.3908    0.5594   -0.0200 C   0  0  0  0  0  0  0  0  0  0  0  0
    5.4468   -0.3729    0.4293 C   0  0  0  0  0  0  0  0  0  0  0  0
    5.0718   -1.4437    0.9741 O   0  0  0  0  0  0  0  0  0  0  0  0
    6.8290   -0.1387    0.2865 N   0  0  0  0  0  0  0  0  0  0  0  0
    7.8266   -1.1091    0.7560 C   0  0  0  0  0  0  0  0  0  0  0  0
    8.9511   -1.3406   -0.2355 C   0  0  0  0  0  0  0  0  0  0  0  0
    9.1907   -0.6829    1.0731 C   0  0  0  0  0  0  0  0  0  0  0  0
    3.0668    0.2436    0.1627 C   0  0  0  0  0  0  0  0  0  0  0  0
    2.0026    1.0735   -0.2349 C   0  0  0  0  0  0  0  0  0  0  0  0
    0.6517    0.6263    0.0667 C   0  0  0  0  0  0  0  0  0  0  0  0
   -0.4426    0.9777   -0.6590 C   0  0  0  0  0  0  0  0  0  0  0  0
   -1.7080    0.4487   -0.3373 C   0  0  0  0  0  0  0  0  0  0  0  0
   -1.8677   -0.4253    0.7025 C   0  0  0  0  0  0  0  0  0  0  0  0
   -3.1382   -1.0140    1.0967 C   0  0  0  0  0  0  0  0  0  0  0  0
   -3.2133   -1.8228    2.0777 O   0  0  0  0  0  0  0  0  0  0  0  0
   -4.3651   -0.7422    0.4378 N   0  0  0  0  0  0  0  0  0  0  0  0
   -5.6166   -1.3655    0.8798 C   0  0  0  0  0  0  0  0  0  0  0  0
   -6.7716   -0.9155    0.0193 C   0  0  0  0  0  0  0  0  0  0  0  0
   -6.5327   -1.2975   -1.4196 C   0  0  0  0  0  0  0  0  0  0  0  0
   -8.0030   -1.6557    0.5033 C   0  0  0  0  0  0  0  0  0  0  0  0
   -7.0243    0.5603    0.1314 C   0  0  0  0  0  0  0  0  0  0  0  0
   -0.7274   -0.7511    1.4057 C   0  0  0  0  0  0  0  0  0  0  0  0
    0.4667   -0.2483    1.0989 N   0  0  0  0  0  0  0  0  0  0  0  0
    1.0352    3.1777   -2.2653 H   0  0  0  0  0  0  0  0  0  0  0  0
    0.5656    3.3455   -0.5104 H   0  0  0  0  0  0  0  0  0  0  0  0
    1.8779    4.3022   -1.1770 H   0  0  0  0  0  0  0  0  0  0  0  0
    5.7551    1.9944   -0.7670 H   0  0  0  0  0  0  0  0  0  0  0  0
    7.1484    0.7436   -0.1626 H   0  0  0  0  0  0  0  0  0  0  0  0
    7.4380   -2.0345    1.2281 H   0  0  0  0  0  0  0  0  0  0  0  0
    9.3130   -2.3542   -0.4283 H   0  0  0  0  0  0  0  0  0  0  0  0
    9.0131   -0.6778   -1.1329 H   0  0  0  0  0  0  0  0  0  0  0  0
    9.4719    0.4015    1.0808 H   0  0  0  0  0  0  0  0  0  0  0  0
    9.7501   -1.2565    1.8408 H   0  0  0  0  0  0  0  0  0  0  0  0
    2.8007   -0.6886    0.6358 H   0  0  0  0  0  0  0  0  0  0  0  0
   -0.4220    1.6360   -1.5319 H   0  0  0  0  0  0  0  0  0  0  0  0
   -2.5660    0.7323   -0.9142 H   0  0  0  0  0  0  0  0  0  0  0  0
   -4.3475   -0.0851   -0.3707 H   0  0  0  0  0  0  0  0  0  0  0  0
   -5.4971   -2.4590    0.7485 H   0  0  0  0  0  0  0  0  0  0  0  0
   -5.7670   -1.0839    1.9419 H   0  0  0  0  0  0  0  0  0  0  0  0
   -7.4280   -1.7136   -1.9151 H   0  0  0  0  0  0  0  0  0  0  0  0
   -5.7673   -2.1210   -1.4410 H   0  0  0  0  0  0  0  0  0  0  0  0
   -6.0994   -0.4665   -2.0150 H   0  0  0  0  0  0  0  0  0  0  0  0
   -8.4627   -1.0398    1.3282 H   0  0  0  0  0  0  0  0  0  0  0  0
   -7.6865   -2.6166    0.9594 H   0  0  0  0  0  0  0  0  0  0  0  0
   -8.7284   -1.8335   -0.3062 H   0  0  0  0  0  0  0  0  0  0  0  0
   -8.0510    0.7697   -0.1745 H   0  0  0  0  0  0  0  0  0  0  0  0
   -6.3524    1.1445   -0.5161 H   0  0  0  0  0  0  0  0  0  0  0  0
   -6.8634    0.8272    1.2145 H   0  0  0  0  0  0  0  0  0  0  0  0
   -0.7661   -1.4450    2.2532 H   0  0  0  0  0  0  0  0  0  0  0  0
  1  2  1  0
  2  3  2  0
  3  4  1  0
  3  5  1  0
  5  6  2  0
  6  7  1  0
  7  8  2  0
  7  9  1  0
  9 10  1  0
 10 11  1  0
 11 12  1  0
  6 13  1  0
 13 14  2  0
 14 15  1  0
 15 16  2  0
 16 17  1  0
 17 18  2  0
 18 19  1  0
 19 20  2  0
 19 21  1  0
 21 22  1  0
 22 23  1  0
 23 24  1  0
 23 25  1  0
 23 26  1  0
 18 27  1  0
 27 28  2  0
 14  2  1  0
 28 15  1  0
 12 10  1  0
  1 29  1  0
  1 30  1  0
  1 31  1  0
  5 32  1  0
  9 33  1  0
 10 34  1  0
 11 35  1  0
 11 36  1  0
 12 37  1  0
 12 38  1  0
 13 39  1  0
 16 40  1  0
 17 41  1  0
 21 42  1  0
 22 43  1  0
 22 44  1  0
 24 45  1  0
 24 46  1  0
 24 47  1  0
 25 48  1  0
 25 49  1  0
 25 50  1  0
 26 51  1  0
 26 52  1  0
 26 53  1  0
 27 54  1  0
M  END
$$$$
