@<TRIPOS>MOLECULE
*****
 59 61 0 0 0
SMALL
GASTEIGER

@<TRIPOS>ATOM
      1 C          -6.3805    1.7602   -1.3649 C.3     1  UNL1       -0.0626
      2 C          -5.4665    1.6276   -0.1202 C.3     1  UNL1       -0.0457
      3 C          -6.3368    1.0657    0.9502 C.3     1  UNL1       -0.0626
      4 C          -4.3287    0.7812   -0.5570 C.3     1  UNL1       -0.0355
      5 C          -3.2462    0.4801    0.3934 C.3     1  UNL1        0.0608
      6 C          -3.6137   -0.2425    1.6302 C.2     1  UNL1        0.2212
      7 O          -3.4912   -1.5207    1.6593 O.2     1  UNL1       -0.2751
      8 N          -4.0905    0.3564    2.8219 N.am    1  UNL1       -0.3019
      9 C          -4.3880   -0.5178    3.9325 C.3     1  UNL1        0.0990
     10 C          -4.8393    0.1782    5.1326 C.1     1  UNL1        0.0815
     11 N          -5.2062    0.7089    6.0692 N.1     1  UNL1       -0.1949
     12 C          -2.2956   -0.4529   -0.3258 C.ar    1  UNL1       -0.0349
     13 C          -2.7435   -1.5933   -0.9268 C.ar    1  UNL1       -0.0578
     14 C          -1.8338   -2.4585   -1.5325 C.ar    1  UNL1       -0.0609
     15 C          -0.5073   -2.1249   -1.4983 C.ar    1  UNL1       -0.0540
     16 C           0.0080   -0.9892   -0.9099 C.ar    1  UNL1       -0.0176
     17 C           1.4332   -0.7051   -0.8417 C.ar    1  UNL1       -0.0178
     18 C           2.3278   -1.7641   -0.7024 C.ar    1  UNL1       -0.0523
     19 C           3.6862   -1.5562   -0.6327 C.ar    1  UNL1       -0.0401
     20 C           4.2518   -0.3074   -0.6970 C.ar    1  UNL1        0.0298
     21 N           5.6494   -0.0904   -0.5905 N.pl3   1  UNL1       -0.3275
     22 C           6.2981    0.9372   -1.3444 C.3     1  UNL1        0.0248
     23 C           7.6639    0.5363   -1.8334 C.3     1  UNL1        0.0117
     24 N           8.3138   -0.4093   -0.9494 N.3     1  UNL1       -0.3130
     25 C           7.7762   -0.3349    0.3954 C.3     1  UNL1        0.0117
     26 C           6.3887   -0.9623    0.3390 C.3     1  UNL1        0.0248
     27 C           3.3552    0.7599   -0.8398 C.ar    1  UNL1       -0.0401
     28 C           1.9904    0.5484   -0.9075 C.ar    1  UNL1       -0.0523
     29 C          -0.9476   -0.1561   -0.3180 C.ar    1  UNL1       -0.0501
     30 H          -5.7942    1.7321   -2.2985 H       1  UNL1        0.0232
     31 H          -6.9141    2.7194   -1.3619 H       1  UNL1        0.0232
     32 H          -7.1238    0.9343   -1.3961 H       1  UNL1        0.0232
     33 H          -5.2021    2.6707    0.1321 H       1  UNL1        0.0296
     34 H          -6.1830   -0.0119    1.0728 H       1  UNL1        0.0232
     35 H          -6.3333    1.6571    1.8958 H       1  UNL1        0.0232
     36 H          -7.4188    1.1784    0.6015 H       1  UNL1        0.0232
     37 H          -4.7589   -0.1774   -0.9450 H       1  UNL1        0.0278
     38 H          -3.8527    1.3317   -1.4318 H       1  UNL1        0.0278
     39 H          -2.6823    1.4067    0.6952 H       1  UNL1        0.0443
     40 H          -4.1994    1.3862    2.8588 H       1  UNL1        0.1497
     41 H          -5.2011   -1.2498    3.6664 H       1  UNL1        0.0620
     42 H          -3.4773   -1.1448    4.1596 H       1  UNL1        0.0620
     43 H          -3.7686   -1.8788   -0.9642 H       1  UNL1        0.0620
     44 H          -2.2182   -3.3599   -2.0078 H       1  UNL1        0.0618
     45 H           0.2197   -2.7863   -1.9640 H       1  UNL1        0.0624
     46 H           1.8941   -2.7762   -0.6498 H       1  UNL1        0.0624
     47 H           4.3402   -2.4193   -0.5212 H       1  UNL1        0.0636
     48 H           6.3087    1.8601   -0.7446 H       1  UNL1        0.0476
     49 H           5.6939    1.1591   -2.2428 H       1  UNL1        0.0476
     50 H           8.2969    1.4467   -1.8504 H       1  UNL1        0.0439
     51 H           7.6614    0.1312   -2.8672 H       1  UNL1        0.0439
     52 H           8.2359   -1.3511   -1.3650 H       1  UNL1        0.1220
     53 H           8.4677   -0.8312    1.0779 H       1  UNL1        0.0439
     54 H           7.6525    0.7604    0.6117 H       1  UNL1        0.0439
     55 H           5.8812   -1.0016    1.3230 H       1  UNL1        0.0476
     56 H           6.4975   -1.9476   -0.1569 H       1  UNL1        0.0476
     57 H           3.8036    1.7423   -0.8916 H       1  UNL1        0.0636
     58 H           1.3465    1.4053   -1.0206 H       1  UNL1        0.0624
     59 H          -0.5994    0.7403    0.1531 H       1  UNL1        0.0627
@<TRIPOS>BOND
     1     1     2    1
     2     2     3    1
     3     2     4    1
     4     4     5    1
     5     5     6    1
     6     6     7    2
     7     6     8   am
     8     8     9    1
     9     9    10    1
    10    10    11    3
    11     5    12    1
    12    12    13   ar
    13    13    14   ar
    14    14    15   ar
    15    15    16   ar
    16    16    17    1
    17    17    18   ar
    18    18    19   ar
    19    19    20   ar
    20    20    21    1
    21    21    22    1
    22    22    23    1
    23    23    24    1
    24    24    25    1
    25    25    26    1
    26    20    27   ar
    27    27    28   ar
    28    16    29   ar
    29    29    12   ar
    30    28    17   ar
    31    26    21    1
    32     1    30    1
    33     1    31    1
    34     1    32    1
    35     2    33    1
    36     3    34    1
    37     3    35    1
    38     3    36    1
    39     4    37    1
    40     4    38    1
    41     5    39    1
    42     8    40    1
    43     9    41    1
    44     9    42    1
    45    13    43    1
    46    14    44    1
    47    15    45    1
    48    18    46    1
    49    19    47    1
    50    22    48    1
    51    22    49    1
    52    23    50    1
    53    23    51    1
    54    24    52    1
    55    25    53    1
    56    25    54    1
    57    26    55    1
    58    26    56    1
    59    27    57    1
    60    28    58    1
    61    29    59    1
