
     RDKit          3D

 61 65  0  0  0  0  0  0  0  0999 V2000
   -6.0931   -1.5314    1.9261 C   0  0  0  0  0  0  0  0  0  0  0  0
   -5.8117   -0.2124    1.3076 C   0  0  0  0  0  0  0  0  0  0  0  0
   -6.2637    0.9354    1.9057 C   0  0  0  0  0  0  0  0  0  0  0  0
   -7.0189    0.9358    3.1634 C   0  0  0  0  0  0  0  0  0  0  0  0
   -7.3984    2.0146    3.6359 O   0  0  0  0  0  0  0  0  0  0  0  0
   -7.3115   -0.2336    3.8234 O   0  0  0  0  0  0  0  0  0  0  0  0
   -5.9662    2.1384    1.2684 C   0  0  0  0  0  0  0  0  0  0  0  0
   -5.2521    2.1702    0.0941 C   0  0  0  0  0  0  0  0  0  0  0  0
   -4.7945    0.9909   -0.5084 C   0  0  0  0  0  0  0  0  0  0  0  0
   -5.0881   -0.2031    0.1209 C   0  0  0  0  0  0  0  0  0  0  0  0
   -4.5101   -1.3082   -0.6908 C   0  0  0  0  0  0  0  0  0  0  0  0
   -4.4757   -0.6944   -2.0722 C   0  0  0  0  0  0  0  0  0  0  0  0
   -4.0185    0.7384   -1.7417 C   0  0  2  0  0  0  0  0  0  0  0  0
   -2.5961    0.6414   -1.4778 N   0  0  0  0  0  0  0  0  0  0  0  0
   -1.6967    1.1896   -2.4052 C   0  0  0  0  0  0  0  0  0  0  0  0
   -2.1497    1.7416   -3.4378 O   0  0  0  0  0  0  0  0  0  0  0  0
   -0.2280    1.1498   -2.2288 C   0  0  0  0  0  0  0  0  0  0  0  0
    0.3176    0.6995   -1.0446 C   0  0  0  0  0  0  0  0  0  0  0  0
    1.7000    0.6507   -0.9117 C   0  0  0  0  0  0  0  0  0  0  0  0
    2.2274    0.1779    0.3618 C   0  0  0  0  0  0  0  0  0  0  0  0
    1.4822   -0.1636    1.3115 O   0  0  0  0  0  0  0  0  0  0  0  0
    3.6397    0.0740    0.6075 N   0  0  0  0  0  0  0  0  0  0  0  0
    4.1533   -0.3940    1.8750 C   0  0  0  0  0  0  0  0  0  0  0  0
    5.6138   -0.6236    1.7176 C   0  0  0  0  0  0  0  0  0  0  0  0
    6.5439    0.3543    1.9660 C   0  0  0  0  0  0  0  0  0  0  0  0
    7.8800    0.0629    1.7976 C   0  0  0  0  0  0  0  0  0  0  0  0
    8.3376   -1.1675    1.3901 C   0  0  0  0  0  0  0  0  0  0  0  0
    9.6707   -1.4264    1.2347 F   0  0  0  0  0  0  0  0  0  0  0  0
    7.3903   -2.1299    1.1479 C   0  0  0  0  0  0  0  0  0  0  0  0
    7.8053   -3.5009    0.6915 C   0  0  0  0  0  0  0  0  0  0  0  0
    6.6771   -4.2788    0.5375 F   0  0  0  0  0  0  0  0  0  0  0  0
    8.4028   -3.4228   -0.5754 F   0  0  0  0  0  0  0  0  0  0  0  0
    8.7479   -4.0416    1.5232 F   0  0  0  0  0  0  0  0  0  0  0  0
    6.0236   -1.8664    1.3089 C   0  0  0  0  0  0  0  0  0  0  0  0
    2.4336    1.0452   -1.9467 N   0  0  0  0  0  0  0  0  0  0  0  0
    1.9268    1.4936   -3.1255 C   0  0  0  0  0  0  0  0  0  0  0  0
    2.4955    1.9393   -4.3000 C   0  0  0  0  0  0  0  0  0  0  0  0
    3.8179    2.0269   -4.5330 F   0  0  0  0  0  0  0  0  0  0  0  0
    1.4509    2.2537   -5.1310 C   0  0  0  0  0  0  0  0  0  0  0  0
    0.3105    1.9997   -4.4627 N   0  0  0  0  0  0  0  0  0  0  0  0
    0.5816    1.5340   -3.2341 N   0  0  0  0  0  0  0  0  0  0  0  0
   -5.7501   -2.3687    1.2743 H   0  0  0  0  0  0  0  0  0  0  0  0
   -7.2108   -1.6417    1.9657 H   0  0  0  0  0  0  0  0  0  0  0  0
   -5.6643   -1.6069    2.9230 H   0  0  0  0  0  0  0  0  0  0  0  0
   -7.9717   -0.1767    4.6157 H   0  0  0  0  0  0  0  0  0  0  0  0
   -6.3390    3.0478    1.7649 H   0  0  0  0  0  0  0  0  0  0  0  0
   -5.0420    3.1412   -0.3695 H   0  0  0  0  0  0  0  0  0  0  0  0
   -3.4906   -1.6057   -0.3520 H   0  0  0  0  0  0  0  0  0  0  0  0
   -5.1779   -2.2047   -0.6617 H   0  0  0  0  0  0  0  0  0  0  0  0
   -5.5056   -0.6715   -2.4967 H   0  0  0  0  0  0  0  0  0  0  0  0
   -3.7568   -1.1986   -2.7435 H   0  0  0  0  0  0  0  0  0  0  0  0
   -4.2490    1.4094   -2.5854 H   0  0  0  0  0  0  0  0  0  0  0  0
   -2.2573    0.1789   -0.6283 H   0  0  0  0  0  0  0  0  0  0  0  0
   -0.3082    0.3798   -0.2030 H   0  0  0  0  0  0  0  0  0  0  0  0
    4.2981    0.3418   -0.1392 H   0  0  0  0  0  0  0  0  0  0  0  0
    4.0207    0.3862    2.6719 H   0  0  0  0  0  0  0  0  0  0  0  0
    3.6567   -1.3449    2.1997 H   0  0  0  0  0  0  0  0  0  0  0  0
    6.2370    1.3647    2.2968 H   0  0  0  0  0  0  0  0  0  0  0  0
    8.6205    0.8540    2.0014 H   0  0  0  0  0  0  0  0  0  0  0  0
    5.3309   -2.6779    1.0980 H   0  0  0  0  0  0  0  0  0  0  0  0
    1.6027    2.6344   -6.1348 H   0  0  0  0  0  0  0  0  0  0  0  0
  1  2  1  0
  2  3  2  0
  3  4  1  0
  4  5  2  0
  4  6  1  0
  3  7  1  0
  7  8  2  0
  8  9  1  0
  9 10  2  0
 10 11  1  0
 11 12  1  0
 12 13  1  0
 13 14  1  0
 14 15  1  0
 15 16  2  0
 15 17  1  0
 17 18  2  0
 18 19  1  0
 19 20  1  0
 20 21  2  0
 20 22  1  0
 22 23  1  0
 23 24  1  0
 24 25  2  0
 25 26  1  0
 26 27  2  0
 27 28  1  0
 27 29  1  0
 29 30  1  0
 30 31  1  0
 30 32  1  0
 30 33  1  0
 29 34  2  0
 19 35  2  0
 35 36  1  0
 36 37  2  0
 37 38  1  0
 37 39  1  0
 39 40  2  0
 40 41  1  0
 10  2  1  0
 41 17  1  0
 13  9  1  0
 34 24  1  0
 41 36  1  0
  1 42  1  0
  1 43  1  0
  1 44  1  0
  6 45  1  0
  7 46  1  0
  8 47  1  0
 11 48  1  0
 11 49  1  0
 12 50  1  0
 12 51  1  0
 13 52  1  6
 14 53  1  0
 18 54  1  0
 22 55  1  0
 23 56  1  0
 23 57  1  0
 25 58  1  0
 26 59  1  0
 34 60  1  0
 39 61  1  0
M  END
$$$$
