@<TRIPOS>MOLECULE
*****
 61 65 0 0 0
SMALL
GASTEIGER

@<TRIPOS>ATOM
      1 C          -6.0931   -1.5314    1.9261 C.3     1  UNL1       -0.0387
      2 C          -5.8117   -0.2124    1.3076 C.ar    1  UNL1       -0.0330
      3 C          -6.2637    0.9354    1.9057 C.ar    1  UNL1        0.0620
      4 C          -7.0189    0.9358    3.1634 C.2     1  UNL1        0.3371
      5 O          -7.3984    2.0146    3.6359 O.2     1  UNL1       -0.2451
      6 O          -7.3115   -0.2336    3.8234 O.3     1  UNL1       -0.4771
      7 C          -5.9662    2.1384    1.2684 C.ar    1  UNL1       -0.0472
      8 C          -5.2521    2.1702    0.0941 C.ar    1  UNL1       -0.0558
      9 C          -4.7945    0.9909   -0.5084 C.ar    1  UNL1       -0.0237
     10 C          -5.0881   -0.2031    0.1209 C.ar    1  UNL1       -0.0387
     11 C          -4.5101   -1.3082   -0.6908 C.3     1  UNL1       -0.0251
     12 C          -4.4757   -0.6944   -2.0722 C.3     1  UNL1       -0.0263
     13 C          -4.0185    0.7384   -1.7417 C.3     1  UNL1        0.0493
     14 N          -2.5961    0.6414   -1.4778 N.am    1  UNL1       -0.3033
     15 C          -1.6967    1.1896   -2.4052 C.2     1  UNL1        0.2630
     16 O          -2.1497    1.7416   -3.4378 O.2     1  UNL1       -0.2685
     17 C          -0.2280    1.1498   -2.2288 C.ar    1  UNL1        0.1314
     18 C           0.3176    0.6995   -1.0446 C.ar    1  UNL1       -0.0005
     19 C           1.7000    0.6507   -0.9117 C.ar    1  UNL1        0.1300
     20 C           2.2274    0.1779    0.3618 C.2     1  UNL1        0.2628
     21 O           1.4822   -0.1636    1.3115 O.2     1  UNL1       -0.2685
     22 N           3.6397    0.0740    0.6075 N.am    1  UNL1       -0.3060
     23 C           4.1533   -0.3940    1.8750 C.3     1  UNL1        0.0372
     24 C           5.6138   -0.6236    1.7176 C.ar    1  UNL1       -0.0296
     25 C           6.5439    0.3543    1.9660 C.ar    1  UNL1       -0.0543
     26 C           7.8800    0.0629    1.7976 C.ar    1  UNL1       -0.0256
     27 C           8.3376   -1.1675    1.3901 C.ar    1  UNL1        0.1350
     28 F           9.6707   -1.4264    1.2347 F       1  UNL1       -0.2049
     29 C           7.3903   -2.1299    1.1479 C.ar    1  UNL1        0.0902
     30 C           7.8053   -3.5009    0.6915 C.3     1  UNL1        0.4201
     31 F           6.6771   -4.2788    0.5375 F       1  UNL1       -0.1658
     32 F           8.4028   -3.4228   -0.5754 F       1  UNL1       -0.1658
     33 F           8.7479   -4.0416    1.5232 F       1  UNL1       -0.1658
     34 C           6.0236   -1.8664    1.3089 C.ar    1  UNL1       -0.0426
     35 N           2.4336    1.0452   -1.9467 N.ar    1  UNL1       -0.2206
     36 C           1.9268    1.4936   -3.1255 C.ar    1  UNL1        0.1926
     37 C           2.4955    1.9393   -4.3000 C.ar    1  UNL1        0.1870
     38 F           3.8179    2.0269   -4.5330 F       1  UNL1       -0.1999
     39 C           1.4509    2.2537   -5.1310 C.ar    1  UNL1        0.0872
     40 N           0.3105    1.9997   -4.4627 N.ar    1  UNL1       -0.1697
     41 N           0.5816    1.5340   -3.2341 N.ar    1  UNL1       -0.2067
     42 H          -5.7501   -2.3687    1.2743 H       1  UNL1        0.0278
     43 H          -7.2108   -1.6417    1.9657 H       1  UNL1        0.0278
     44 H          -5.6643   -1.6069    2.9230 H       1  UNL1        0.0278
     45 H          -7.9717   -0.1767    4.6157 H       1  UNL1        0.2954
     46 H          -6.3390    3.0478    1.7649 H       1  UNL1        0.0626
     47 H          -5.0420    3.1412   -0.3695 H       1  UNL1        0.0621
     48 H          -3.4906   -1.6057   -0.3520 H       1  UNL1        0.0314
     49 H          -5.1779   -2.2047   -0.6617 H       1  UNL1        0.0314
     50 H          -5.5056   -0.6715   -2.4967 H       1  UNL1        0.0289
     51 H          -3.7568   -1.1986   -2.7435 H       1  UNL1        0.0289
     52 H          -4.2490    1.4094   -2.5854 H       1  UNL1        0.0548
     53 H          -2.2573    0.1789   -0.6283 H       1  UNL1        0.1497
     54 H          -0.3082    0.3798   -0.2030 H       1  UNL1        0.0663
     55 H           4.2981    0.3418   -0.1392 H       1  UNL1        0.1494
     56 H           4.0207    0.3862    2.6719 H       1  UNL1        0.0512
     57 H           3.6567   -1.3449    2.1997 H       1  UNL1        0.0512
     58 H           6.2370    1.3647    2.2968 H       1  UNL1        0.0622
     59 H           8.6205    0.8540    2.0014 H       1  UNL1        0.0646
     60 H           5.3309   -2.6779    1.0980 H       1  UNL1        0.0627
     61 H           1.6027    2.6344   -6.1348 H       1  UNL1        0.0878
@<TRIPOS>BOND
     1     1     2    1
     2     2     3   ar
     3     3     4    1
     4     4     5    2
     5     4     6    1
     6     3     7   ar
     7     7     8   ar
     8     8     9   ar
     9     9    10   ar
    10    10    11    1
    11    11    12    1
    12    12    13    1
    13    13    14    1
    14    14    15   am
    15    15    16    2
    16    15    17    1
    17    17    18   ar
    18    18    19   ar
    19    19    20    1
    20    20    21    2
    21    20    22   am
    22    22    23    1
    23    23    24    1
    24    24    25   ar
    25    25    26   ar
    26    26    27   ar
    27    27    28    1
    28    27    29   ar
    29    29    30    1
    30    30    31    1
    31    30    32    1
    32    30    33    1
    33    29    34   ar
    34    19    35   ar
    35    35    36   ar
    36    36    37   ar
    37    37    38    1
    38    37    39   ar
    39    39    40   ar
    40    40    41   ar
    41    10     2   ar
    42    41    17   ar
    43    13     9    1
    44    34    24   ar
    45    41    36   ar
    46     1    42    1
    47     1    43    1
    48     1    44    1
    49     6    45    1
    50     7    46    1
    51     8    47    1
    52    11    48    1
    53    11    49    1
    54    12    50    1
    55    12    51    1
    56    13    52    1
    57    14    53    1
    58    18    54    1
    59    22    55    1
    60    23    56    1
    61    23    57    1
    62    25    58    1
    63    26    59    1
    64    34    60    1
    65    39    61    1
