
     RDKit          3D

 46 50  0  0  0  0  0  0  0  0999 V2000
   -0.9067    3.4803    1.8807 O   0  0  0  0  0  0  0  0  0  0  0  0
   -1.2461    2.3262    1.5298 C   0  0  0  0  0  0  0  0  0  0  0  0
   -2.3929    2.1409    0.7844 C   0  0  0  0  0  0  0  0  0  0  0  0
   -2.7468    0.8716    0.4107 C   0  0  0  0  0  0  0  0  0  0  0  0
   -3.9071    0.6385   -0.3504 N   0  0  0  0  0  0  0  0  0  0  0  0
   -4.7885    1.6636   -0.8267 C   0  0  0  0  0  0  0  0  0  0  0  0
   -6.1586    1.3645   -0.2001 C   0  0  0  0  0  0  0  0  0  0  0  0
   -6.5399    0.1005   -0.6429 O   0  0  0  0  0  0  0  0  0  0  0  0
   -5.7029   -0.9094   -0.2282 C   0  0  0  0  0  0  0  0  0  0  0  0
   -4.2753   -0.7422   -0.6996 C   0  0  0  0  0  0  0  0  0  0  0  0
   -1.9299   -0.1301    0.8074 N   0  0  0  0  0  0  0  0  0  0  0  0
   -0.8181    0.0794    1.5336 C   0  0  0  0  0  0  0  0  0  0  0  0
    0.0622   -1.0573    1.9542 C   0  0  0  0  0  0  0  0  0  0  0  0
    1.1109   -1.3003    0.9054 C   0  0  0  0  0  0  0  0  0  0  0  0
    2.3360   -0.7379    0.8357 N   0  0  0  0  0  0  0  0  0  0  0  0
    2.9671   -1.2282   -0.2651 C   0  0  0  0  0  0  0  0  0  0  0  0
    4.2040   -0.9988   -0.7976 C   0  0  0  0  0  0  0  0  0  0  0  0
    5.0946   -0.0502   -0.1111 C   0  0  0  0  0  0  0  0  0  0  0  0
    6.3359    0.3521   -0.4104 C   0  0  0  0  0  0  0  0  0  0  0  0
    6.9623    1.2444    0.3798 C   0  0  0  0  0  0  0  0  0  0  0  0
    6.2941    1.7125    1.4758 C   0  0  0  0  0  0  0  0  0  0  0  0
    4.6993    0.8348    1.3676 S   0  0  0  0  0  0  0  0  0  0  0  0
    4.6011   -1.6424   -1.9479 C   0  0  0  0  0  0  0  0  0  0  0  0
    3.7014   -2.5238   -2.5363 C   0  0  0  0  0  0  0  0  0  0  0  0
    2.4537   -2.7730   -2.0236 C   0  0  0  0  0  0  0  0  0  0  0  0
    2.0791   -2.1040   -0.8539 C   0  0  0  0  0  0  0  0  0  0  0  0
    0.9930   -2.1104   -0.1201 O   0  0  0  0  0  0  0  0  0  0  0  0
   -0.4545    1.3163    1.9096 N   0  0  0  0  0  0  0  0  0  0  0  0
   -2.9449    3.0336    0.5430 H   0  0  0  0  0  0  0  0  0  0  0  0
   -4.9246    1.4631   -1.9330 H   0  0  0  0  0  0  0  0  0  0  0  0
   -4.4937    2.6890   -0.6323 H   0  0  0  0  0  0  0  0  0  0  0  0
   -6.1215    1.4650    0.8833 H   0  0  0  0  0  0  0  0  0  0  0  0
   -6.8656    2.0933   -0.6276 H   0  0  0  0  0  0  0  0  0  0  0  0
   -5.7730   -1.0247    0.8713 H   0  0  0  0  0  0  0  0  0  0  0  0
   -6.0849   -1.8537   -0.6653 H   0  0  0  0  0  0  0  0  0  0  0  0
   -4.2850   -0.8816   -1.8019 H   0  0  0  0  0  0  0  0  0  0  0  0
   -3.6412   -1.4707   -0.1773 H   0  0  0  0  0  0  0  0  0  0  0  0
    0.5516   -0.8728    2.9223 H   0  0  0  0  0  0  0  0  0  0  0  0
   -0.5806   -1.9498    2.0842 H   0  0  0  0  0  0  0  0  0  0  0  0
    6.8393   -0.0682   -1.3284 H   0  0  0  0  0  0  0  0  0  0  0  0
    8.0109    1.6407    0.2040 H   0  0  0  0  0  0  0  0  0  0  0  0
    6.5514    2.4218    2.2684 H   0  0  0  0  0  0  0  0  0  0  0  0
    5.5779   -1.4424   -2.3426 H   0  0  0  0  0  0  0  0  0  0  0  0
    4.0006   -3.0332   -3.4365 H   0  0  0  0  0  0  0  0  0  0  0  0
    1.7400   -3.4426   -2.4499 H   0  0  0  0  0  0  0  0  0  0  0  0
    0.4160    1.4155    2.4704 H   0  0  0  0  0  0  0  0  0  0  0  0
  1  2  2  0
  2  3  1  0
  3  4  2  0
  4  5  1  0
  5  6  1  0
  6  7  1  0
  7  8  1  0
  8  9  1  0
  9 10  1  0
  4 11  1  0
 11 12  2  0
 12 13  1  0
 13 14  1  0
 14 15  2  0
 15 16  1  0
 16 17  2  0
 17 18  1  0
 18 19  2  0
 19 20  1  0
 20 21  2  0
 21 22  1  0
 17 23  1  0
 23 24  2  0
 24 25  1  0
 25 26  2  0
 26 27  1  0
 12 28  1  0
 28  2  1  0
 10  5  1  0
 27 14  1  0
 26 16  1  0
 22 18  1  0
  3 29  1  0
  6 30  1  0
  6 31  1  0
  7 32  1  0
  7 33  1  0
  9 34  1  0
  9 35  1  0
 10 36  1  0
 10 37  1  0
 13 38  1  0
 13 39  1  0
 19 40  1  0
 20 41  1  0
 21 42  1  0
 23 43  1  0
 24 44  1  0
 25 45  1  0
 28 46  1  0
M  END
$$$$
