@<TRIPOS>MOLECULE
*****
 46 50 0 0 0
SMALL
GASTEIGER

@<TRIPOS>ATOM
      1 O          -0.9067    3.4803    1.8807 O.2     1  UNL1       -0.2677
      2 C          -1.2461    2.3262    1.5298 C.ar    1  UNL1        0.2533
      3 C          -2.3929    2.1409    0.7844 C.ar    1  UNL1        0.0427
      4 C          -2.7468    0.8716    0.4107 C.ar    1  UNL1        0.1285
      5 N          -3.9071    0.6385   -0.3504 N.pl3   1  UNL1       -0.3106
      6 C          -4.7885    1.6636   -0.8267 C.3     1  UNL1        0.0370
      7 C          -6.1586    1.3645   -0.2001 C.3     1  UNL1        0.0634
      8 O          -6.5399    0.1005   -0.6429 O.3     1  UNL1       -0.3767
      9 C          -5.7029   -0.9094   -0.2282 C.3     1  UNL1        0.0634
     10 C          -4.2753   -0.7422   -0.6996 C.3     1  UNL1        0.0370
     11 N          -1.9299   -0.1301    0.8074 N.ar    1  UNL1       -0.2186
     12 C          -0.8181    0.0794    1.5336 C.ar    1  UNL1        0.1207
     13 C           0.0622   -1.0573    1.9542 C.3     1  UNL1        0.0821
     14 C           1.1109   -1.3003    0.9054 C.ar    1  UNL1        0.2041
     15 N           2.3360   -0.7379    0.8357 N.ar    1  UNL1       -0.2123
     16 C           2.9671   -1.2282   -0.2651 C.ar    1  UNL1        0.1177
     17 C           4.2040   -0.9988   -0.7976 C.ar    1  UNL1        0.0178
     18 C           5.0946   -0.0502   -0.1111 C.ar    1  UNL1        0.0215
     19 C           6.3359    0.3521   -0.4104 C.ar    1  UNL1       -0.0469
     20 C           6.9623    1.2444    0.3798 C.ar    1  UNL1       -0.0541
     21 C           6.2941    1.7125    1.4758 C.ar    1  UNL1       -0.0237
     22 S           4.6993    0.8348    1.3676 S.2     1  UNL1       -0.0966
     23 C           4.6011   -1.6424   -1.9479 C.ar    1  UNL1       -0.0513
     24 C           3.7014   -2.5238   -2.5363 C.ar    1  UNL1       -0.0576
     25 C           2.4537   -2.7730   -2.0236 C.ar    1  UNL1       -0.0171
     26 C           2.0791   -2.1040   -0.8539 C.ar    1  UNL1        0.1560
     27 O           0.9930   -2.1104   -0.1201 O.2     1  UNL1       -0.4393
     28 N          -0.4545    1.3163    1.9096 N.ar    1  UNL1       -0.3104
     29 H          -2.9449    3.0336    0.5430 H       1  UNL1        0.0706
     30 H          -4.9246    1.4631   -1.9330 H       1  UNL1        0.0487
     31 H          -4.4937    2.6890   -0.6323 H       1  UNL1        0.0487
     32 H          -6.1215    1.4650    0.8833 H       1  UNL1        0.0575
     33 H          -6.8656    2.0933   -0.6276 H       1  UNL1        0.0575
     34 H          -5.7730   -1.0247    0.8713 H       1  UNL1        0.0575
     35 H          -6.0849   -1.8537   -0.6653 H       1  UNL1        0.0575
     36 H          -4.2850   -0.8816   -1.8019 H       1  UNL1        0.0487
     37 H          -3.6412   -1.4707   -0.1773 H       1  UNL1        0.0487
     38 H           0.5516   -0.8728    2.9223 H       1  UNL1        0.0439
     39 H          -0.5806   -1.9498    2.0842 H       1  UNL1        0.0439
     40 H           6.8393   -0.0682   -1.3284 H       1  UNL1        0.0629
     41 H           8.0109    1.6407    0.2040 H       1  UNL1        0.0623
     42 H           6.5514    2.4218    2.2684 H       1  UNL1        0.0693
     43 H           5.5779   -1.4424   -2.3426 H       1  UNL1        0.0624
     44 H           4.0006   -3.0332   -3.4365 H       1  UNL1        0.0619
     45 H           1.7400   -3.4426   -2.4499 H       1  UNL1        0.0655
     46 H           0.4160    1.4155    2.4704 H       1  UNL1        0.1700
@<TRIPOS>BOND
     1     1     2    2
     2     2     3   ar
     3     3     4   ar
     4     4     5    1
     5     5     6    1
     6     6     7    1
     7     7     8    1
     8     8     9    1
     9     9    10    1
    10     4    11   ar
    11    11    12   ar
    12    12    13    1
    13    13    14    1
    14    14    15   ar
    15    15    16   ar
    16    16    17   ar
    17    17    18    1
    18    18    19   ar
    19    19    20   ar
    20    20    21   ar
    21    21    22   ar
    22    17    23   ar
    23    23    24   ar
    24    24    25   ar
    25    25    26   ar
    26    26    27   ar
    27    12    28   ar
    28    28     2   ar
    29    10     5    1
    30    27    14   ar
    31    26    16   ar
    32    22    18   ar
    33     3    29    1
    34     6    30    1
    35     6    31    1
    36     7    32    1
    37     7    33    1
    38     9    34    1
    39     9    35    1
    40    10    36    1
    41    10    37    1
    42    13    38    1
    43    13    39    1
    44    19    40    1
    45    20    41    1
    46    21    42    1
    47    23    43    1
    48    24    44    1
    49    25    45    1
    50    28    46    1
