@<TRIPOS>MOLECULE
*****
 34 35 0 0 0
SMALL
GASTEIGER

@<TRIPOS>ATOM
      1 N          -5.6241    0.4474    2.0229 N.3     1  UNL1       -0.2035
      2 S          -5.4237    0.2402    0.3183 S.O2    1  UNL1        0.0559
      3 O          -6.3071   -0.8772   -0.1264 O.2     1  UNL1       -0.1533
      4 O          -5.8654    1.4980   -0.4159 O.2     1  UNL1       -0.1533
      5 C          -3.7426   -0.0941   -0.0867 C.ar    1  UNL1        0.1050
      6 C          -3.1757   -1.3599   -0.1181 C.ar    1  UNL1       -0.0346
      7 C          -1.8449   -1.4502   -0.4587 C.ar    1  UNL1       -0.0478
      8 C          -1.0383   -0.3791   -0.7693 C.ar    1  UNL1        0.0368
      9 C          -1.6189    0.8591   -0.7317 C.ar    1  UNL1       -0.0478
     10 C          -2.9694    0.9968   -0.3906 C.ar    1  UNL1       -0.0346
     11 C           0.3542   -0.6403   -1.1089 C.2     1  UNL1        0.2443
     12 O           0.7423   -1.8377   -1.0856 O.2     1  UNL1       -0.2702
     13 N           1.2931    0.3589   -1.4605 N.am    1  UNL1       -0.3072
     14 C           2.6712    0.2204   -1.8080 C.3     1  UNL1        0.0371
     15 C           3.4361   -0.0098   -0.5523 C.ar    1  UNL1       -0.0303
     16 C           3.8727    1.1443    0.0990 C.ar    1  UNL1       -0.0571
     17 C           4.5957    1.1091    1.2702 C.ar    1  UNL1       -0.0615
     18 C           4.9109   -0.1091    1.8373 C.ar    1  UNL1       -0.0617
     19 C           4.4821   -1.2604    1.1983 C.ar    1  UNL1       -0.0615
     20 C           3.7548   -1.2223    0.0201 C.ar    1  UNL1       -0.0571
     21 H          -5.1195    1.2900    2.3749 H       1  UNL1        0.1442
     22 H          -6.6312    0.4357    2.2354 H       1  UNL1        0.1442
     23 H          -3.8204   -2.1911    0.1290 H       1  UNL1        0.0637
     24 H          -1.4760   -2.4712   -0.4593 H       1  UNL1        0.0626
     25 H          -1.0318    1.7326   -0.9678 H       1  UNL1        0.0626
     26 H          -3.3512    1.9925   -0.3834 H       1  UNL1        0.0637
     27 H           0.8847    1.3273   -1.4560 H       1  UNL1        0.1493
     28 H           2.8396   -0.6120   -2.5394 H       1  UNL1        0.0512
     29 H           3.0414    1.1325   -2.3084 H       1  UNL1        0.0512
     30 H           3.6517    2.1315   -0.3074 H       1  UNL1        0.0621
     31 H           4.9103    2.0446    1.7346 H       1  UNL1        0.0618
     32 H           5.4843   -0.1324    2.7644 H       1  UNL1        0.0618
     33 H           4.7079   -2.2234    1.6122 H       1  UNL1        0.0618
     34 H           3.4072   -2.0905   -0.5044 H       1  UNL1        0.0621
@<TRIPOS>BOND
     1     1     2    1
     2     2     3    2
     3     2     4    2
     4     2     5    1
     5     5     6   ar
     6     6     7   ar
     7     7     8   ar
     8     8     9   ar
     9     9    10   ar
    10     8    11    1
    11    11    12    2
    12    11    13   am
    13    13    14    1
    14    14    15    1
    15    15    16   ar
    16    16    17   ar
    17    17    18   ar
    18    18    19   ar
    19    19    20   ar
    20    10     5   ar
    21    20    15   ar
    22     1    21    1
    23     1    22    1
    24     6    23    1
    25     7    24    1
    26     9    25    1
    27    10    26    1
    28    13    27    1
    29    14    28    1
    30    14    29    1
    31    16    30    1
    32    17    31    1
    33    18    32    1
    34    19    33    1
    35    20    34    1
