
     RDKit          3D

 34 35  0  0  0  0  0  0  0  0999 V2000
   -5.6241    0.4474    2.0229 N   0  0  0  0  0  0  0  0  0  0  0  0
   -5.4237    0.2402    0.3183 S   0  0  0  0  0  0  0  0  0  0  0  0
   -6.3071   -0.8772   -0.1264 O   0  0  0  0  0  0  0  0  0  0  0  0
   -5.8654    1.4980   -0.4159 O   0  0  0  0  0  0  0  0  0  0  0  0
   -3.7426   -0.0941   -0.0867 C   0  0  0  0  0  0  0  0  0  0  0  0
   -3.1757   -1.3599   -0.1181 C   0  0  0  0  0  0  0  0  0  0  0  0
   -1.8449   -1.4502   -0.4587 C   0  0  0  0  0  0  0  0  0  0  0  0
   -1.0383   -0.3791   -0.7693 C   0  0  0  0  0  0  0  0  0  0  0  0
   -1.6189    0.8591   -0.7317 C   0  0  0  0  0  0  0  0  0  0  0  0
   -2.9694    0.9968   -0.3906 C   0  0  0  0  0  0  0  0  0  0  0  0
    0.3542   -0.6403   -1.1089 C   0  0  0  0  0  0  0  0  0  0  0  0
    0.7423   -1.8377   -1.0856 O   0  0  0  0  0  0  0  0  0  0  0  0
    1.2931    0.3589   -1.4605 N   0  0  0  0  0  0  0  0  0  0  0  0
    2.6712    0.2204   -1.8080 C   0  0  0  0  0  0  0  0  0  0  0  0
    3.4361   -0.0098   -0.5523 C   0  0  0  0  0  0  0  0  0  0  0  0
    3.8727    1.1443    0.0990 C   0  0  0  0  0  0  0  0  0  0  0  0
    4.5957    1.1091    1.2702 C   0  0  0  0  0  0  0  0  0  0  0  0
    4.9109   -0.1091    1.8373 C   0  0  0  0  0  0  0  0  0  0  0  0
    4.4821   -1.2604    1.1983 C   0  0  0  0  0  0  0  0  0  0  0  0
    3.7548   -1.2223    0.0201 C   0  0  0  0  0  0  0  0  0  0  0  0
   -5.1195    1.2900    2.3749 H   0  0  0  0  0  0  0  0  0  0  0  0
   -6.6312    0.4357    2.2354 H   0  0  0  0  0  0  0  0  0  0  0  0
   -3.8204   -2.1911    0.1290 H   0  0  0  0  0  0  0  0  0  0  0  0
   -1.4760   -2.4712   -0.4593 H   0  0  0  0  0  0  0  0  0  0  0  0
   -1.0318    1.7326   -0.9678 H   0  0  0  0  0  0  0  0  0  0  0  0
   -3.3512    1.9925   -0.3834 H   0  0  0  0  0  0  0  0  0  0  0  0
    0.8847    1.3273   -1.4560 H   0  0  0  0  0  0  0  0  0  0  0  0
    2.8396   -0.6120   -2.5394 H   0  0  0  0  0  0  0  0  0  0  0  0
    3.0414    1.1325   -2.3084 H   0  0  0  0  0  0  0  0  0  0  0  0
    3.6517    2.1315   -0.3074 H   0  0  0  0  0  0  0  0  0  0  0  0
    4.9103    2.0446    1.7346 H   0  0  0  0  0  0  0  0  0  0  0  0
    5.4843   -0.1324    2.7644 H   0  0  0  0  0  0  0  0  0  0  0  0
    4.7079   -2.2234    1.6122 H   0  0  0  0  0  0  0  0  0  0  0  0
    3.4072   -2.0905   -0.5044 H   0  0  0  0  0  0  0  0  0  0  0  0
  1  2  1  0
  2  3  2  0
  2  4  2  0
  2  5  1  0
  5  6  2  0
  6  7  1  0
  7  8  2  0
  8  9  1  0
  9 10  2  0
  8 11  1  0
 11 12  2  0
 11 13  1  0
 13 14  1  0
 14 15  1  0
 15 16  2  0
 16 17  1  0
 17 18  2  0
 18 19  1  0
 19 20  2  0
 10  5  1  0
 20 15  1  0
  1 21  1  0
  1 22  1  0
  6 23  1  0
  7 24  1  0
  9 25  1  0
 10 26  1  0
 13 27  1  0
 14 28  1  0
 14 29  1  0
 16 30  1  0
 17 31  1  0
 18 32  1  0
 19 33  1  0
 20 34  1  0
M  END
$$$$
