@<TRIPOS>MOLECULE
*****
 52 55 0 0 0
SMALL
GASTEIGER

@<TRIPOS>ATOM
      1 C           7.0215   -1.9633    0.1076 C.3     1  UNL1        0.0790
      2 O           6.3680   -0.8667   -0.5004 O.3     1  UNL1       -0.4915
      3 C           5.1151   -0.5195   -0.0175 C.ar    1  UNL1        0.1615
      4 C           4.5096   -1.2164    1.0282 C.ar    1  UNL1       -0.0160
      5 C           3.2647   -0.8447    1.4831 C.ar    1  UNL1       -0.0531
      6 C           2.5873    0.2159    0.9243 C.ar    1  UNL1       -0.0208
      7 C           1.2465    0.6434    1.3887 C.3     1  UNL1        0.0859
      8 N           0.1703   -0.0054    0.6991 N.2     1  UNL1       -0.1808
      9 N          -0.8671   -0.3127    1.3199 N.2     1  UNL1       -0.1323
     10 C          -2.0046   -0.9488    0.7922 C.ar    1  UNL1        0.1966
     11 N          -1.8875   -2.1410    0.1322 N.ar    1  UNL1       -0.2233
     12 C          -2.9452   -2.7874   -0.3840 C.ar    1  UNL1        0.0916
     13 C          -2.8306   -3.9901   -1.0500 C.ar    1  UNL1       -0.0342
     14 C          -3.9132   -4.6531   -1.5789 C.ar    1  UNL1       -0.0596
     15 C          -5.1528   -4.0703   -1.4234 C.ar    1  UNL1       -0.0596
     16 C          -5.2717   -2.8681   -0.7581 C.ar    1  UNL1       -0.0342
     17 C          -4.1822   -2.2001   -0.2254 C.ar    1  UNL1        0.0896
     18 N          -4.3036   -1.0302    0.4212 N.ar    1  UNL1       -0.2460
     19 C          -3.2346   -0.3601    0.9522 C.ar    1  UNL1        0.0920
     20 C          -3.4424    0.9360    1.6524 C.3     1  UNL1        0.0185
     21 C          -3.0625    2.1070    0.8251 C.ar    1  UNL1       -0.0415
     22 C          -3.9501    2.6044   -0.1309 C.ar    1  UNL1       -0.0582
     23 C          -3.6031    3.6964   -0.8916 C.ar    1  UNL1       -0.0615
     24 C          -2.3942    4.3322   -0.7480 C.ar    1  UNL1       -0.0617
     25 C          -1.5277    3.8279    0.2021 C.ar    1  UNL1       -0.0615
     26 C          -1.8505    2.7329    0.9799 C.ar    1  UNL1       -0.0582
     27 C           3.1823    0.9098   -0.1117 C.ar    1  UNL1       -0.0113
     28 C           4.4448    0.5444   -0.5838 C.ar    1  UNL1        0.1618
     29 O           5.0695    1.2211   -1.6223 O.3     1  UNL1       -0.4914
     30 C           4.4283    2.3208   -2.2401 C.3     1  UNL1        0.0790
     31 H           6.4480   -2.8983   -0.0994 H       1  UNL1        0.0660
     32 H           8.0338   -2.1287   -0.3333 H       1  UNL1        0.0660
     33 H           7.0496   -1.8150    1.1967 H       1  UNL1        0.0660
     34 H           5.0449   -2.0533    1.4690 H       1  UNL1        0.0655
     35 H           2.8344   -1.4123    2.2939 H       1  UNL1        0.0622
     36 H           1.1613    0.4515    2.4717 H       1  UNL1        0.0576
     37 H           1.1321    1.7394    1.2443 H       1  UNL1        0.0576
     38 H          -1.8460   -4.4038   -1.1461 H       1  UNL1        0.0639
     39 H          -3.7815   -5.5874   -2.0903 H       1  UNL1        0.0618
     40 H          -6.0077   -4.5948   -1.8418 H       1  UNL1        0.0618
     41 H          -6.2483   -2.4081   -0.6353 H       1  UNL1        0.0639
     42 H          -4.4951    1.0214    2.0339 H       1  UNL1        0.0378
     43 H          -2.8117    0.9923    2.5760 H       1  UNL1        0.0378
     44 H          -4.9137    2.1156   -0.2614 H       1  UNL1        0.0620
     45 H          -4.3092    4.0672   -1.6297 H       1  UNL1        0.0618
     46 H          -2.1342    5.1880   -1.3520 H       1  UNL1        0.0618
     47 H          -0.5750    4.3016    0.3394 H       1  UNL1        0.0618
     48 H          -1.1315    2.4018    1.7011 H       1  UNL1        0.0620
     49 H           2.6985    1.7581   -0.5958 H       1  UNL1        0.0659
     50 H           5.0546    2.5954   -3.1236 H       1  UNL1        0.0660
     51 H           3.3822    2.1276   -2.5049 H       1  UNL1        0.0660
     52 H           4.4304    3.2270   -1.5908 H       1  UNL1        0.0660
@<TRIPOS>BOND
     1     1     2    1
     2     2     3    1
     3     3     4   ar
     4     4     5   ar
     5     5     6   ar
     6     6     7    1
     7     7     8    1
     8     8     9    2
     9     9    10    1
    10    10    11   ar
    11    11    12   ar
    12    12    13   ar
    13    13    14   ar
    14    14    15   ar
    15    15    16   ar
    16    16    17   ar
    17    17    18   ar
    18    18    19   ar
    19    19    20    1
    20    20    21    1
    21    21    22   ar
    22    22    23   ar
    23    23    24   ar
    24    24    25   ar
    25    25    26   ar
    26     6    27   ar
    27    27    28   ar
    28    28    29    1
    29    29    30    1
    30    28     3   ar
    31    19    10   ar
    32    26    21   ar
    33    17    12   ar
    34     1    31    1
    35     1    32    1
    36     1    33    1
    37     4    34    1
    38     5    35    1
    39     7    36    1
    40     7    37    1
    41    13    38    1
    42    14    39    1
    43    15    40    1
    44    16    41    1
    45    20    42    1
    46    20    43    1
    47    22    44    1
    48    23    45    1
    49    24    46    1
    50    25    47    1
    51    26    48    1
    52    27    49    1
    53    30    50    1
    54    30    51    1
    55    30    52    1
