
     RDKit          3D

 52 55  0  0  0  0  0  0  0  0999 V2000
    7.0215   -1.9633    0.1076 C   0  0  0  0  0  0  0  0  0  0  0  0
    6.3680   -0.8667   -0.5004 O   0  0  0  0  0  0  0  0  0  0  0  0
    5.1151   -0.5195   -0.0175 C   0  0  0  0  0  0  0  0  0  0  0  0
    4.5096   -1.2164    1.0282 C   0  0  0  0  0  0  0  0  0  0  0  0
    3.2647   -0.8447    1.4831 C   0  0  0  0  0  0  0  0  0  0  0  0
    2.5873    0.2159    0.9243 C   0  0  0  0  0  0  0  0  0  0  0  0
    1.2465    0.6434    1.3887 C   0  0  0  0  0  0  0  0  0  0  0  0
    0.1703   -0.0054    0.6991 N   0  0  0  0  0  0  0  0  0  0  0  0
   -0.8671   -0.3127    1.3199 N   0  0  0  0  0  0  0  0  0  0  0  0
   -2.0046   -0.9488    0.7922 C   0  0  0  0  0  0  0  0  0  0  0  0
   -1.8875   -2.1410    0.1322 N   0  0  0  0  0  0  0  0  0  0  0  0
   -2.9452   -2.7874   -0.3840 C   0  0  0  0  0  0  0  0  0  0  0  0
   -2.8306   -3.9901   -1.0500 C   0  0  0  0  0  0  0  0  0  0  0  0
   -3.9132   -4.6531   -1.5789 C   0  0  0  0  0  0  0  0  0  0  0  0
   -5.1528   -4.0703   -1.4234 C   0  0  0  0  0  0  0  0  0  0  0  0
   -5.2717   -2.8681   -0.7581 C   0  0  0  0  0  0  0  0  0  0  0  0
   -4.1822   -2.2001   -0.2254 C   0  0  0  0  0  0  0  0  0  0  0  0
   -4.3036   -1.0302    0.4212 N   0  0  0  0  0  0  0  0  0  0  0  0
   -3.2346   -0.3601    0.9522 C   0  0  0  0  0  0  0  0  0  0  0  0
   -3.4424    0.9360    1.6524 C   0  0  0  0  0  0  0  0  0  0  0  0
   -3.0625    2.1070    0.8251 C   0  0  0  0  0  0  0  0  0  0  0  0
   -3.9501    2.6044   -0.1309 C   0  0  0  0  0  0  0  0  0  0  0  0
   -3.6031    3.6964   -0.8916 C   0  0  0  0  0  0  0  0  0  0  0  0
   -2.3942    4.3322   -0.7480 C   0  0  0  0  0  0  0  0  0  0  0  0
   -1.5277    3.8279    0.2021 C   0  0  0  0  0  0  0  0  0  0  0  0
   -1.8505    2.7329    0.9799 C   0  0  0  0  0  0  0  0  0  0  0  0
    3.1823    0.9098   -0.1117 C   0  0  0  0  0  0  0  0  0  0  0  0
    4.4448    0.5444   -0.5838 C   0  0  0  0  0  0  0  0  0  0  0  0
    5.0695    1.2211   -1.6223 O   0  0  0  0  0  0  0  0  0  0  0  0
    4.4283    2.3208   -2.2401 C   0  0  0  0  0  0  0  0  0  0  0  0
    6.4480   -2.8983   -0.0994 H   0  0  0  0  0  0  0  0  0  0  0  0
    8.0338   -2.1287   -0.3333 H   0  0  0  0  0  0  0  0  0  0  0  0
    7.0496   -1.8150    1.1967 H   0  0  0  0  0  0  0  0  0  0  0  0
    5.0449   -2.0533    1.4690 H   0  0  0  0  0  0  0  0  0  0  0  0
    2.8344   -1.4123    2.2939 H   0  0  0  0  0  0  0  0  0  0  0  0
    1.1613    0.4515    2.4717 H   0  0  0  0  0  0  0  0  0  0  0  0
    1.1321    1.7394    1.2443 H   0  0  0  0  0  0  0  0  0  0  0  0
   -1.8460   -4.4038   -1.1461 H   0  0  0  0  0  0  0  0  0  0  0  0
   -3.7815   -5.5874   -2.0903 H   0  0  0  0  0  0  0  0  0  0  0  0
   -6.0077   -4.5948   -1.8418 H   0  0  0  0  0  0  0  0  0  0  0  0
   -6.2483   -2.4081   -0.6353 H   0  0  0  0  0  0  0  0  0  0  0  0
   -4.4951    1.0214    2.0339 H   0  0  0  0  0  0  0  0  0  0  0  0
   -2.8117    0.9923    2.5760 H   0  0  0  0  0  0  0  0  0  0  0  0
   -4.9137    2.1156   -0.2614 H   0  0  0  0  0  0  0  0  0  0  0  0
   -4.3092    4.0672   -1.6297 H   0  0  0  0  0  0  0  0  0  0  0  0
   -2.1342    5.1880   -1.3520 H   0  0  0  0  0  0  0  0  0  0  0  0
   -0.5750    4.3016    0.3394 H   0  0  0  0  0  0  0  0  0  0  0  0
   -1.1315    2.4018    1.7011 H   0  0  0  0  0  0  0  0  0  0  0  0
    2.6985    1.7581   -0.5958 H   0  0  0  0  0  0  0  0  0  0  0  0
    5.0546    2.5954   -3.1236 H   0  0  0  0  0  0  0  0  0  0  0  0
    3.3822    2.1276   -2.5049 H   0  0  0  0  0  0  0  0  0  0  0  0
    4.4304    3.2270   -1.5908 H   0  0  0  0  0  0  0  0  0  0  0  0
  1  2  1  0
  2  3  1  0
  3  4  2  0
  4  5  1  0
  5  6  2  0
  6  7  1  0
  7  8  1  0
  8  9  2  3
  9 10  1  0
 10 11  2  0
 11 12  1  0
 12 13  2  0
 13 14  1  0
 14 15  2  0
 15 16  1  0
 16 17  2  0
 17 18  1  0
 18 19  2  0
 19 20  1  0
 20 21  1  0
 21 22  2  0
 22 23  1  0
 23 24  2  0
 24 25  1  0
 25 26  2  0
  6 27  1  0
 27 28  2  0
 28 29  1  0
 29 30  1  0
 28  3  1  0
 19 10  1  0
 26 21  1  0
 17 12  1  0
  1 31  1  0
  1 32  1  0
  1 33  1  0
  4 34  1  0
  5 35  1  0
  7 36  1  0
  7 37  1  0
 13 38  1  0
 14 39  1  0
 15 40  1  0
 16 41  1  0
 20 42  1  0
 20 43  1  0
 22 44  1  0
 23 45  1  0
 24 46  1  0
 25 47  1  0
 26 48  1  0
 27 49  1  0
 30 50  1  0
 30 51  1  0
 30 52  1  0
M  END
$$$$
