
     RDKit          3D

 57 62  0  0  0  0  0  0  0  0999 V2000
   -6.3620    1.6488    0.1393 C   0  0  0  0  0  0  0  0  0  0  0  0
   -5.1081    2.4773    0.1498 C   0  0  0  0  0  0  0  0  0  0  0  0
   -4.0489    1.7696    0.9662 C   0  0  0  0  0  0  0  0  0  0  0  0
   -3.7286    0.4297    0.3990 C   0  0  0  0  0  0  0  0  0  0  0  0
   -4.2852   -0.1349   -0.7140 N   0  0  0  0  0  0  0  0  0  0  0  0
   -3.7327   -1.3574   -0.8945 C   0  0  0  0  0  0  0  0  0  0  0  0
   -3.9298   -2.3318   -1.8476 C   0  0  0  0  0  0  0  0  0  0  0  0
   -4.8939   -2.1773   -2.9611 C   0  0  0  0  0  0  0  0  0  0  0  0
   -3.1961   -3.4899   -1.7521 C   0  0  0  0  0  0  0  0  0  0  0  0
   -2.2975   -3.5908   -0.6848 C   0  0  0  0  0  0  0  0  0  0  0  0
   -2.1272   -2.6288    0.2251 N   0  0  0  0  0  0  0  0  0  0  0  0
   -2.8331   -1.5053    0.1400 C   0  0  0  0  0  0  0  0  0  0  0  0
   -2.8288   -0.4014    0.9413 N   0  0  0  0  0  0  0  0  0  0  0  0
   -1.9918   -0.2481    2.1227 C   0  0  0  0  0  0  0  0  0  0  0  0
   -0.6751    0.3543    1.8377 C   0  0  0  0  0  0  0  0  0  0  0  0
   -0.4479    1.6984    2.0035 C   0  0  0  0  0  0  0  0  0  0  0  0
    0.7782    2.2477    1.7260 C   0  0  0  0  0  0  0  0  0  0  0  0
    1.8315    1.4355    1.2636 C   0  0  0  0  0  0  0  0  0  0  0  0
    1.6124    0.1152    1.1000 C   0  0  0  0  0  0  0  0  0  0  0  0
    0.3585   -0.4163    1.3889 C   0  0  0  0  0  0  0  0  0  0  0  0
    3.0376   -0.7795    0.5095 S   0  0  0  0  0  0  0  0  0  0  0  0
    4.3747    0.4261    0.5928 C   0  0  0  0  0  0  0  0  0  0  0  0
    5.1074    0.3906   -0.6868 C   0  0  0  0  0  0  0  0  0  0  0  0
    5.6300   -0.7972   -1.1431 C   0  0  0  0  0  0  0  0  0  0  0  0
    6.3155   -0.8281   -2.3415 C   0  0  0  0  0  0  0  0  0  0  0  0
    6.4751    0.3292   -3.0782 C   0  0  0  0  0  0  0  0  0  0  0  0
    5.9516    1.5197   -2.6213 C   0  0  0  0  0  0  0  0  0  0  0  0
    5.2641    1.5379   -1.4144 C   0  0  0  0  0  0  0  0  0  0  0  0
    5.2907    0.1024    1.7202 C   0  0  0  0  0  0  0  0  0  0  0  0
    6.3343    0.8320    2.1003 N   0  0  0  0  0  0  0  0  0  0  0  0
    6.8843    0.2140    3.1264 N   0  0  0  0  0  0  0  0  0  0  0  0
    6.1944   -0.8752    3.3749 N   0  0  0  0  0  0  0  0  0  0  0  0
    5.2065   -0.9745    2.5278 N   0  0  0  0  0  0  0  0  0  0  0  0
    3.4856    1.9592    0.8455 S   0  0  0  0  0  0  0  0  0  0  0  0
   -6.7453    1.6538   -0.9107 H   0  0  0  0  0  0  0  0  0  0  0  0
   -7.1231    2.1985    0.7393 H   0  0  0  0  0  0  0  0  0  0  0  0
   -6.2067    0.6213    0.5104 H   0  0  0  0  0  0  0  0  0  0  0  0
   -4.6837    2.6360   -0.8615 H   0  0  0  0  0  0  0  0  0  0  0  0
   -5.2650    3.4692    0.6536 H   0  0  0  0  0  0  0  0  0  0  0  0
   -4.4179    1.7075    2.0086 H   0  0  0  0  0  0  0  0  0  0  0  0
   -3.1104    2.3509    0.9202 H   0  0  0  0  0  0  0  0  0  0  0  0
   -4.4252   -1.4648   -3.7007 H   0  0  0  0  0  0  0  0  0  0  0  0
   -5.0937   -3.1124   -3.4795 H   0  0  0  0  0  0  0  0  0  0  0  0
   -5.8186   -1.6524   -2.6292 H   0  0  0  0  0  0  0  0  0  0  0  0
   -3.2686   -4.3194   -2.4422 H   0  0  0  0  0  0  0  0  0  0  0  0
   -1.6941   -4.4845   -0.5628 H   0  0  0  0  0  0  0  0  0  0  0  0
   -1.8634   -1.2047    2.6625 H   0  0  0  0  0  0  0  0  0  0  0  0
   -2.4925    0.4409    2.8668 H   0  0  0  0  0  0  0  0  0  0  0  0
   -1.2371    2.3766    2.3683 H   0  0  0  0  0  0  0  0  0  0  0  0
    0.9281    3.3094    1.8658 H   0  0  0  0  0  0  0  0  0  0  0  0
    0.1985   -1.4734    1.2541 H   0  0  0  0  0  0  0  0  0  0  0  0
    5.5236   -1.7226   -0.5921 H   0  0  0  0  0  0  0  0  0  0  0  0
    6.7231   -1.7552   -2.6957 H   0  0  0  0  0  0  0  0  0  0  0  0
    7.0175    0.2863   -4.0207 H   0  0  0  0  0  0  0  0  0  0  0  0
    6.0829    2.4210   -3.2064 H   0  0  0  0  0  0  0  0  0  0  0  0
    4.8497    2.4619   -1.0463 H   0  0  0  0  0  0  0  0  0  0  0  0
    4.4767   -1.6953    2.4350 H   0  0  0  0  0  0  0  0  0  0  0  0
  1  2  1  0
  2  3  1  0
  3  4  1  0
  4  5  2  0
  5  6  1  0
  6  7  2  0
  7  8  1  0
  7  9  1  0
  9 10  2  0
 10 11  1  0
 11 12  2  0
 12 13  1  0
 13 14  1  0
 14 15  1  0
 15 16  2  0
 16 17  1  0
 17 18  2  0
 18 19  1  0
 19 20  2  0
 19 21  1  0
 21 22  1  0
 22 23  1  0
 23 24  2  0
 24 25  1  0
 25 26  2  0
 26 27  1  0
 27 28  2  0
 22 29  1  0
 29 30  2  0
 30 31  1  0
 31 32  2  0
 32 33  1  0
 22 34  1  0
 13  4  1  0
 20 15  1  0
 28 23  1  0
 33 29  1  0
 12  6  1  0
 34 18  1  0
  1 35  1  0
  1 36  1  0
  1 37  1  0
  2 38  1  0
  2 39  1  0
  3 40  1  0
  3 41  1  0
  8 42  1  0
  8 43  1  0
  8 44  1  0
  9 45  1  0
 10 46  1  0
 14 47  1  0
 14 48  1  0
 16 49  1  0
 17 50  1  0
 20 51  1  0
 24 52  1  0
 25 53  1  0
 26 54  1  0
 27 55  1  0
 28 56  1  0
 33 57  1  0
M  END
$$$$
