@<TRIPOS>MOLECULE
*****
 57 62 0 0 0
SMALL
GASTEIGER

@<TRIPOS>ATOM
      1 C          -6.3620    1.6488    0.1393 C.3     1  UNL1       -0.0649
      2 C          -5.1081    2.4773    0.1498 C.3     1  UNL1       -0.0491
      3 C          -4.0489    1.7696    0.9662 C.3     1  UNL1        0.0054
      4 C          -3.7286    0.4297    0.3990 C.ar    1  UNL1        0.1122
      5 N          -4.2852   -0.1349   -0.7140 N.ar    1  UNL1       -0.2304
      6 C          -3.7327   -1.3574   -0.8945 C.ar    1  UNL1        0.1111
      7 C          -3.9298   -2.3318   -1.8476 C.ar    1  UNL1       -0.0200
      8 C          -4.8939   -2.1773   -2.9611 C.3     1  UNL1       -0.0375
      9 C          -3.1961   -3.4899   -1.7521 C.ar    1  UNL1       -0.0385
     10 C          -2.2975   -3.5908   -0.6848 C.ar    1  UNL1        0.0303
     11 N          -2.1272   -2.6288    0.2251 N.ar    1  UNL1       -0.2357
     12 C          -2.8331   -1.5053    0.1400 C.ar    1  UNL1        0.1610
     13 N          -2.8288   -0.4014    0.9413 N.ar    1  UNL1       -0.3081
     14 C          -1.9918   -0.2481    2.1227 C.3     1  UNL1        0.0513
     15 C          -0.6751    0.3543    1.8377 C.ar    1  UNL1       -0.0266
     16 C          -0.4479    1.6984    2.0035 C.ar    1  UNL1       -0.0558
     17 C           0.7782    2.2477    1.7260 C.ar    1  UNL1       -0.0469
     18 C           1.8315    1.4355    1.2636 C.ar    1  UNL1        0.0234
     19 C           1.6124    0.1152    1.1000 C.ar    1  UNL1        0.0237
     20 C           0.3585   -0.4163    1.3889 C.ar    1  UNL1       -0.0423
     21 S           3.0376   -0.7795    0.5095 S.3     1  UNL1       -0.0935
     22 C           4.3747    0.4261    0.5928 C.3     1  UNL1        0.1564
     23 C           5.1074    0.3906   -0.6868 C.ar    1  UNL1       -0.0135
     24 C           5.6300   -0.7972   -1.1431 C.ar    1  UNL1       -0.0560
     25 C           6.3155   -0.8281   -2.3415 C.ar    1  UNL1       -0.0614
     26 C           6.4751    0.3292   -3.0782 C.ar    1  UNL1       -0.0617
     27 C           5.9516    1.5197   -2.6213 C.ar    1  UNL1       -0.0614
     28 C           5.2641    1.5379   -1.4144 C.ar    1  UNL1       -0.0560
     29 C           5.2907    0.1024    1.7202 C.ar    1  UNL1        0.1799
     30 N           6.3343    0.8320    2.1003 N.ar    1  UNL1       -0.1109
     31 N           6.8843    0.2140    3.1264 N.ar    1  UNL1       -0.0231
     32 N           6.1944   -0.8752    3.3749 N.ar    1  UNL1       -0.0466
     33 N           5.2065   -0.9745    2.5278 N.ar    1  UNL1       -0.2406
     34 S           3.4856    1.9592    0.8455 S.3     1  UNL1       -0.0935
     35 H          -6.7453    1.6538   -0.9107 H       1  UNL1        0.0230
     36 H          -7.1231    2.1985    0.7393 H       1  UNL1        0.0230
     37 H          -6.2067    0.6213    0.5104 H       1  UNL1        0.0230
     38 H          -4.6837    2.6360   -0.8615 H       1  UNL1        0.0267
     39 H          -5.2650    3.4692    0.6536 H       1  UNL1        0.0267
     40 H          -4.4179    1.7075    2.0086 H       1  UNL1        0.0343
     41 H          -3.1104    2.3509    0.9202 H       1  UNL1        0.0343
     42 H          -4.4252   -1.4648   -3.7007 H       1  UNL1        0.0278
     43 H          -5.0937   -3.1124   -3.4795 H       1  UNL1        0.0278
     44 H          -5.8186   -1.6524   -2.6292 H       1  UNL1        0.0278
     45 H          -3.2686   -4.3194   -2.4422 H       1  UNL1        0.0636
     46 H          -1.6941   -4.4845   -0.5628 H       1  UNL1        0.0830
     47 H          -1.8634   -1.2047    2.6625 H       1  UNL1        0.0542
     48 H          -2.4925    0.4409    2.8668 H       1  UNL1        0.0542
     49 H          -1.2371    2.3766    2.3683 H       1  UNL1        0.0621
     50 H           0.9281    3.3094    1.8658 H       1  UNL1        0.0629
     51 H           0.1985   -1.4734    1.2541 H       1  UNL1        0.0632
     52 H           5.5236   -1.7226   -0.5921 H       1  UNL1        0.0621
     53 H           6.7231   -1.7552   -2.6957 H       1  UNL1        0.0618
     54 H           7.0175    0.2863   -4.0207 H       1  UNL1        0.0618
     55 H           6.0829    2.4210   -3.2064 H       1  UNL1        0.0618
     56 H           4.8497    2.4619   -1.0463 H       1  UNL1        0.0621
     57 H           4.4767   -1.6953    2.4350 H       1  UNL1        0.1921
@<TRIPOS>BOND
     1     1     2    1
     2     2     3    1
     3     3     4    1
     4     4     5   ar
     5     5     6   ar
     6     6     7   ar
     7     7     8    1
     8     7     9   ar
     9     9    10   ar
    10    10    11   ar
    11    11    12   ar
    12    12    13   ar
    13    13    14    1
    14    14    15    1
    15    15    16   ar
    16    16    17   ar
    17    17    18   ar
    18    18    19   ar
    19    19    20   ar
    20    19    21    1
    21    21    22    1
    22    22    23    1
    23    23    24   ar
    24    24    25   ar
    25    25    26   ar
    26    26    27   ar
    27    27    28   ar
    28    22    29    1
    29    29    30   ar
    30    30    31   ar
    31    31    32   ar
    32    32    33   ar
    33    22    34    1
    34    13     4   ar
    35    20    15   ar
    36    28    23   ar
    37    33    29   ar
    38    12     6   ar
    39    34    18    1
    40     1    35    1
    41     1    36    1
    42     1    37    1
    43     2    38    1
    44     2    39    1
    45     3    40    1
    46     3    41    1
    47     8    42    1
    48     8    43    1
    49     8    44    1
    50     9    45    1
    51    10    46    1
    52    14    47    1
    53    14    48    1
    54    16    49    1
    55    17    50    1
    56    20    51    1
    57    24    52    1
    58    25    53    1
    59    26    54    1
    60    27    55    1
    61    28    56    1
    62    33    57    1
