
     RDKit          3D

 57 61  0  0  0  0  0  0  0  0999 V2000
    0.9138   -0.5631    1.5244 C   0  0  0  0  0  0  0  0  0  0  0  0
    0.7441   -1.4249    0.3127 C   0  0  0  0  0  0  0  0  0  0  0  0
   -0.3038   -0.8216   -0.5706 C   0  0  0  0  0  0  0  0  0  0  0  0
   -0.1043   -0.5372   -1.7655 O   0  0  0  0  0  0  0  0  0  0  0  0
   -1.5790   -0.5701    0.0006 N   0  0  0  0  0  0  0  0  0  0  0  0
   -2.6774    0.0113   -0.7497 C   0  0  1  0  0  0  0  0  0  0  0  0
   -3.8360   -0.9506   -0.6826 C   0  0  0  0  0  0  0  0  0  0  0  0
   -4.1634   -1.2846    0.7534 C   0  0  0  0  0  0  0  0  0  0  0  0
   -4.4512   -0.0316    1.5470 C   0  0  0  0  0  0  0  0  0  0  0  0
   -3.3919    1.0139    1.4108 C   0  0  0  0  0  0  0  0  0  0  0  0
   -3.0917    1.2827   -0.0609 C   0  0  0  0  0  0  0  0  0  0  0  0
   -4.3507    1.8726   -0.6535 C   0  0  0  0  0  0  0  0  0  0  0  0
   -5.4764    0.8703   -0.4873 C   0  0  2  0  0  0  0  0  0  0  0  0
   -6.6623    1.4111   -1.0102 O   0  0  0  0  0  0  0  0  0  0  0  0
   -5.7413    0.5554    0.9595 C   0  0  0  0  0  0  0  0  0  0  0  0
   -5.0954   -0.3548   -1.2920 C   0  0  0  0  0  0  0  0  0  0  0  0
    1.9752   -1.6528   -0.4137 N   0  0  0  0  0  0  0  0  0  0  0  0
    2.6214   -0.4633   -0.9183 C   0  0  0  0  0  0  0  0  0  0  0  0
    3.9904   -1.0029   -0.4579 C   0  0  0  0  0  0  0  0  0  0  0  0
    4.7215    0.0011    0.0998 O   0  0  0  0  0  0  0  0  0  0  0  0
    6.0046    0.3469   -0.0914 C   0  0  0  0  0  0  0  0  0  0  0  0
    6.4906    1.4504    0.6396 C   0  0  0  0  0  0  0  0  0  0  0  0
    7.7822    1.8977    0.5291 C   0  0  0  0  0  0  0  0  0  0  0  0
    8.6692    1.2727   -0.3168 C   0  0  0  0  0  0  0  0  0  0  0  0
    8.2199    0.2041   -1.0327 C   0  0  0  0  0  0  0  0  0  0  0  0
    6.9124   -0.2436   -0.9166 C   0  0  0  0  0  0  0  0  0  0  0  0
    6.5065   -1.3255   -1.6595 F   0  0  0  0  0  0  0  0  0  0  0  0
    3.0944   -1.7904    0.4969 C   0  0  0  0  0  0  0  0  0  0  0  0
    1.0564   -1.1577    2.4587 H   0  0  0  0  0  0  0  0  0  0  0  0
    1.6892    0.2208    1.4326 H   0  0  0  0  0  0  0  0  0  0  0  0
   -0.0456   -0.0070    1.6851 H   0  0  0  0  0  0  0  0  0  0  0  0
    0.3229   -2.3935    0.6519 H   0  0  0  0  0  0  0  0  0  0  0  0
   -1.7870   -0.7963    1.0002 H   0  0  0  0  0  0  0  0  0  0  0  0
   -2.4044    0.2254   -1.7854 H   0  0  0  0  0  0  0  0  0  0  0  0
   -3.5504   -1.8713   -1.2100 H   0  0  0  0  0  0  0  0  0  0  0  0
   -3.4479   -1.9580    1.2289 H   0  0  0  0  0  0  0  0  0  0  0  0
   -5.1409   -1.8505    0.7175 H   0  0  0  0  0  0  0  0  0  0  0  0
   -4.5773   -0.2906    2.6047 H   0  0  0  0  0  0  0  0  0  0  0  0
   -2.4929    0.8343    2.0023 H   0  0  0  0  0  0  0  0  0  0  0  0
   -3.8392    1.9780    1.7913 H   0  0  0  0  0  0  0  0  0  0  0  0
   -2.2545    1.9996   -0.0927 H   0  0  0  0  0  0  0  0  0  0  0  0
   -4.5734    2.8037   -0.0942 H   0  0  0  0  0  0  0  0  0  0  0  0
   -4.2548    2.0512   -1.7469 H   0  0  0  0  0  0  0  0  0  0  0  0
   -7.3544    0.7039   -0.8830 H   0  0  0  0  0  0  0  0  0  0  0  0
   -6.5260   -0.2104    0.9983 H   0  0  0  0  0  0  0  0  0  0  0  0
   -5.9831    1.4906    1.4703 H   0  0  0  0  0  0  0  0  0  0  0  0
   -5.8794   -1.1367   -1.1977 H   0  0  0  0  0  0  0  0  0  0  0  0
   -4.9642   -0.0472   -2.3319 H   0  0  0  0  0  0  0  0  0  0  0  0
    2.3702    0.4915   -0.4632 H   0  0  0  0  0  0  0  0  0  0  0  0
    2.5837   -0.3834   -2.0229 H   0  0  0  0  0  0  0  0  0  0  0  0
    4.4307   -1.6990   -1.1959 H   0  0  0  0  0  0  0  0  0  0  0  0
    5.8412    1.9818    1.3200 H   0  0  0  0  0  0  0  0  0  0  0  0
    8.1270    2.7564    1.1103 H   0  0  0  0  0  0  0  0  0  0  0  0
    9.6950    1.6342   -0.3994 H   0  0  0  0  0  0  0  0  0  0  0  0
    8.8769   -0.3101   -1.7016 H   0  0  0  0  0  0  0  0  0  0  0  0
    2.9776   -1.3524    1.4987 H   0  0  0  0  0  0  0  0  0  0  0  0
    3.3832   -2.8801    0.5401 H   0  0  0  0  0  0  0  0  0  0  0  0
  1  2  1  0
  2  3  1  0
  3  4  2  0
  3  5  1  0
  5  6  1  0
  6  7  1  0
  7  8  1  0
  8  9  1  0
  9 10  1  0
 10 11  1  0
 11 12  1  0
 12 13  1  0
 13 14  1  6
 13 15  1  0
 13 16  1  0
  2 17  1  0
 17 18  1  0
 18 19  1  0
 19 20  1  0
 20 21  1  0
 21 22  2  0
 22 23  1  0
 23 24  2  0
 24 25  1  0
 25 26  2  0
 26 27  1  0
 19 28  1  0
 11  6  1  0
 28 17  1  0
 16  7  1  0
 26 21  1  0
 15  9  1  0
  1 29  1  0
  1 30  1  0
  1 31  1  0
  2 32  1  0
  5 33  1  0
  6 34  1  6
  7 35  1  0
  8 36  1  0
  8 37  1  0
  9 38  1  0
 10 39  1  0
 10 40  1  0
 11 41  1  0
 12 42  1  0
 12 43  1  0
 14 44  1  0
 15 45  1  0
 15 46  1  0
 16 47  1  0
 16 48  1  0
 18 49  1  0
 18 50  1  0
 19 51  1  0
 22 52  1  0
 23 53  1  0
 24 54  1  0
 25 55  1  0
 28 56  1  0
 28 57  1  0
M  END
$$$$
