@<TRIPOS>MOLECULE
*****
 57 61 0 0 0
SMALL
GASTEIGER

@<TRIPOS>ATOM
      1 C           0.9138   -0.5631    1.5244 C.3     1  UNL1       -0.0409
      2 C           0.7441   -1.4249    0.3127 C.3     1  UNL1        0.0846
      3 C          -0.3038   -0.8216   -0.5706 C.2     1  UNL1        0.2302
      4 O          -0.1043   -0.5372   -1.7655 O.2     1  UNL1       -0.2741
      5 N          -1.5790   -0.5701    0.0006 N.am    1  UNL1       -0.3106
      6 C          -2.6774    0.0113   -0.7497 C.3     1  UNL1        0.0290
      7 C          -3.8360   -0.9506   -0.6826 C.3     1  UNL1       -0.0195
      8 C          -4.1634   -1.2846    0.7534 C.3     1  UNL1       -0.0455
      9 C          -4.4512   -0.0316    1.5470 C.3     1  UNL1       -0.0378
     10 C          -3.3919    1.0139    1.4108 C.3     1  UNL1       -0.0455
     11 C          -3.0917    1.2827   -0.0609 C.3     1  UNL1       -0.0195
     12 C          -4.3507    1.8726   -0.6535 C.3     1  UNL1       -0.0195
     13 C          -5.4764    0.8703   -0.4873 C.3     1  UNL1        0.0670
     14 O          -6.6623    1.4111   -1.0102 O.3     1  UNL1       -0.3885
     15 C          -5.7413    0.5554    0.9595 C.3     1  UNL1       -0.0211
     16 C          -5.0954   -0.3548   -1.2920 C.3     1  UNL1       -0.0195
     17 N           1.9752   -1.6528   -0.4137 N.3     1  UNL1       -0.2846
     18 C           2.6214   -0.4633   -0.9183 C.3     1  UNL1        0.0380
     19 C           3.9904   -1.0029   -0.4579 C.3     1  UNL1        0.1256
     20 O           4.7215    0.0011    0.0998 O.3     1  UNL1       -0.4834
     21 C           6.0046    0.3469   -0.0914 C.ar    1  UNL1        0.1560
     22 C           6.4906    1.4504    0.6396 C.ar    1  UNL1       -0.0171
     23 C           7.7822    1.8977    0.5291 C.ar    1  UNL1       -0.0581
     24 C           8.6692    1.2727   -0.3168 C.ar    1  UNL1       -0.0588
     25 C           8.2199    0.2041   -1.0327 C.ar    1  UNL1       -0.0228
     26 C           6.9124   -0.2436   -0.9166 C.ar    1  UNL1        0.1648
     27 F           6.5065   -1.3255   -1.6595 F       1  UNL1       -0.2017
     28 C           3.0944   -1.7904    0.4969 C.3     1  UNL1        0.0380
     29 H           1.0564   -1.1577    2.4587 H       1  UNL1        0.0249
     30 H           1.6892    0.2208    1.4326 H       1  UNL1        0.0249
     31 H          -0.0456   -0.0070    1.6851 H       1  UNL1        0.0249
     32 H           0.3229   -2.3935    0.6519 H       1  UNL1        0.0556
     33 H          -1.7870   -0.7963    1.0002 H       1  UNL1        0.1490
     34 H          -2.4044    0.2254   -1.7854 H       1  UNL1        0.0504
     35 H          -3.5504   -1.8713   -1.2100 H       1  UNL1        0.0320
     36 H          -3.4479   -1.9580    1.2289 H       1  UNL1        0.0271
     37 H          -5.1409   -1.8505    0.7175 H       1  UNL1        0.0271
     38 H          -4.5773   -0.2906    2.6047 H       1  UNL1        0.0302
     39 H          -2.4929    0.8343    2.0023 H       1  UNL1        0.0271
     40 H          -3.8392    1.9780    1.7913 H       1  UNL1        0.0271
     41 H          -2.2545    1.9996   -0.0927 H       1  UNL1        0.0320
     42 H          -4.5734    2.8037   -0.0942 H       1  UNL1        0.0296
     43 H          -4.2548    2.0512   -1.7469 H       1  UNL1        0.0296
     44 H          -7.3544    0.7039   -0.8830 H       1  UNL1        0.2102
     45 H          -6.5260   -0.2104    0.9983 H       1  UNL1        0.0296
     46 H          -5.9831    1.4906    1.4703 H       1  UNL1        0.0296
     47 H          -5.8794   -1.1367   -1.1977 H       1  UNL1        0.0296
     48 H          -4.9642   -0.0472   -2.3319 H       1  UNL1        0.0296
     49 H           2.3702    0.4915   -0.4632 H       1  UNL1        0.0463
     50 H           2.5837   -0.3834   -2.0229 H       1  UNL1        0.0463
     51 H           4.4307   -1.6990   -1.1959 H       1  UNL1        0.0759
     52 H           5.8412    1.9818    1.3200 H       1  UNL1        0.0655
     53 H           8.1270    2.7564    1.1103 H       1  UNL1        0.0619
     54 H           9.6950    1.6342   -0.3994 H       1  UNL1        0.0618
     55 H           8.8769   -0.3101   -1.7016 H       1  UNL1        0.0647
     56 H           2.9776   -1.3524    1.4987 H       1  UNL1        0.0463
     57 H           3.3832   -2.8801    0.5401 H       1  UNL1        0.0463
@<TRIPOS>BOND
     1     1     2    1
     2     2     3    1
     3     3     4    2
     4     3     5   am
     5     5     6    1
     6     6     7    1
     7     7     8    1
     8     8     9    1
     9     9    10    1
    10    10    11    1
    11    11    12    1
    12    12    13    1
    13    13    14    1
    14    13    15    1
    15    13    16    1
    16     2    17    1
    17    17    18    1
    18    18    19    1
    19    19    20    1
    20    20    21    1
    21    21    22   ar
    22    22    23   ar
    23    23    24   ar
    24    24    25   ar
    25    25    26   ar
    26    26    27    1
    27    19    28    1
    28    11     6    1
    29    28    17    1
    30    16     7    1
    31    26    21   ar
    32    15     9    1
    33     1    29    1
    34     1    30    1
    35     1    31    1
    36     2    32    1
    37     5    33    1
    38     6    34    1
    39     7    35    1
    40     8    36    1
    41     8    37    1
    42     9    38    1
    43    10    39    1
    44    10    40    1
    45    11    41    1
    46    12    42    1
    47    12    43    1
    48    14    44    1
    49    15    45    1
    50    15    46    1
    51    16    47    1
    52    16    48    1
    53    18    49    1
    54    18    50    1
    55    19    51    1
    56    22    52    1
    57    23    53    1
    58    24    54    1
    59    25    55    1
    60    28    56    1
    61    28    57    1
