@<TRIPOS>MOLECULE
*****
 69 72 0 0 0
SMALL
GASTEIGER

@<TRIPOS>ATOM
      1 C           1.4161    4.0162    2.2035 C.3     1  UNL1       -0.0633
      2 C           0.3499    2.9672    2.0040 C.3     1  UNL1       -0.0329
      3 C           0.5153    2.2303    0.7194 C.3     1  UNL1        0.0540
      4 C           1.7802    1.4929    0.5662 C.ar    1  UNL1       -0.0269
      5 C           2.7809    1.3845    1.4761 C.ar    1  UNL1       -0.0562
      6 C           3.9351    0.6488    1.1788 C.ar    1  UNL1       -0.0537
      7 C           4.1076    0.0110   -0.0291 C.ar    1  UNL1       -0.0177
      8 C           5.3325   -0.7391   -0.2804 C.ar    1  UNL1       -0.0114
      9 C           6.5437   -0.3626    0.2717 C.ar    1  UNL1       -0.0376
     10 C           7.6940   -1.0788    0.0274 C.ar    1  UNL1        0.0082
     11 N           7.6939   -2.1760   -0.7580 N.ar    1  UNL1       -0.3182
     12 C           8.9045   -2.9328   -1.0184 C.3     1  UNL1        0.0147
     13 C           6.5159   -2.5521   -1.3019 C.ar    1  UNL1        0.2516
     14 O           6.5011   -3.5874   -2.0463 O.2     1  UNL1       -0.2677
     15 C           5.3446   -1.8614   -1.0808 C.ar    1  UNL1        0.0107
     16 C           3.0894    0.1247   -0.9469 C.ar    1  UNL1       -0.0537
     17 C           1.9503    0.8466   -0.6630 C.ar    1  UNL1       -0.0562
     18 N          -0.5910    1.4090    0.3415 N.am    1  UNL1       -0.2602
     19 C          -1.4041    1.6639   -0.8326 C.3     1  UNL1        0.0224
     20 C          -2.8408    1.5728   -0.3572 C.3     1  UNL1        0.0076
     21 C          -3.2071    0.1095   -0.0236 C.3     1  UNL1        0.1440
     22 C          -3.5460   -0.5370   -1.3104 C.3     1  UNL1        0.0199
     23 C          -3.9182   -1.9567   -1.3244 C.3     1  UNL1        0.0645
     24 C          -5.0943   -2.4081   -0.5516 C.3     1  UNL1       -0.0362
     25 C          -4.1884   -2.3356   -2.7914 C.3     1  UNL1       -0.0362
     26 O          -2.8241   -2.7706   -0.9405 O.3     1  UNL1       -0.3890
     27 C          -4.3489    0.2586    0.9265 C.ar    1  UNL1       -0.0040
     28 C          -5.6427    0.4129    0.5317 C.ar    1  UNL1       -0.0548
     29 C          -6.6492    0.5460    1.4537 C.ar    1  UNL1       -0.0614
     30 C          -6.3371    0.5220    2.7966 C.ar    1  UNL1       -0.0617
     31 C          -5.0399    0.3677    3.2366 C.ar    1  UNL1       -0.0614
     32 C          -4.0578    0.2371    2.2669 C.ar    1  UNL1       -0.0548
     33 O          -2.1021   -0.4422    0.6293 O.3     1  UNL1       -0.4387
     34 C          -0.9985    0.2509    1.0997 C.2     1  UNL1        0.4042
     35 O          -0.3510   -0.0611    2.1178 O.2     1  UNL1       -0.2262
     36 H           2.1358    3.9213    1.3552 H       1  UNL1        0.0230
     37 H           1.9064    3.9756    3.1973 H       1  UNL1        0.0230
     38 H           0.9698    5.0451    2.0459 H       1  UNL1        0.0230
     39 H           0.2497    2.3005    2.8875 H       1  UNL1        0.0284
     40 H          -0.6280    3.4996    1.9455 H       1  UNL1        0.0284
     41 H           0.5676    3.0458   -0.0769 H       1  UNL1        0.0551
     42 H           2.6713    1.8619    2.4170 H       1  UNL1        0.0621
     43 H           4.7123    0.5810    1.9213 H       1  UNL1        0.0624
     44 H           6.5537    0.5156    0.9026 H       1  UNL1        0.0638
     45 H           8.6267   -0.7390    0.4881 H       1  UNL1        0.0810
     46 H           8.5969   -3.9184   -1.4190 H       1  UNL1        0.0457
     47 H           9.5295   -3.0557   -0.1202 H       1  UNL1        0.0457
     48 H           9.5498   -2.3759   -1.7560 H       1  UNL1        0.0457
     49 H           4.4200   -2.1840   -1.5275 H       1  UNL1        0.0678
     50 H           3.2012   -0.3711   -1.9107 H       1  UNL1        0.0624
     51 H           1.2008    0.8841   -1.4402 H       1  UNL1        0.0621
     52 H          -1.1845    0.9791   -1.6630 H       1  UNL1        0.0467
     53 H          -1.2432    2.6878   -1.1759 H       1  UNL1        0.0467
     54 H          -2.9070    2.1352    0.5739 H       1  UNL1        0.0322
     55 H          -3.5699    1.9063   -1.0977 H       1  UNL1        0.0322
     56 H          -4.2826    0.1323   -1.8357 H       1  UNL1        0.0335
     57 H          -2.6228   -0.4346   -1.9576 H       1  UNL1        0.0335
     58 H          -4.9865   -2.3772    0.5542 H       1  UNL1        0.0257
     59 H          -5.1834   -3.5254   -0.7574 H       1  UNL1        0.0257
     60 H          -6.0747   -2.0239   -0.9148 H       1  UNL1        0.0257
     61 H          -4.6916   -1.4495   -3.2700 H       1  UNL1        0.0257
     62 H          -4.8182   -3.2320   -2.8470 H       1  UNL1        0.0257
     63 H          -3.1973   -2.4487   -3.2620 H       1  UNL1        0.0257
     64 H          -2.2246   -2.8073   -1.7207 H       1  UNL1        0.2101
     65 H          -5.8957    0.4329   -0.5079 H       1  UNL1        0.0622
     66 H          -7.7035    0.6718    1.1329 H       1  UNL1        0.0618
     67 H          -7.1618    0.6307    3.5199 H       1  UNL1        0.0618
     68 H          -4.7883    0.3483    4.3087 H       1  UNL1        0.0618
     69 H          -3.0416    0.1169    2.6545 H       1  UNL1        0.0622
@<TRIPOS>BOND
     1     1     2    1
     2     2     3    1
     3     3     4    1
     4     4     5   ar
     5     5     6   ar
     6     6     7   ar
     7     7     8    1
     8     8     9   ar
     9     9    10   ar
    10    10    11   ar
    11    11    12    1
    12    11    13   ar
    13    13    14    2
    14    13    15   ar
    15     7    16   ar
    16    16    17   ar
    17     3    18    1
    18    18    19    1
    19    19    20    1
    20    20    21    1
    21    21    22    1
    22    22    23    1
    23    23    24    1
    24    23    25    1
    25    23    26    1
    26    21    27    1
    27    27    28   ar
    28    28    29   ar
    29    29    30   ar
    30    30    31   ar
    31    31    32   ar
    32    21    33    1
    33    33    34    1
    34    34    35    2
    35    17     4   ar
    36    34    18   am
    37    15     8   ar
    38    32    27   ar
    39     1    36    1
    40     1    37    1
    41     1    38    1
    42     2    39    1
    43     2    40    1
    44     3    41    1
    45     5    42    1
    46     6    43    1
    47     9    44    1
    48    10    45    1
    49    12    46    1
    50    12    47    1
    51    12    48    1
    52    15    49    1
    53    16    50    1
    54    17    51    1
    55    19    52    1
    56    19    53    1
    57    20    54    1
    58    20    55    1
    59    22    56    1
    60    22    57    1
    61    24    58    1
    62    24    59    1
    63    24    60    1
    64    25    61    1
    65    25    62    1
    66    25    63    1
    67    26    64    1
    68    28    65    1
    69    29    66    1
    70    30    67    1
    71    31    68    1
    72    32    69    1
