@<TRIPOS>MOLECULE
*****
 61 60 0 0 0
SMALL
GASTEIGER

@<TRIPOS>ATOM
      1 C1          8.8114   -0.1732   -0.8063 C.3     1  <1>         0.1127
      2 N1         10.2216   -0.5184   -0.5674 N.3     1  <1>        -0.3177
      3 C2          8.0846   -1.4791   -0.8903 C.3     1  <1>         0.0265
      4 S1          6.3376   -1.2503   -1.1751 S.3     1  <1>        -0.0861
      5 C3          5.4716   -0.6434    0.2489 C.2     1  <1>         0.1894
      6 O1          4.9533   -0.2235    1.2873 O.2     1  <1>        -0.2852
      7 C4          4.0153   -0.4799   -0.1682 C.3     1  <1>         0.0162
      8 C5          3.2284    0.1020    0.9510 C.3     1  <1>        -0.0455
      9 C6          1.7598    0.2891    0.5197 C.3     1  <1>        -0.0526
     10 C7          1.1828   -1.0344    0.2033 C.3     1  <1>        -0.0530
     11 C8         -0.2221   -1.1672   -0.2176 C.3     1  <1>        -0.0531
     12 C9         -1.2896   -0.9168    0.7563 C.3     1  <1>        -0.0531
     13 C10        -1.3383    0.4081    1.3789 C.3     1  <1>        -0.0531
     14 C11        -2.6028    0.5076    2.2589 C.3     1  <1>        -0.0531
     15 C12        -3.8063    0.3312    1.3881 C.3     1  <1>        -0.0531
     16 C13        -3.8766    1.3556    0.2855 C.3     1  <1>        -0.0531
     17 C14        -5.0805    1.1108   -0.5590 C.3     1  <1>        -0.0531
     18 C15        -6.3304    1.2069    0.2336 C.3     1  <1>        -0.0531
     19 C16        -7.5286    0.9968   -0.6402 C.3     1  <1>        -0.0533
     20 C17        -7.5038   -0.3628   -1.2879 C.3     1  <1>        -0.0559
     21 C18        -8.7984   -0.4290   -2.1222 C.3     1  <1>        -0.0653
     22 C19         8.3389    0.7188    0.2436 C.2     1  <1>         0.3225
     23 O2          9.0298    0.9923    1.4082 O.3     1  <1>        -0.4795
     24 O3          7.2882    1.3932    0.3377 O.2     1  <1>        -0.2492
     25 H1          8.7426    0.2949   -1.8164 H       1  <1>         0.0582
     26 H2         10.3125   -1.3104    0.0897 H       1  <1>         0.1190
     27 H3         10.6649   -0.6940   -1.4970 H       1  <1>         0.1190
     28 H4          8.5197   -2.1361   -1.6915 H       1  <1>         0.0401
     29 H5          8.2213   -1.9969    0.1137 H       1  <1>         0.0401
     30 H6          3.6543   -1.4335   -0.5785 H       1  <1>         0.0350
     31 H7          3.9863    0.2464   -1.0297 H       1  <1>         0.0350
     32 H8          3.1541   -0.6534    1.7810 H       1  <1>         0.0270
     33 H9          3.6290    1.0793    1.3037 H       1  <1>         0.0270
     34 H10         1.8164    0.8438   -0.4841 H       1  <1>         0.0265
     35 H11         1.2694    0.9131    1.2454 H       1  <1>         0.0265
     36 H12         1.8060   -1.5774   -0.5824 H       1  <1>         0.0265
     37 H13         1.4078   -1.6813    1.1201 H       1  <1>         0.0265
     38 H14        -0.4075   -0.4455   -1.1136 H       1  <1>         0.0265
     39 H15        -0.3881   -2.1679   -0.7523 H       1  <1>         0.0265
     40 H16        -1.0899   -1.6609    1.6152 H       1  <1>         0.0265
     41 H17        -2.2971   -1.2545    0.3523 H       1  <1>         0.0265
     42 H18        -0.4801    0.5235    2.1307 H       1  <1>         0.0265
     43 H19        -1.2659    1.2762    0.7154 H       1  <1>         0.0265
     44 H20        -2.4802   -0.3122    2.9933 H       1  <1>         0.0265
     45 H21        -2.5827    1.4601    2.7926 H       1  <1>         0.0265
     46 H22        -4.6876    0.4932    2.1055 H       1  <1>         0.0265
     47 H23        -3.9872   -0.6553    0.9811 H       1  <1>         0.0265
     48 H24        -3.8737    2.3696    0.7269 H       1  <1>         0.0265
     49 H25        -2.9693    1.3044   -0.3689 H       1  <1>         0.0265
     50 H26        -5.1010    1.8262   -1.4249 H       1  <1>         0.0265
     51 H27        -5.0381    0.0908   -1.0450 H       1  <1>         0.0265
     52 H28        -6.3216    0.4163    1.0306 H       1  <1>         0.0265
     53 H29        -6.4228    2.1982    0.7536 H       1  <1>         0.0265
     54 H30        -8.4788    1.1784   -0.0883 H       1  <1>         0.0265
     55 H31        -7.5206    1.7317   -1.4902 H       1  <1>         0.0265
     56 H32        -6.6737   -0.3721   -2.0460 H       1  <1>         0.0263
     57 H33        -7.4297   -1.2015   -0.5853 H       1  <1>         0.0263
     58 H34        -8.9459    0.5693   -2.5494 H       1  <1>         0.0230
     59 H35        -8.5869   -1.1430   -2.9413 H       1  <1>         0.0230
     60 H36        -9.6397   -0.7449   -1.4831 H       1  <1>         0.0230
     61 H37         9.1380    1.8909    1.8371 H       1  <1>         0.2951
@<TRIPOS>BOND
     1     1     2    1
     2     1     3    1
     3     3     4    1
     4     4     5    1
     5     5     6    2
     6     5     7    1
     7     7     8    1
     8     8     9    1
     9     9    10    1
    10    10    11    1
    11    11    12    1
    12    12    13    1
    13    13    14    1
    14    14    15    1
    15    15    16    1
    16    16    17    1
    17    17    18    1
    18    18    19    1
    19    19    20    1
    20    20    21    1
    21     1    22    1
    22    22    23    1
    23    22    24    2
    24     1    25    1
    25     2    26    1
    26     2    27    1
    27     3    28    1
    28     3    29    1
    29     7    30    1
    30     7    31    1
    31     8    32    1
    32     8    33    1
    33     9    34    1
    34     9    35    1
    35    10    36    1
    36    10    37    1
    37    11    38    1
    38    11    39    1
    39    12    40    1
    40    12    41    1
    41    13    42    1
    42    13    43    1
    43    14    44    1
    44    14    45    1
    45    15    46    1
    46    15    47    1
    47    16    48    1
    48    16    49    1
    49    17    50    1
    50    17    51    1
    51    18    52    1
    52    18    53    1
    53    19    54    1
    54    19    55    1
    55    20    56    1
    56    20    57    1
    57    21    58    1
    58    21    59    1
    59    21    60    1
    60    23    61    1
