@<TRIPOS>MOLECULE
*****
 72 75 0 0 0
SMALL
GASTEIGER

@<TRIPOS>ATOM
      1 C           0.0377    3.5051   -0.9663 C.2     1  UNL1       -0.1020
      2 C          -1.0592    3.4254   -0.2895 C.2     1  UNL1       -0.0826
      3 C          -1.6039    2.2233    0.4208 C.3     1  UNL1        0.0152
      4 C          -1.9591    2.7853    1.8130 C.3     1  UNL1       -0.0536
      5 C          -0.5432    1.2524    0.6353 C.3     1  UNL1       -0.0039
      6 C          -0.3364    0.1587   -0.3742 C.3     1  UNL1        0.1102
      7 O           1.0525   -0.1096   -0.3848 O.3     1  UNL1       -0.4602
      8 C           1.9401    0.0534   -1.3956 C.2     1  UNL1        0.3177
      9 O           1.5632    0.5002   -2.4849 O.2     1  UNL1       -0.2499
     10 C           3.3556   -0.3117   -1.1635 C.3     1  UNL1        0.0957
     11 S           4.2409    0.9255   -0.2062 S.3     1  UNL1       -0.1123
     12 C           5.9112    0.3347    0.0533 C.ar    1  UNL1        0.0282
     13 C           6.2467   -0.4601    1.1443 C.ar    1  UNL1        0.0411
     14 N           7.5051   -0.9094    1.3576 N.ar    1  UNL1       -0.2603
     15 C           8.5231   -0.6117    0.5170 C.ar    1  UNL1        0.0482
     16 C           8.2317    0.1733   -0.5758 C.ar    1  UNL1        0.0440
     17 N           9.3071    0.4970   -1.4662 N.pl3   1  UNL1       -0.3568
     18 C           6.9506    0.6451   -0.8154 C.ar    1  UNL1       -0.0247
     19 C          -0.9731   -1.1466    0.0545 C.3     1  UNL1        0.0176
     20 C           0.0139   -1.9001    0.9638 C.3     1  UNL1       -0.0553
     21 C          -1.2644   -2.0817   -1.0835 C.3     1  UNL1       -0.0344
     22 C          -0.0894   -2.4199   -1.9484 C.3     1  UNL1       -0.0618
     23 C          -2.3566   -1.5526   -1.9609 C.3     1  UNL1       -0.0493
     24 C          -3.6093   -1.2066   -1.2513 C.3     1  UNL1       -0.0461
     25 C          -3.4411   -0.5618    0.0876 C.3     1  UNL1       -0.0138
     26 C          -4.5343   -1.2019    0.9821 C.3     1  UNL1       -0.0397
     27 C          -4.0414   -2.6188    1.1773 C.3     1  UNL1        0.0067
     28 C          -2.5695   -2.3751    1.3505 C.2     1  UNL1        0.1376
     29 O          -1.8550   -3.2171    1.8332 O.2     1  UNL1       -0.2971
     30 C          -2.2349   -1.0091    0.8472 C.3     1  UNL1        0.0324
     31 C          -3.7683    0.8757    0.0825 C.3     1  UNL1       -0.0107
     32 C          -4.6171    1.3138    1.2914 C.3     1  UNL1       -0.0595
     33 C          -2.8077    1.8834   -0.3421 C.3     1  UNL1        0.0672
     34 O          -2.4942    1.7734   -1.7165 O.3     1  UNL1       -0.3907
     35 H           0.3285    4.4339   -1.4383 H       1  UNL1        0.0532
     36 H           0.6961    2.6669   -1.0907 H       1  UNL1        0.0532
     37 H          -1.6964    4.3248   -0.2087 H       1  UNL1        0.0573
     38 H          -1.8472    1.9936    2.5739 H       1  UNL1        0.0239
     39 H          -2.8994    3.3238    1.8247 H       1  UNL1        0.0239
     40 H          -1.1715    3.5471    2.0999 H       1  UNL1        0.0239
     41 H          -0.5649    0.7689    1.6360 H       1  UNL1        0.0310
     42 H           0.4402    1.8176    0.7024 H       1  UNL1        0.0310
     43 H          -0.5870    0.4761   -1.4013 H       1  UNL1        0.0740
     44 H           3.8744   -0.5047   -2.1477 H       1  UNL1        0.0494
     45 H           3.4505   -1.2866   -0.6232 H       1  UNL1        0.0494
     46 H           5.5000   -0.7399    1.8557 H       1  UNL1        0.0841
     47 H           9.5402   -0.9722    0.6857 H       1  UNL1        0.0848
     48 H          10.2933    0.5842   -1.1172 H       1  UNL1        0.1424
     49 H           9.0866    0.6452   -2.4712 H       1  UNL1        0.1424
     50 H           6.7581    1.2561   -1.6801 H       1  UNL1        0.0648
     51 H           0.0816   -2.9616    0.6857 H       1  UNL1        0.0237
     52 H          -0.1925   -1.6834    2.0178 H       1  UNL1        0.0237
     53 H           1.0699   -1.5175    0.7974 H       1  UNL1        0.0237
     54 H          -1.5634   -3.0559   -0.5908 H       1  UNL1        0.0305
     55 H          -0.3724   -3.3863   -2.4732 H       1  UNL1        0.0233
     56 H           0.8483   -2.5970   -1.4238 H       1  UNL1        0.0233
     57 H          -0.0101   -1.6953   -2.7811 H       1  UNL1        0.0233
     58 H          -2.5881   -2.3805   -2.6987 H       1  UNL1        0.0268
     59 H          -1.9259   -0.7531   -2.5995 H       1  UNL1        0.0268
     60 H          -4.1658   -0.4601   -1.8942 H       1  UNL1        0.0271
     61 H          -4.2811   -2.0966   -1.2497 H       1  UNL1        0.0271
     62 H          -4.4681   -0.7479    2.0097 H       1  UNL1        0.0275
     63 H          -5.5183   -1.1419    0.5237 H       1  UNL1        0.0275
     64 H          -4.2847   -3.3070    0.3758 H       1  UNL1        0.0342
     65 H          -4.4911   -2.9922    2.1309 H       1  UNL1        0.0342
     66 H          -2.1757   -0.3915    1.7503 H       1  UNL1        0.0389
     67 H          -4.5783    0.9413   -0.7342 H       1  UNL1        0.0329
     68 H          -4.9338    2.3652    1.0179 H       1  UNL1        0.0233
     69 H          -4.0970    1.2449    2.2346 H       1  UNL1        0.0233
     70 H          -5.5900    0.7577    1.2716 H       1  UNL1        0.0233
     71 H          -3.4191    2.8508   -0.3441 H       1  UNL1        0.0604
     72 H          -3.2670    2.0408   -2.2810 H       1  UNL1        0.2098
@<TRIPOS>BOND
     1     1     2    2
     2     2     3    1
     3     3     4    1
     4     3     5    1
     5     5     6    1
     6     6     7    1
     7     7     8    1
     8     8     9    2
     9     8    10    1
    10    10    11    1
    11    11    12    1
    12    12    13   ar
    13    13    14   ar
    14    14    15   ar
    15    15    16   ar
    16    16    17    1
    17    16    18   ar
    18     6    19    1
    19    19    20    1
    20    19    21    1
    21    21    22    1
    22    21    23    1
    23    23    24    1
    24    25    24    1
    25    25    26    1
    26    26    27    1
    27    27    28    1
    28    28    29    2
    29    28    30    1
    30    25    31    1
    31    31    32    1
    32    31    33    1
    33    33    34    1
    34    33     3    1
    35    18    12   ar
    36    30    19    1
    37    30    25    1
    38     1    35    1
    39     1    36    1
    40     2    37    1
    41     4    38    1
    42     4    39    1
    43     4    40    1
    44     5    41    1
    45     5    42    1
    46     6    43    1
    47    10    44    1
    48    10    45    1
    49    13    46    1
    50    15    47    1
    51    17    48    1
    52    17    49    1
    53    18    50    1
    54    20    51    1
    55    20    52    1
    56    20    53    1
    57    21    54    1
    58    22    55    1
    59    22    56    1
    60    22    57    1
    61    23    58    1
    62    23    59    1
    63    24    60    1
    64    24    61    1
    65    26    62    1
    66    26    63    1
    67    27    64    1
    68    27    65    1
    69    30    66    1
    70    31    67    1
    71    32    68    1
    72    32    69    1
    73    32    70    1
    74    33    71    1
    75    34    72    1
