
     RDKit          3D

 72 75  0  0  0  0  0  0  0  0999 V2000
    0.0377    3.5051   -0.9663 C   0  0  0  0  0  0  0  0  0  0  0  0
   -1.0592    3.4254   -0.2895 C   0  0  0  0  0  0  0  0  0  0  0  0
   -1.6039    2.2233    0.4208 C   0  0  2  0  0  0  0  0  0  0  0  0
   -1.9591    2.7853    1.8130 C   0  0  0  0  0  0  0  0  0  0  0  0
   -0.5432    1.2524    0.6353 C   0  0  0  0  0  0  0  0  0  0  0  0
   -0.3364    0.1587   -0.3742 C   0  0  1  0  0  0  0  0  0  0  0  0
    1.0525   -0.1096   -0.3848 O   0  0  0  0  0  0  0  0  0  0  0  0
    1.9401    0.0534   -1.3956 C   0  0  0  0  0  0  0  0  0  0  0  0
    1.5632    0.5002   -2.4849 O   0  0  0  0  0  0  0  0  0  0  0  0
    3.3556   -0.3117   -1.1635 C   0  0  0  0  0  0  0  0  0  0  0  0
    4.2409    0.9255   -0.2062 S   0  0  0  0  0  0  0  0  0  0  0  0
    5.9112    0.3347    0.0533 C   0  0  0  0  0  0  0  0  0  0  0  0
    6.2467   -0.4601    1.1443 C   0  0  0  0  0  0  0  0  0  0  0  0
    7.5051   -0.9094    1.3576 N   0  0  0  0  0  0  0  0  0  0  0  0
    8.5231   -0.6117    0.5170 C   0  0  0  0  0  0  0  0  0  0  0  0
    8.2317    0.1733   -0.5758 C   0  0  0  0  0  0  0  0  0  0  0  0
    9.3071    0.4970   -1.4662 N   0  0  0  0  0  0  0  0  0  0  0  0
    6.9506    0.6451   -0.8154 C   0  0  0  0  0  0  0  0  0  0  0  0
   -0.9731   -1.1466    0.0545 C   0  0  2  0  0  0  0  0  0  0  0  0
    0.0139   -1.9001    0.9638 C   0  0  0  0  0  0  0  0  0  0  0  0
   -1.2644   -2.0817   -1.0835 C   0  0  2  0  0  0  0  0  0  0  0  0
   -0.0894   -2.4199   -1.9484 C   0  0  0  0  0  0  0  0  0  0  0  0
   -2.3566   -1.5526   -1.9609 C   0  0  0  0  0  0  0  0  0  0  0  0
   -3.6093   -1.2066   -1.2513 C   0  0  0  0  0  0  0  0  0  0  0  0
   -3.4411   -0.5618    0.0876 C   0  0  1  0  0  0  0  0  0  0  0  0
   -4.5343   -1.2019    0.9821 C   0  0  0  0  0  0  0  0  0  0  0  0
   -4.0414   -2.6188    1.1773 C   0  0  0  0  0  0  0  0  0  0  0  0
   -2.5695   -2.3751    1.3505 C   0  0  0  0  0  0  0  0  0  0  0  0
   -1.8550   -3.2171    1.8332 O   0  0  0  0  0  0  0  0  0  0  0  0
   -2.2349   -1.0091    0.8472 C   0  0  1  0  0  0  0  0  0  0  0  0
   -3.7683    0.8757    0.0825 C   0  0  1  0  0  0  0  0  0  0  0  0
   -4.6171    1.3138    1.2914 C   0  0  0  0  0  0  0  0  0  0  0  0
   -2.8077    1.8834   -0.3421 C   0  0  2  0  0  0  0  0  0  0  0  0
   -2.4942    1.7734   -1.7165 O   0  0  0  0  0  0  0  0  0  0  0  0
    0.3285    4.4339   -1.4383 H   0  0  0  0  0  0  0  0  0  0  0  0
    0.6961    2.6669   -1.0907 H   0  0  0  0  0  0  0  0  0  0  0  0
   -1.6964    4.3248   -0.2087 H   0  0  0  0  0  0  0  0  0  0  0  0
   -1.8472    1.9936    2.5739 H   0  0  0  0  0  0  0  0  0  0  0  0
   -2.8994    3.3238    1.8247 H   0  0  0  0  0  0  0  0  0  0  0  0
   -1.1715    3.5471    2.0999 H   0  0  0  0  0  0  0  0  0  0  0  0
   -0.5649    0.7689    1.6360 H   0  0  0  0  0  0  0  0  0  0  0  0
    0.4402    1.8176    0.7024 H   0  0  0  0  0  0  0  0  0  0  0  0
   -0.5870    0.4761   -1.4013 H   0  0  0  0  0  0  0  0  0  0  0  0
    3.8744   -0.5047   -2.1477 H   0  0  0  0  0  0  0  0  0  0  0  0
    3.4505   -1.2866   -0.6232 H   0  0  0  0  0  0  0  0  0  0  0  0
    5.5000   -0.7399    1.8557 H   0  0  0  0  0  0  0  0  0  0  0  0
    9.5402   -0.9722    0.6857 H   0  0  0  0  0  0  0  0  0  0  0  0
   10.2933    0.5842   -1.1172 H   0  0  0  0  0  0  0  0  0  0  0  0
    9.0866    0.6452   -2.4712 H   0  0  0  0  0  0  0  0  0  0  0  0
    6.7581    1.2561   -1.6801 H   0  0  0  0  0  0  0  0  0  0  0  0
    0.0816   -2.9616    0.6857 H   0  0  0  0  0  0  0  0  0  0  0  0
   -0.1925   -1.6834    2.0178 H   0  0  0  0  0  0  0  0  0  0  0  0
    1.0699   -1.5175    0.7974 H   0  0  0  0  0  0  0  0  0  0  0  0
   -1.5634   -3.0559   -0.5908 H   0  0  0  0  0  0  0  0  0  0  0  0
   -0.3724   -3.3863   -2.4732 H   0  0  0  0  0  0  0  0  0  0  0  0
    0.8483   -2.5970   -1.4238 H   0  0  0  0  0  0  0  0  0  0  0  0
   -0.0101   -1.6953   -2.7811 H   0  0  0  0  0  0  0  0  0  0  0  0
   -2.5881   -2.3805   -2.6987 H   0  0  0  0  0  0  0  0  0  0  0  0
   -1.9259   -0.7531   -2.5995 H   0  0  0  0  0  0  0  0  0  0  0  0
   -4.1658   -0.4601   -1.8942 H   0  0  0  0  0  0  0  0  0  0  0  0
   -4.2811   -2.0966   -1.2497 H   0  0  0  0  0  0  0  0  0  0  0  0
   -4.4681   -0.7479    2.0097 H   0  0  0  0  0  0  0  0  0  0  0  0
   -5.5183   -1.1419    0.5237 H   0  0  0  0  0  0  0  0  0  0  0  0
   -4.2847   -3.3070    0.3758 H   0  0  0  0  0  0  0  0  0  0  0  0
   -4.4911   -2.9922    2.1309 H   0  0  0  0  0  0  0  0  0  0  0  0
   -2.1757   -0.3915    1.7503 H   0  0  0  0  0  0  0  0  0  0  0  0
   -4.5783    0.9413   -0.7342 H   0  0  0  0  0  0  0  0  0  0  0  0
   -4.9338    2.3652    1.0179 H   0  0  0  0  0  0  0  0  0  0  0  0
   -4.0970    1.2449    2.2346 H   0  0  0  0  0  0  0  0  0  0  0  0
   -5.5900    0.7577    1.2716 H   0  0  0  0  0  0  0  0  0  0  0  0
   -3.4191    2.8508   -0.3441 H   0  0  0  0  0  0  0  0  0  0  0  0
   -3.2670    2.0408   -2.2810 H   0  0  0  0  0  0  0  0  0  0  0  0
  1  2  2  3
  2  3  1  0
  3  4  1  1
  3  5  1  0
  5  6  1  0
  6  7  1  0
  7  8  1  0
  8  9  2  0
  8 10  1  0
 10 11  1  0
 11 12  1  0
 12 13  2  0
 13 14  1  0
 14 15  2  0
 15 16  1  0
 16 17  1  0
 16 18  2  0
  6 19  1  0
 19 20  1  1
 19 21  1  0
 21 22  1  0
 21 23  1  0
 23 24  1  0
 25 24  1  6
 25 26  1  0
 26 27  1  0
 27 28  1  0
 28 29  2  0
 28 30  1  0
 25 31  1  0
 31 32  1  0
 31 33  1  0
 33 34  1  0
 33  3  1  0
 18 12  1  0
 30 19  1  0
 30 25  1  0
  1 35  1  0
  1 36  1  0
  2 37  1  0
  4 38  1  0
  4 39  1  0
  4 40  1  0
  5 41  1  0
  5 42  1  0
  6 43  1  6
 10 44  1  0
 10 45  1  0
 13 46  1  0
 15 47  1  0
 17 48  1  0
 17 49  1  0
 18 50  1  0
 20 51  1  0
 20 52  1  0
 20 53  1  0
 21 54  1  1
 22 55  1  0
 22 56  1  0
 22 57  1  0
 23 58  1  0
 23 59  1  0
 24 60  1  0
 24 61  1  0
 26 62  1  0
 26 63  1  0
 27 64  1  0
 27 65  1  0
 30 66  1  1
 31 67  1  6
 32 68  1  0
 32 69  1  0
 32 70  1  0
 33 71  1  6
 34 72  1  0
M  END
$$$$
