@<TRIPOS>MOLECULE
*****
 23 23 0 0 0
SMALL
GASTEIGER

@<TRIPOS>ATOM
      1 N          -3.7550    0.5156   -1.0611 N.pl3   1  UNL1       -0.2907
      2 C          -2.6925    0.4500   -0.0905 C.2     1  UNL1        0.3748
      3 N          -2.7765    1.4374    0.9546 N.pl3   1  UNL1       -0.2907
      4 N          -2.1961   -0.5526   -0.7473 N.am    1  UNL1        0.0015
      5 C          -1.0090   -1.2324   -0.3556 C.2     1  UNL1        0.3621
      6 O          -1.0636   -2.4664   -0.1132 O.2     1  UNL1       -0.2465
      7 C           0.2816   -0.5657   -0.2191 C.ar    1  UNL1        0.1858
      8 C           1.3522   -1.3456    0.1684 C.ar    1  UNL1        0.1508
      9 N           1.2801   -2.7528    0.4428 N.pl3   1  UNL1       -0.3412
     10 N           2.5816   -0.7692    0.3105 N.ar    1  UNL1       -0.2127
     11 C           2.7312    0.5653    0.0676 C.ar    1  UNL1        0.1555
     12 N           4.0430    1.1195    0.2317 N.pl3   1  UNL1       -0.3407
     13 C           1.6353    1.3282   -0.3218 C.ar    1  UNL1        0.1695
     14 CL          1.9307    3.0239   -0.6082 Cl      1  UNL1       -0.0584
     15 N           0.4293    0.7503   -0.4587 N.ar    1  UNL1       -0.2221
     16 H          -4.1352    0.8123   -2.0074 H       1  UNL1        0.2545
     17 H          -4.7308    0.1269   -0.9681 H       1  UNL1        0.2545
     18 H          -3.4729    0.9548    1.5812 H       1  UNL1        0.2545
     19 H          -2.0895    1.9996    0.4163 H       1  UNL1        0.2545
     20 H           1.1883   -2.9310    1.4662 H       1  UNL1        0.1438
     21 H           1.3505   -3.1168   -0.5522 H       1  UNL1        0.1438
     22 H           4.7447    0.9479   -0.4942 H       1  UNL1        0.1438
     23 H           4.3728    1.7007    1.0413 H       1  UNL1        0.1438
@<TRIPOS>BOND
     1     1     2    1
     2     2     3    1
     3     2     4    2
     4     4     5    1
     5     5     6    2
     6     5     7    1
     7     7     8   ar
     8     8     9    1
     9     8    10   ar
    10    10    11   ar
    11    11    12    1
    12    11    13   ar
    13    13    14    1
    14    13    15   ar
    15    15     7   ar
    16     1    16    1
    17     1    17    1
    18     3    18    1
    19     3    19    1
    20     9    20    1
    21     9    21    1
    22    12    22    1
    23    12    23    1
