@<TRIPOS>MOLECULE
*****
 56 58 0 0 0
SMALL
GASTEIGER

@<TRIPOS>ATOM
      1 C          -1.5546   -1.9638   -1.9263 C.3     1  UNL1       -0.0466
      2 C          -0.9838   -1.6202   -0.5941 C.3     1  UNL1        0.0418
      3 C          -2.1136   -1.7324    0.4566 C.3     1  UNL1        0.0160
      4 N          -2.9299   -0.4961    0.2479 N.3     1  UNL1       -0.2986
      5 C          -4.1098   -0.7092    1.0636 C.3     1  UNL1        0.0129
      6 C          -5.2407    0.1611    0.6557 C.3     1  UNL1        0.0594
      7 C          -6.4544   -0.0412    1.5417 C.2     1  UNL1        0.2179
      8 N          -7.7269    0.2583    1.0744 N.am    1  UNL1       -0.3288
      9 O          -6.2533   -0.4933    2.7203 O.2     1  UNL1       -0.2754
     10 C          -5.1791    1.4616   -0.0337 C.3     1  UNL1       -0.0369
     11 C          -5.6097    0.2150   -0.8056 C.3     1  UNL1       -0.0369
     12 C          -2.2042    0.5984    0.9174 C.3     1  UNL1        0.0134
     13 C          -0.7158    0.3015    0.8054 C.3     1  UNL1        0.0336
     14 N          -0.4876   -0.3056   -0.4443 N.3     1  UNL1       -0.1714
     15 S           0.5477    0.3637   -1.5458 S.O2    1  UNL1        0.0612
     16 O           0.6398   -0.3776   -2.8551 O.2     1  UNL1       -0.1528
     17 O           0.1648    1.7972   -1.8991 O.2     1  UNL1       -0.1528
     18 C           2.1863    0.4320   -0.8894 C.ar    1  UNL1        0.1055
     19 C           2.6303    1.3718   -0.0275 C.ar    1  UNL1       -0.0350
     20 C           3.9306    1.3705    0.4170 C.ar    1  UNL1       -0.0537
     21 C           4.8593    0.4212    0.0180 C.ar    1  UNL1       -0.0077
     22 C           6.2707    0.3978    0.4700 C.3     1  UNL1        0.1828
     23 C           7.0134   -0.7773   -0.1202 C.3     1  UNL1       -0.0233
     24 O           6.3602    0.4033    1.8651 O.3     1  UNL1       -0.3758
     25 C           6.9514    1.6503   -0.0868 C.3     1  UNL1        0.4221
     26 F           6.8886    1.6616   -1.4613 F       1  UNL1       -0.1673
     27 F           8.3074    1.6246    0.2245 F       1  UNL1       -0.1673
     28 F           6.3394    2.7731    0.3899 F       1  UNL1       -0.1673
     29 C           4.3779   -0.5233   -0.8592 C.ar    1  UNL1       -0.0537
     30 C           3.0818   -0.5531   -1.3258 C.ar    1  UNL1       -0.0350
     31 H          -1.0533   -2.8501   -2.4051 H       1  UNL1        0.0246
     32 H          -2.6160   -2.2684   -1.8246 H       1  UNL1        0.0246
     33 H          -1.5679   -1.0958   -2.6322 H       1  UNL1        0.0246
     34 H          -0.1836   -2.3536   -0.3319 H       1  UNL1        0.0490
     35 H          -1.6692   -1.7695    1.4431 H       1  UNL1        0.0442
     36 H          -2.7601   -2.5670    0.1638 H       1  UNL1        0.0442
     37 H          -4.3768   -1.8010    1.0215 H       1  UNL1        0.0437
     38 H          -3.8566   -0.5591    2.1569 H       1  UNL1        0.0437
     39 H          -8.2821    1.1134    1.2822 H       1  UNL1        0.1449
     40 H          -8.2135   -0.4345    0.4353 H       1  UNL1        0.1449
     41 H          -4.3135    1.9667   -0.4450 H       1  UNL1        0.0276
     42 H          -6.0192    2.2102    0.1758 H       1  UNL1        0.0276
     43 H          -6.6840    0.1585   -1.0552 H       1  UNL1        0.0276
     44 H          -4.9435   -0.1945   -1.5805 H       1  UNL1        0.0276
     45 H          -2.4496    0.6318    1.9963 H       1  UNL1        0.0440
     46 H          -2.3580    1.5749    0.4799 H       1  UNL1        0.0440
     47 H          -0.1983    1.2835    0.8535 H       1  UNL1        0.0457
     48 H          -0.3395   -0.2720    1.6793 H       1  UNL1        0.0457
     49 H           1.9426    2.1477    0.3213 H       1  UNL1        0.0637
     50 H           4.2908    2.1332    1.1246 H       1  UNL1        0.0622
     51 H           8.0710   -0.7653    0.2662 H       1  UNL1        0.0263
     52 H           7.1223   -0.6276   -1.2116 H       1  UNL1        0.0263
     53 H           6.5377   -1.7558    0.0757 H       1  UNL1        0.0263
     54 H           7.1175    1.0135    2.0908 H       1  UNL1        0.2110
     55 H           5.0772   -1.2893   -1.2002 H       1  UNL1        0.0622
     56 H           2.7395   -1.3000   -2.0031 H       1  UNL1        0.0637
@<TRIPOS>BOND
     1     1     2    1
     2     2     3    1
     3     3     4    1
     4     4     5    1
     5     5     6    1
     6     6     7    1
     7     7     8   am
     8     7     9    2
     9     6    10    1
    10    10    11    1
    11     4    12    1
    12    12    13    1
    13    13    14    1
    14    14    15    1
    15    15    16    2
    16    15    17    2
    17    15    18    1
    18    18    19   ar
    19    19    20   ar
    20    20    21   ar
    21    21    22    1
    22    22    23    1
    23    22    24    1
    24    22    25    1
    25    25    26    1
    26    25    27    1
    27    25    28    1
    28    21    29   ar
    29    29    30   ar
    30    14     2    1
    31    30    18   ar
    32    11     6    1
    33     1    31    1
    34     1    32    1
    35     1    33    1
    36     2    34    1
    37     3    35    1
    38     3    36    1
    39     5    37    1
    40     5    38    1
    41     8    39    1
    42     8    40    1
    43    10    41    1
    44    10    42    1
    45    11    43    1
    46    11    44    1
    47    12    45    1
    48    12    46    1
    49    13    47    1
    50    13    48    1
    51    19    49    1
    52    20    50    1
    53    23    51    1
    54    23    52    1
    55    23    53    1
    56    24    54    1
    57    29    55    1
    58    30    56    1
