@<TRIPOS>MOLECULE
*****
 63 65 0 0 0
SMALL
GASTEIGER

@<TRIPOS>ATOM
      1 C          -2.6365    3.3137    0.6814 C.3     1  UNL1       -0.0349
      2 C          -2.3114    2.5879   -0.6227 C.3     1  UNL1        0.1123
      3 C          -1.0993    3.1624   -1.2790 C.3     1  UNL1       -0.0349
      4 C          -3.5103    2.5732   -1.4641 C.2     1  UNL1        0.2489
      5 O          -3.7969    3.3274   -2.4469 O.2     1  UNL1       -0.2725
      6 N          -4.3522    1.5101   -0.9671 N.am    1  UNL1       -0.2196
      7 C          -5.7740    1.4362   -1.1954 C.ar    1  UNL1        0.0436
      8 C          -6.6444    2.0120   -0.2791 C.ar    1  UNL1       -0.0386
      9 C          -7.9890    2.0211   -0.4605 C.ar    1  UNL1       -0.0420
     10 C          -8.5507    1.4210   -1.6279 C.ar    1  UNL1        0.0635
     11 C          -9.9221    1.4687   -1.7925 C.1     1  UNL1        0.0997
     12 N         -11.1535    1.4922   -1.9503 N.1     1  UNL1       -0.1909
     13 C          -7.7128    0.8369   -2.5577 C.ar    1  UNL1        0.0739
     14 C          -8.2696    0.1982   -3.7977 C.3     1  UNL1        0.4187
     15 F          -9.1114   -0.8088   -3.4166 F       1  UNL1       -0.1659
     16 F          -8.9106    1.1690   -4.5401 F       1  UNL1       -0.1659
     17 F          -7.2362   -0.3518   -4.5314 F       1  UNL1       -0.1659
     18 C          -6.3496    0.8717   -2.2968 C.ar    1  UNL1       -0.0270
     19 C          -3.4908    0.6578   -0.2436 C.2     1  UNL1        0.1515
     20 S          -3.9220   -0.7046    0.5380 S.2     1  UNL1       -0.0174
     21 N          -2.1618    1.1630   -0.2812 N.am    1  UNL1       -0.2676
     22 C          -0.9047    0.5461   -0.0528 C.ar    1  UNL1        0.0392
     23 C          -0.3448    0.4769    1.2078 C.ar    1  UNL1       -0.0394
     24 C           0.9208   -0.0871    1.4163 C.ar    1  UNL1       -0.0451
     25 C           1.6682   -0.6003    0.3724 C.ar    1  UNL1        0.0719
     26 C           3.0267   -1.1265    0.6146 C.2     1  UNL1        0.2469
     27 O           3.2528   -1.6704    1.7164 O.2     1  UNL1       -0.2701
     28 N           4.0402   -1.0219   -0.3473 N.am    1  UNL1       -0.3091
     29 C           5.3700   -1.5515   -0.1276 C.3     1  UNL1        0.0353
     30 C           5.2804   -3.0546   -0.0205 C.3     1  UNL1        0.0632
     31 O           6.4006   -3.7216    0.1820 O.3     1  UNL1       -0.3777
     32 C           7.1176   -3.7927    1.2604 C.3     1  UNL1        0.0560
     33 C           7.5646   -2.5259    1.9315 C.3     1  UNL1        0.0493
     34 C           8.4578   -2.9131    3.1117 C.2     1  UNL1        0.2376
     35 O           8.7138   -4.1145    3.3123 O.2     1  UNL1       -0.2737
     36 N           8.9877   -1.9320    3.9698 N.am    1  UNL1       -0.1974
     37 O           9.7729   -2.3065    5.0119 O.3     1  UNL1       -0.2952
     38 C           1.1156   -0.5373   -0.8785 C.ar    1  UNL1        0.1372
     39 F           1.7799   -1.0323   -1.9466 F       1  UNL1       -0.2046
     40 C          -0.1498    0.0264   -1.0860 C.ar    1  UNL1       -0.0042
     41 H          -3.7279    3.2181    0.8437 H       1  UNL1        0.0255
     42 H          -2.0443    2.8625    1.4718 H       1  UNL1        0.0255
     43 H          -2.3655    4.4007    0.6185 H       1  UNL1        0.0255
     44 H          -1.3879    3.7503   -2.1810 H       1  UNL1        0.0255
     45 H          -0.3810    2.3736   -1.5480 H       1  UNL1        0.0255
     46 H          -0.5720    3.8090   -0.5467 H       1  UNL1        0.0255
     47 H          -6.1707    2.4702    0.6055 H       1  UNL1        0.0637
     48 H          -8.6894    2.4524    0.2124 H       1  UNL1        0.0631
     49 H          -5.6965    0.4007   -3.0546 H       1  UNL1        0.0642
     50 H          -0.9053    0.8680    2.0527 H       1  UNL1        0.0636
     51 H           1.3536   -0.1284    2.4269 H       1  UNL1        0.0626
     52 H           3.8509   -0.5355   -1.2643 H       1  UNL1        0.1491
     53 H           5.8495   -1.1285    0.7441 H       1  UNL1        0.0485
     54 H           6.0190   -1.2791   -1.0195 H       1  UNL1        0.0485
     55 H           4.4823   -3.2689    0.7654 H       1  UNL1        0.0575
     56 H           4.7702   -3.3394   -1.0186 H       1  UNL1        0.0575
     57 H           6.7065   -4.4680    2.0911 H       1  UNL1        0.0564
     58 H           8.1122   -4.3528    1.0158 H       1  UNL1        0.0564
     59 H           6.7172   -1.9989    2.4656 H       1  UNL1        0.0382
     60 H           8.1049   -1.8623    1.2836 H       1  UNL1        0.0382
     61 H           8.7820   -0.9190    3.8142 H       1  UNL1        0.1822
     62 H          10.6191   -1.8084    5.0578 H       1  UNL1        0.2414
     63 H          -0.5918    0.0651   -2.0945 H       1  UNL1        0.0665
@<TRIPOS>BOND
     1     1     2    1
     2     2     3    1
     3     2     4    1
     4     4     5    2
     5     4     6   am
     6     6     7    1
     7     7     8   ar
     8     8     9   ar
     9     9    10   ar
    10    10    11    1
    11    11    12    3
    12    10    13   ar
    13    13    14    1
    14    14    15    1
    15    14    16    1
    16    14    17    1
    17    13    18   ar
    18     6    19    1
    19    19    20    2
    20    19    21    1
    21    21    22    1
    22    22    23   ar
    23    23    24   ar
    24    24    25   ar
    25    25    26    1
    26    26    27    2
    27    26    28   am
    28    28    29    1
    29    29    30    1
    30    30    31    1
    31    31    32    1
    32    32    33    1
    33    33    34    1
    34    34    35    2
    35    34    36   am
    36    36    37    1
    37    25    38   ar
    38    38    39    1
    39    38    40   ar
    40    21     2    1
    41    40    22   ar
    42    18     7   ar
    43     1    41    1
    44     1    42    1
    45     1    43    1
    46     3    44    1
    47     3    45    1
    48     3    46    1
    49     8    47    1
    50     9    48    1
    51    18    49    1
    52    23    50    1
    53    24    51    1
    54    28    52    1
    55    29    53    1
    56    29    54    1
    57    30    55    1
    58    30    56    1
    59    32    57    1
    60    32    58    1
    61    33    59    1
    62    33    60    1
    63    36    61    1
    64    37    62    1
    65    40    63    1
