
     RDKit          3D

 63 65  0  0  0  0  0  0  0  0999 V2000
   -2.6365    3.3137    0.6814 C   0  0  0  0  0  0  0  0  0  0  0  0
   -2.3114    2.5879   -0.6227 C   0  0  0  0  0  0  0  0  0  0  0  0
   -1.0993    3.1624   -1.2790 C   0  0  0  0  0  0  0  0  0  0  0  0
   -3.5103    2.5732   -1.4641 C   0  0  0  0  0  0  0  0  0  0  0  0
   -3.7969    3.3274   -2.4469 O   0  0  0  0  0  0  0  0  0  0  0  0
   -4.3522    1.5101   -0.9671 N   0  0  0  0  0  0  0  0  0  0  0  0
   -5.7740    1.4362   -1.1954 C   0  0  0  0  0  0  0  0  0  0  0  0
   -6.6444    2.0120   -0.2791 C   0  0  0  0  0  0  0  0  0  0  0  0
   -7.9890    2.0211   -0.4605 C   0  0  0  0  0  0  0  0  0  0  0  0
   -8.5507    1.4210   -1.6279 C   0  0  0  0  0  0  0  0  0  0  0  0
   -9.9221    1.4687   -1.7925 C   0  0  0  0  0  0  0  0  0  0  0  0
  -11.1535    1.4922   -1.9503 N   0  0  0  0  0  0  0  0  0  0  0  0
   -7.7128    0.8369   -2.5577 C   0  0  0  0  0  0  0  0  0  0  0  0
   -8.2696    0.1982   -3.7977 C   0  0  0  0  0  0  0  0  0  0  0  0
   -9.1114   -0.8088   -3.4166 F   0  0  0  0  0  0  0  0  0  0  0  0
   -8.9106    1.1690   -4.5401 F   0  0  0  0  0  0  0  0  0  0  0  0
   -7.2362   -0.3518   -4.5314 F   0  0  0  0  0  0  0  0  0  0  0  0
   -6.3496    0.8717   -2.2968 C   0  0  0  0  0  0  0  0  0  0  0  0
   -3.4908    0.6578   -0.2436 C   0  0  0  0  0  0  0  0  0  0  0  0
   -3.9220   -0.7046    0.5380 S   0  0  0  0  0  0  0  0  0  0  0  0
   -2.1618    1.1630   -0.2812 N   0  0  0  0  0  0  0  0  0  0  0  0
   -0.9047    0.5461   -0.0528 C   0  0  0  0  0  0  0  0  0  0  0  0
   -0.3448    0.4769    1.2078 C   0  0  0  0  0  0  0  0  0  0  0  0
    0.9208   -0.0871    1.4163 C   0  0  0  0  0  0  0  0  0  0  0  0
    1.6682   -0.6003    0.3724 C   0  0  0  0  0  0  0  0  0  0  0  0
    3.0267   -1.1265    0.6146 C   0  0  0  0  0  0  0  0  0  0  0  0
    3.2528   -1.6704    1.7164 O   0  0  0  0  0  0  0  0  0  0  0  0
    4.0402   -1.0219   -0.3473 N   0  0  0  0  0  0  0  0  0  0  0  0
    5.3700   -1.5515   -0.1276 C   0  0  0  0  0  0  0  0  0  0  0  0
    5.2804   -3.0546   -0.0205 C   0  0  0  0  0  0  0  0  0  0  0  0
    6.4006   -3.7216    0.1820 O   0  0  0  0  0  0  0  0  0  0  0  0
    7.1176   -3.7927    1.2604 C   0  0  0  0  0  0  0  0  0  0  0  0
    7.5646   -2.5259    1.9315 C   0  0  0  0  0  0  0  0  0  0  0  0
    8.4578   -2.9131    3.1117 C   0  0  0  0  0  0  0  0  0  0  0  0
    8.7138   -4.1145    3.3123 O   0  0  0  0  0  0  0  0  0  0  0  0
    8.9877   -1.9320    3.9698 N   0  0  0  0  0  0  0  0  0  0  0  0
    9.7729   -2.3065    5.0119 O   0  0  0  0  0  0  0  0  0  0  0  0
    1.1156   -0.5373   -0.8785 C   0  0  0  0  0  0  0  0  0  0  0  0
    1.7799   -1.0323   -1.9466 F   0  0  0  0  0  0  0  0  0  0  0  0
   -0.1498    0.0264   -1.0860 C   0  0  0  0  0  0  0  0  0  0  0  0
   -3.7279    3.2181    0.8437 H   0  0  0  0  0  0  0  0  0  0  0  0
   -2.0443    2.8625    1.4718 H   0  0  0  0  0  0  0  0  0  0  0  0
   -2.3655    4.4007    0.6185 H   0  0  0  0  0  0  0  0  0  0  0  0
   -1.3879    3.7503   -2.1810 H   0  0  0  0  0  0  0  0  0  0  0  0
   -0.3810    2.3736   -1.5480 H   0  0  0  0  0  0  0  0  0  0  0  0
   -0.5720    3.8090   -0.5467 H   0  0  0  0  0  0  0  0  0  0  0  0
   -6.1707    2.4702    0.6055 H   0  0  0  0  0  0  0  0  0  0  0  0
   -8.6894    2.4524    0.2124 H   0  0  0  0  0  0  0  0  0  0  0  0
   -5.6965    0.4007   -3.0546 H   0  0  0  0  0  0  0  0  0  0  0  0
   -0.9053    0.8680    2.0527 H   0  0  0  0  0  0  0  0  0  0  0  0
    1.3536   -0.1284    2.4269 H   0  0  0  0  0  0  0  0  0  0  0  0
    3.8509   -0.5355   -1.2643 H   0  0  0  0  0  0  0  0  0  0  0  0
    5.8495   -1.1285    0.7441 H   0  0  0  0  0  0  0  0  0  0  0  0
    6.0190   -1.2791   -1.0195 H   0  0  0  0  0  0  0  0  0  0  0  0
    4.4823   -3.2689    0.7654 H   0  0  0  0  0  0  0  0  0  0  0  0
    4.7702   -3.3394   -1.0186 H   0  0  0  0  0  0  0  0  0  0  0  0
    6.7065   -4.4680    2.0911 H   0  0  0  0  0  0  0  0  0  0  0  0
    8.1122   -4.3528    1.0158 H   0  0  0  0  0  0  0  0  0  0  0  0
    6.7172   -1.9989    2.4656 H   0  0  0  0  0  0  0  0  0  0  0  0
    8.1049   -1.8623    1.2836 H   0  0  0  0  0  0  0  0  0  0  0  0
    8.7820   -0.9190    3.8142 H   0  0  0  0  0  0  0  0  0  0  0  0
   10.6191   -1.8084    5.0578 H   0  0  0  0  0  0  0  0  0  0  0  0
   -0.5918    0.0651   -2.0945 H   0  0  0  0  0  0  0  0  0  0  0  0
  1  2  1  0
  2  3  1  0
  2  4  1  0
  4  5  2  0
  4  6  1  0
  6  7  1  0
  7  8  2  0
  8  9  1  0
  9 10  2  0
 10 11  1  0
 11 12  3  0
 10 13  1  0
 13 14  1  0
 14 15  1  0
 14 16  1  0
 14 17  1  0
 13 18  2  0
  6 19  1  0
 19 20  2  0
 19 21  1  0
 21 22  1  0
 22 23  2  0
 23 24  1  0
 24 25  2  0
 25 26  1  0
 26 27  2  0
 26 28  1  0
 28 29  1  0
 29 30  1  0
 30 31  1  0
 31 32  1  0
 32 33  1  0
 33 34  1  0
 34 35  2  0
 34 36  1  0
 36 37  1  0
 25 38  1  0
 38 39  1  0
 38 40  2  0
 21  2  1  0
 40 22  1  0
 18  7  1  0
  1 41  1  0
  1 42  1  0
  1 43  1  0
  3 44  1  0
  3 45  1  0
  3 46  1  0
  8 47  1  0
  9 48  1  0
 18 49  1  0
 23 50  1  0
 24 51  1  0
 28 52  1  0
 29 53  1  0
 29 54  1  0
 30 55  1  0
 30 56  1  0
 32 57  1  0
 32 58  1  0
 33 59  1  0
 33 60  1  0
 36 61  1  0
 37 62  1  0
 40 63  1  0
M  END
$$$$
