@<TRIPOS>MOLECULE
*****
 73 76 0 0 0
SMALL
GASTEIGER

@<TRIPOS>ATOM
      1 C           1.3445   -3.1376    0.6701 C.3     1  UNL1       -0.0421
      2 C           1.2915   -1.6833    1.0894 C.3     1  UNL1        0.0515
      3 C           2.5518   -0.9889    0.7058 C.ar    1  UNL1       -0.0271
      4 C           2.5684    0.3843    0.8031 C.ar    1  UNL1       -0.0562
      5 C           3.7248    1.0728    0.4584 C.ar    1  UNL1       -0.0537
      6 C           4.8566    0.4266    0.0220 C.ar    1  UNL1       -0.0165
      7 C           6.0277    1.2148   -0.3196 C.ar    1  UNL1       -0.0015
      8 C           5.9808    2.4731   -0.8392 C.ar    1  UNL1       -0.0475
      9 C           7.1869    3.1053   -1.1153 C.ar    1  UNL1        0.0036
     10 C           8.3756    2.4724   -0.8683 C.ar    1  UNL1        0.2511
     11 O           9.4661    3.0396   -1.1162 O.2     1  UNL1       -0.2677
     12 N           8.4208    1.2287   -0.3549 N.ar    1  UNL1       -0.3177
     13 C           9.6995    0.5643   -0.0954 C.3     1  UNL1        0.0147
     14 C           7.2709    0.6239   -0.0907 C.ar    1  UNL1        0.0153
     15 C           4.8031   -0.9467   -0.0628 C.ar    1  UNL1       -0.0537
     16 C           3.6626   -1.6534    0.2751 C.ar    1  UNL1       -0.0562
     17 N           0.1910   -0.9840    0.5172 N.am    1  UNL1       -0.2605
     18 C           0.0097   -0.8275   -0.9372 C.3     1  UNL1        0.0224
     19 C          -1.3470   -1.4124   -1.2257 C.3     1  UNL1        0.0075
     20 C          -2.4833   -0.5894   -0.5724 C.3     1  UNL1        0.1431
     21 C          -3.5076   -1.4812   -0.0411 C.3     1  UNL1        0.0109
     22 C          -4.6856   -0.9212    0.6855 C.3     1  UNL1        0.0380
     23 C          -5.5840   -2.1091    1.1376 C.3     1  UNL1       -0.0453
     24 C          -5.5828   -0.1596   -0.2526 C.3     1  UNL1       -0.0453
     25 N          -4.3344   -0.2661    1.8914 N.3     1  UNL1       -0.1891
     26 S          -5.5145    0.2934    2.9235 S.O2    1  UNL1        0.0270
     27 C          -6.5232    1.5272    2.1611 C.3     1  UNL1        0.0705
     28 O          -4.8214    0.9602    4.1116 O.2     1  UNL1       -0.1585
     29 O          -6.4568   -0.7731    3.4275 O.2     1  UNL1       -0.1585
     30 C          -2.8301    0.3929   -1.5946 C.ar    1  UNL1       -0.0041
     31 C          -2.4415    1.7324   -1.5171 C.ar    1  UNL1       -0.0548
     32 C          -2.7123    2.6594   -2.4731 C.ar    1  UNL1       -0.0614
     33 C          -3.4100    2.2879   -3.5977 C.ar    1  UNL1       -0.0617
     34 C          -3.8154    0.9616   -3.7130 C.ar    1  UNL1       -0.0614
     35 C          -3.5276    0.0418   -2.7287 C.ar    1  UNL1       -0.0548
     36 O          -1.8991    0.1346    0.5243 O.3     1  UNL1       -0.4388
     37 C          -0.8556   -0.3627    1.2765 C.2     1  UNL1        0.4042
     38 O          -0.7495   -0.3186    2.5196 O.2     1  UNL1       -0.2262
     39 H           2.1457   -3.6129    1.2723 H       1  UNL1        0.0251
     40 H           0.3873   -3.5955    0.9363 H       1  UNL1        0.0251
     41 H           1.5188   -3.2302   -0.4273 H       1  UNL1        0.0251
     42 H           1.1984   -1.6628    2.1835 H       1  UNL1        0.0549
     43 H           1.6936    0.9313    1.1440 H       1  UNL1        0.0621
     44 H           3.6985    2.1561    0.5486 H       1  UNL1        0.0624
     45 H           5.0204    2.9376   -1.0194 H       1  UNL1        0.0626
     46 H           7.1489    4.1032   -1.5274 H       1  UNL1        0.0672
     47 H           9.6402   -0.4669   -0.5033 H       1  UNL1        0.0457
     48 H          10.5361    1.1295   -0.5211 H       1  UNL1        0.0457
     49 H           9.7879    0.4627    1.0031 H       1  UNL1        0.0457
     50 H           7.3182   -0.3788    0.3231 H       1  UNL1        0.0816
     51 H           5.6995   -1.4441   -0.4075 H       1  UNL1        0.0624
     52 H           3.6644   -2.7278    0.1938 H       1  UNL1        0.0621
     53 H           0.0830    0.2386   -1.2236 H       1  UNL1        0.0467
     54 H           0.7507   -1.4500   -1.4330 H       1  UNL1        0.0467
     55 H          -1.3831   -2.4063   -0.7426 H       1  UNL1        0.0322
     56 H          -1.4768   -1.4597   -2.3179 H       1  UNL1        0.0322
     57 H          -3.8848   -2.1327   -0.8888 H       1  UNL1        0.0325
     58 H          -3.0514   -2.2475    0.6543 H       1  UNL1        0.0325
     59 H          -5.5976   -2.8519    0.3257 H       1  UNL1        0.0248
     60 H          -5.1437   -2.5534    2.0443 H       1  UNL1        0.0248
     61 H          -6.6076   -1.7137    1.2930 H       1  UNL1        0.0248
     62 H          -5.2099    0.7889   -0.6105 H       1  UNL1        0.0248
     63 H          -6.6349   -0.1059    0.1379 H       1  UNL1        0.0248
     64 H          -5.7037   -0.8415   -1.1505 H       1  UNL1        0.0248
     65 H          -3.6403   -0.8650    2.3899 H       1  UNL1        0.1482
     66 H          -6.0419    1.9266    1.2529 H       1  UNL1        0.0479
     67 H          -6.6089    2.4352    2.8383 H       1  UNL1        0.0479
     68 H          -7.5382    1.1702    1.8870 H       1  UNL1        0.0479
     69 H          -1.8833    2.0553   -0.6296 H       1  UNL1        0.0622
     70 H          -2.3697    3.6820   -2.3282 H       1  UNL1        0.0618
     71 H          -3.6320    3.0167   -4.3661 H       1  UNL1        0.0618
     72 H          -4.3641    0.7009   -4.6125 H       1  UNL1        0.0618
     73 H          -3.8699   -0.9708   -2.8780 H       1  UNL1        0.0622
@<TRIPOS>BOND
     1     1     2    1
     2     2     3    1
     3     3     4   ar
     4     4     5   ar
     5     5     6   ar
     6     6     7    1
     7     7     8   ar
     8     8     9   ar
     9     9    10   ar
    10    10    11    2
    11    10    12   ar
    12    12    13    1
    13    12    14   ar
    14     6    15   ar
    15    15    16   ar
    16     2    17    1
    17    17    18    1
    18    18    19    1
    19    19    20    1
    20    20    21    1
    21    21    22    1
    22    22    23    1
    23    22    24    1
    24    22    25    1
    25    25    26    1
    26    26    27    1
    27    26    28    2
    28    26    29    2
    29    20    30    1
    30    30    31   ar
    31    31    32   ar
    32    32    33   ar
    33    33    34   ar
    34    34    35   ar
    35    20    36    1
    36    36    37    1
    37    37    38    2
    38    16     3   ar
    39    37    17   am
    40    14     7   ar
    41    35    30   ar
    42     1    39    1
    43     1    40    1
    44     1    41    1
    45     2    42    1
    46     4    43    1
    47     5    44    1
    48     8    45    1
    49     9    46    1
    50    13    47    1
    51    13    48    1
    52    13    49    1
    53    14    50    1
    54    15    51    1
    55    16    52    1
    56    18    53    1
    57    18    54    1
    58    19    55    1
    59    19    56    1
    60    21    57    1
    61    21    58    1
    62    23    59    1
    63    23    60    1
    64    23    61    1
    65    24    62    1
    66    24    63    1
    67    24    64    1
    68    25    65    1
    69    27    66    1
    70    27    67    1
    71    27    68    1
    72    31    69    1
    73    32    70    1
    74    33    71    1
    75    34    72    1
    76    35    73    1
