@<TRIPOS>MOLECULE
*****
 36 36 0 0 0
SMALL
GASTEIGER

@<TRIPOS>ATOM
      1 C          -2.5471    0.6478   -1.0598 C.3     1  UNL1        0.1130
      2 O          -3.6723   -0.1140   -1.4515 O.3     1  UNL1       -0.3864
      3 C          -2.5490    0.7672    0.4151 C.3     1  UNL1        0.1118
      4 O          -2.5503    2.1377    0.7353 O.3     1  UNL1       -0.3865
      5 C          -1.4458    0.1017    1.1556 C.3     1  UNL1        0.1120
      6 C          -1.8325   -1.3121    1.6120 C.3     1  UNL1        0.0730
      7 O          -0.9403   -1.7976    2.5497 O.3     1  UNL1       -0.3924
      8 O          -0.2057    0.1311    0.5888 O.3     1  UNL1       -0.3505
      9 C          -0.1441    0.3446   -0.7506 C.3     1  UNL1        0.1470
     10 N           1.0772   -0.3109   -1.2337 N.3     1  UNL1       -0.1936
     11 P           2.4406    0.3849   -0.4349 P.3     1  UNL1        0.4096
     12 O           2.9898    1.5169   -1.2516 O.2     1  UNL1       -0.2398
     13 O           3.6638   -0.6912   -0.0878 O.3     1  UNL1       -0.2995
     14 C           3.6677   -1.8489   -0.8409 C.3     1  UNL1        0.0469
     15 O           1.9257    1.0463    1.0552 O.3     1  UNL1       -0.2995
     16 C           2.9910    1.8095    1.5721 C.3     1  UNL1        0.0469
     17 C          -1.3420   -0.0865   -1.5374 C.3     1  UNL1        0.1233
     18 O          -1.0964    0.1484   -2.8884 O.3     1  UNL1       -0.3852
     19 H          -2.6955    1.6324   -1.5703 H       1  UNL1        0.0647
     20 H          -3.4454   -1.0802   -1.4267 H       1  UNL1        0.2100
     21 H          -3.5110    0.3799    0.8576 H       1  UNL1        0.0647
     22 H          -2.5587    2.1603    1.7431 H       1  UNL1        0.2100
     23 H          -1.3331    0.6636    2.1260 H       1  UNL1        0.0646
     24 H          -1.8119   -2.0393    0.7689 H       1  UNL1        0.0584
     25 H          -2.8236   -1.3075    2.0985 H       1  UNL1        0.0584
     26 H          -1.3576   -2.3633    3.2443 H       1  UNL1        0.2095
     27 H          -0.0404    1.4511   -0.9125 H       1  UNL1        0.0799
     28 H           1.0877   -0.2102   -2.2588 H       1  UNL1        0.1362
     29 H           4.1716   -2.6310   -0.2273 H       1  UNL1        0.0529
     30 H           4.3722   -1.6676   -1.6954 H       1  UNL1        0.0529
     31 H           2.6827   -2.2012   -1.1399 H       1  UNL1        0.0529
     32 H           3.5995    2.2225    0.7524 H       1  UNL1        0.0529
     33 H           3.6287    1.2111    2.2581 H       1  UNL1        0.0529
     34 H           2.5766    2.6569    2.1495 H       1  UNL1        0.0529
     35 H          -1.5399   -1.1767   -1.4538 H       1  UNL1        0.0660
     36 H          -1.4322   -0.5759   -3.4609 H       1  UNL1        0.2101
@<TRIPOS>BOND
     1     1     2    1
     2     1     3    1
     3     3     4    1
     4     3     5    1
     5     5     6    1
     6     6     7    1
     7     5     8    1
     8     8     9    1
     9     9    10    1
    10    10    11    1
    11    11    12    2
    12    11    13    1
    13    13    14    1
    14    11    15    1
    15    15    16    1
    16     9    17    1
    17    17    18    1
    18    17     1    1
    19     1    19    1
    20     2    20    1
    21     3    21    1
    22     4    22    1
    23     5    23    1
    24     6    24    1
    25     6    25    1
    26     7    26    1
    27     9    27    1
    28    10    28    1
    29    14    29    1
    30    14    30    1
    31    14    31    1
    32    16    32    1
    33    16    33    1
    34    16    34    1
    35    17    35    1
    36    18    36    1
