
     RDKit          3D

 42 44  0  0  0  0  0  0  0  0999 V2000
    4.9428   -2.1382   -3.0200 Cl  0  0  0  0  0  0  0  0  0  0  0  0
    3.8634   -1.3996   -1.8166 C   0  0  0  0  0  0  0  0  0  0  0  0
    3.6227   -0.0448   -1.8363 C   0  0  0  0  0  0  0  0  0  0  0  0
    2.7889    0.5059   -0.9020 C   0  0  0  0  0  0  0  0  0  0  0  0
    2.1603   -0.2254    0.0800 C   0  0  0  0  0  0  0  0  0  0  0  0
    1.3004    0.3430    1.0950 C   0  0  0  0  0  0  0  0  0  0  0  0
   -0.0474    0.5708    0.8273 N   0  0  0  0  0  0  0  0  0  0  0  0
   -0.8979   -0.4121    0.3466 C   0  0  0  0  0  0  0  0  0  0  0  0
   -0.7897   -0.8214   -1.0909 C   0  0  0  0  0  0  0  0  0  0  0  0
   -1.6072   -2.0903   -1.2975 C   0  0  0  0  0  0  0  0  0  0  0  0
   -3.0826   -1.8231   -1.0547 C   0  0  0  0  0  0  0  0  0  0  0  0
   -3.2523   -1.2621    0.3147 C   0  0  0  0  0  0  0  0  0  0  0  0
   -2.3521   -0.0387    0.5621 C   0  0  0  0  0  0  0  0  0  0  0  0
   -0.5803    1.8347    1.1497 C   0  0  0  0  0  0  0  0  0  0  0  0
    0.1136    2.9852    0.4672 C   0  0  0  0  0  0  0  0  0  0  0  0
   -0.2552    3.8021    1.6355 N   0  0  0  0  0  0  0  0  0  0  0  0
   -0.2083    2.5410    2.3978 C   0  0  0  0  0  0  0  0  0  0  0  0
    2.4232   -1.5816    0.0717 C   0  0  0  0  0  0  0  0  0  0  0  0
    3.2576   -2.1684   -0.8548 C   0  0  0  0  0  0  0  0  0  0  0  0
    4.1159    0.5531   -2.6125 H   0  0  0  0  0  0  0  0  0  0  0  0
    2.6157    1.5762   -0.9391 H   0  0  0  0  0  0  0  0  0  0  0  0
    1.3408   -0.2755    2.0547 H   0  0  0  0  0  0  0  0  0  0  0  0
    1.7589    1.3176    1.4539 H   0  0  0  0  0  0  0  0  0  0  0  0
   -0.7461   -1.3469    0.9633 H   0  0  0  0  0  0  0  0  0  0  0  0
   -1.2896   -0.0683   -1.7610 H   0  0  0  0  0  0  0  0  0  0  0  0
    0.1897   -0.9731   -1.5029 H   0  0  0  0  0  0  0  0  0  0  0  0
   -1.2530   -2.9318   -0.7040 H   0  0  0  0  0  0  0  0  0  0  0  0
   -1.5130   -2.3458   -2.3749 H   0  0  0  0  0  0  0  0  0  0  0  0
   -3.5148   -1.1843   -1.8375 H   0  0  0  0  0  0  0  0  0  0  0  0
   -3.5807   -2.8138   -1.0744 H   0  0  0  0  0  0  0  0  0  0  0  0
   -4.2984   -0.8410    0.3712 H   0  0  0  0  0  0  0  0  0  0  0  0
   -3.1288   -2.0119    1.0990 H   0  0  0  0  0  0  0  0  0  0  0  0
   -2.6521    0.6674   -0.2346 H   0  0  0  0  0  0  0  0  0  0  0  0
   -2.5820    0.2599    1.5838 H   0  0  0  0  0  0  0  0  0  0  0  0
   -1.6720    1.9378    0.9679 H   0  0  0  0  0  0  0  0  0  0  0  0
    1.2187    2.9574    0.4296 H   0  0  0  0  0  0  0  0  0  0  0  0
   -0.3785    3.3218   -0.4682 H   0  0  0  0  0  0  0  0  0  0  0  0
   -1.2254    4.1290    1.5226 H   0  0  0  0  0  0  0  0  0  0  0  0
    0.7796    2.3468    2.8499 H   0  0  0  0  0  0  0  0  0  0  0  0
   -1.0112    2.6210    3.1785 H   0  0  0  0  0  0  0  0  0  0  0  0
    1.9742   -2.2301    0.8036 H   0  0  0  0  0  0  0  0  0  0  0  0
    3.4521   -3.2425   -0.8438 H   0  0  0  0  0  0  0  0  0  0  0  0
  1  2  1  0
  2  3  2  0
  3  4  1  0
  4  5  2  0
  5  6  1  0
  6  7  1  0
  7  8  1  0
  8  9  1  0
  9 10  1  0
 10 11  1  0
 11 12  1  0
 12 13  1  0
  7 14  1  0
 14 15  1  0
 15 16  1  0
 16 17  1  0
  5 18  1  0
 18 19  2  0
 19  2  1  0
 13  8  1  0
 17 14  1  0
  3 20  1  0
  4 21  1  0
  6 22  1  0
  6 23  1  0
  8 24  1  0
  9 25  1  0
  9 26  1  0
 10 27  1  0
 10 28  1  0
 11 29  1  0
 11 30  1  0
 12 31  1  0
 12 32  1  0
 13 33  1  0
 13 34  1  0
 14 35  1  0
 15 36  1  0
 15 37  1  0
 16 38  1  0
 17 39  1  0
 17 40  1  0
 18 41  1  0
 19 42  1  0
M  END
$$$$
