@<TRIPOS>MOLECULE
*****
 42 44 0 0 0
SMALL
GASTEIGER

@<TRIPOS>ATOM
      1 CL          4.9428   -2.1382   -3.0200 Cl      1  UNL1       -0.0835
      2 C           3.8634   -1.3996   -1.8166 C.ar    1  UNL1        0.0410
      3 C           3.6227   -0.0448   -1.8363 C.ar    1  UNL1       -0.0431
      4 C           2.7889    0.5059   -0.9020 C.ar    1  UNL1       -0.0560
      5 C           2.1603   -0.2254    0.0800 C.ar    1  UNL1       -0.0333
      6 C           1.3004    0.3430    1.0950 C.3     1  UNL1        0.0247
      7 N          -0.0474    0.5708    0.8273 N.3     1  UNL1       -0.2899
      8 C          -0.8979   -0.4121    0.3466 C.3     1  UNL1        0.0111
      9 C          -0.7897   -0.8214   -1.0909 C.3     1  UNL1       -0.0373
     10 C          -1.6072   -2.0903   -1.2975 C.3     1  UNL1       -0.0516
     11 C          -3.0826   -1.8231   -1.0547 C.3     1  UNL1       -0.0530
     12 C          -3.2523   -1.2621    0.3147 C.3     1  UNL1       -0.0516
     13 C          -2.3521   -0.0387    0.5621 C.3     1  UNL1       -0.0373
     14 C          -0.5803    1.8347    1.1497 C.3     1  UNL1        0.0360
     15 C           0.1136    2.9852    0.4672 C.3     1  UNL1        0.0128
     16 N          -0.2552    3.8021    1.6355 N.3     1  UNL1       -0.3129
     17 C          -0.2083    2.5410    2.3978 C.3     1  UNL1        0.0128
     18 C           2.4232   -1.5816    0.0717 C.ar    1  UNL1       -0.0560
     19 C           3.2576   -2.1684   -0.8548 C.ar    1  UNL1       -0.0431
     20 H           4.1159    0.5531   -2.6125 H       1  UNL1        0.0632
     21 H           2.6157    1.5762   -0.9391 H       1  UNL1        0.0621
     22 H           1.3408   -0.2755    2.0547 H       1  UNL1        0.0476
     23 H           1.7589    1.3176    1.4539 H       1  UNL1        0.0476
     24 H          -0.7461   -1.3469    0.9633 H       1  UNL1        0.0463
     25 H          -1.2896   -0.0683   -1.7610 H       1  UNL1        0.0280
     26 H           0.1897   -0.9731   -1.5029 H       1  UNL1        0.0280
     27 H          -1.2530   -2.9318   -0.7040 H       1  UNL1        0.0266
     28 H          -1.5130   -2.3458   -2.3749 H       1  UNL1        0.0266
     29 H          -3.5148   -1.1843   -1.8375 H       1  UNL1        0.0265
     30 H          -3.5807   -2.8138   -1.0744 H       1  UNL1        0.0265
     31 H          -4.2984   -0.8410    0.3712 H       1  UNL1        0.0266
     32 H          -3.1288   -2.0119    1.0990 H       1  UNL1        0.0266
     33 H          -2.6521    0.6674   -0.2346 H       1  UNL1        0.0280
     34 H          -2.5820    0.2599    1.5838 H       1  UNL1        0.0280
     35 H          -1.6720    1.9378    0.9679 H       1  UNL1        0.0488
     36 H           1.2187    2.9574    0.4296 H       1  UNL1        0.0440
     37 H          -0.3785    3.3218   -0.4682 H       1  UNL1        0.0440
     38 H          -1.2254    4.1290    1.5226 H       1  UNL1        0.1220
     39 H           0.7796    2.3468    2.8499 H       1  UNL1        0.0440
     40 H          -1.0112    2.6210    3.1785 H       1  UNL1        0.0440
     41 H           1.9742   -2.2301    0.8036 H       1  UNL1        0.0621
     42 H           3.4521   -3.2425   -0.8438 H       1  UNL1        0.0632
@<TRIPOS>BOND
     1     1     2    1
     2     2     3   ar
     3     3     4   ar
     4     4     5   ar
     5     5     6    1
     6     6     7    1
     7     7     8    1
     8     8     9    1
     9     9    10    1
    10    10    11    1
    11    11    12    1
    12    12    13    1
    13     7    14    1
    14    14    15    1
    15    15    16    1
    16    16    17    1
    17     5    18   ar
    18    18    19   ar
    19    19     2   ar
    20    13     8    1
    21    17    14    1
    22     3    20    1
    23     4    21    1
    24     6    22    1
    25     6    23    1
    26     8    24    1
    27     9    25    1
    28     9    26    1
    29    10    27    1
    30    10    28    1
    31    11    29    1
    32    11    30    1
    33    12    31    1
    34    12    32    1
    35    13    33    1
    36    13    34    1
    37    14    35    1
    38    15    36    1
    39    15    37    1
    40    16    38    1
    41    17    39    1
    42    17    40    1
    43    18    41    1
    44    19    42    1
