
     RDKit          3D

 61 63  0  0  0  0  0  0  0  0999 V2000
   -7.0680    0.4160   -3.3088 C   0  0  0  0  0  0  0  0  0  0  0  0
   -6.0195    0.6349   -2.2103 C   0  0  0  0  0  0  0  0  0  0  0  0
   -6.2026   -0.4960   -1.2237 C   0  0  0  0  0  0  0  0  0  0  0  0
   -5.2686   -0.4211   -0.1154 N   0  0  0  0  0  0  0  0  0  0  0  0
   -5.4196    0.2064    1.0793 C   0  0  0  0  0  0  0  0  0  0  0  0
   -4.2494   -0.0079    1.8111 C   0  0  0  0  0  0  0  0  0  0  0  0
   -4.1030    0.5149    3.0843 O   0  0  0  0  0  0  0  0  0  0  0  0
   -3.4230   -0.7514    1.0552 N   0  0  0  0  0  0  0  0  0  0  0  0
   -2.1346   -1.1753    1.4576 C   0  0  1  0  0  0  0  0  0  0  0  0
   -1.1738   -1.4949    0.3751 C   0  0  0  0  0  0  0  0  0  0  0  0
    0.1781   -1.0858    0.9890 C   0  0  2  0  0  0  0  0  0  0  0  0
    0.6912   -2.1389    1.8644 C   0  0  0  0  0  0  0  0  0  0  0  0
    0.7795   -2.0311    3.0985 O   0  0  0  0  0  0  0  0  0  0  0  0
    1.1145   -3.3594    1.2682 N   0  0  0  0  0  0  0  0  0  0  0  0
    1.5930   -4.3513    2.0469 O   0  0  0  0  0  0  0  0  0  0  0  0
   -0.1740    0.1318    1.6125 N   0  0  0  0  0  0  0  0  0  0  0  0
    0.9895    1.0074    2.4349 S   0  0  0  0  0  6  0  0  0  0  0  0
    0.3376    2.2938    2.9445 O   0  0  0  0  0  0  0  0  0  0  0  0
    1.6007    0.3684    3.6274 O   0  0  0  0  0  0  0  0  0  0  0  0
    2.3142    1.5416    1.4152 C   0  0  0  0  0  0  0  0  0  0  0  0
    3.4040    0.6762    1.3162 C   0  0  0  0  0  0  0  0  0  0  0  0
    4.4965    0.9942    0.5439 C   0  0  0  0  0  0  0  0  0  0  0  0
    4.5488    2.1761   -0.1556 C   0  0  0  0  0  0  0  0  0  0  0  0
    5.6186    2.5028   -0.9210 O   0  0  0  0  0  0  0  0  0  0  0  0
    6.7606    1.8602   -1.2222 C   0  0  0  0  0  0  0  0  0  0  0  0
    6.9108    0.6922   -2.0899 C   0  0  0  0  0  0  0  0  0  0  0  0
    6.2959   -0.4865   -1.9343 O   0  0  0  0  0  0  0  0  0  0  0  0
    5.0097   -0.6002   -2.3829 C   0  0  0  0  0  0  0  0  0  0  0  0
    3.4403    3.0134   -0.0306 C   0  0  0  0  0  0  0  0  0  0  0  0
    2.3409    2.7197    0.7317 C   0  0  0  0  0  0  0  0  0  0  0  0
   -1.4577   -0.0089    2.1979 C   0  0  0  0  0  0  0  0  0  0  0  0
   -4.0559   -0.9915   -0.1057 C   0  0  0  0  0  0  0  0  0  0  0  0
   -3.5543   -1.6589   -1.0290 O   0  0  0  0  0  0  0  0  0  0  0  0
   -8.0580    0.6199   -2.8386 H   0  0  0  0  0  0  0  0  0  0  0  0
   -6.8915    1.0526   -4.1785 H   0  0  0  0  0  0  0  0  0  0  0  0
   -7.0247   -0.6776   -3.5449 H   0  0  0  0  0  0  0  0  0  0  0  0
   -5.0077    0.6043   -2.6579 H   0  0  0  0  0  0  0  0  0  0  0  0
   -6.1783    1.5845   -1.6855 H   0  0  0  0  0  0  0  0  0  0  0  0
   -6.1163   -1.4816   -1.7506 H   0  0  0  0  0  0  0  0  0  0  0  0
   -7.2600   -0.4613   -0.8513 H   0  0  0  0  0  0  0  0  0  0  0  0
   -6.2933    0.7636    1.3862 H   0  0  0  0  0  0  0  0  0  0  0  0
   -4.7556    0.4380    3.8284 H   0  0  0  0  0  0  0  0  0  0  0  0
   -2.1687   -2.0134    2.1969 H   0  0  0  0  0  0  0  0  0  0  0  0
   -1.3408   -1.0585   -0.5989 H   0  0  0  0  0  0  0  0  0  0  0  0
   -1.1131   -2.5947    0.2495 H   0  0  0  0  0  0  0  0  0  0  0  0
    0.9042   -0.8732    0.1600 H   0  0  0  0  0  0  0  0  0  0  0  0
    1.0693   -3.5238    0.2279 H   0  0  0  0  0  0  0  0  0  0  0  0
    2.1799   -4.9492    1.5072 H   0  0  0  0  0  0  0  0  0  0  0  0
    3.4222   -0.2682    1.8427 H   0  0  0  0  0  0  0  0  0  0  0  0
    5.3191    0.2905    0.5006 H   0  0  0  0  0  0  0  0  0  0  0  0
    7.5039    2.6750   -1.6297 H   0  0  0  0  0  0  0  0  0  0  0  0
    7.3411    1.6401   -0.2309 H   0  0  0  0  0  0  0  0  0  0  0  0
    6.7971    1.0091   -3.2080 H   0  0  0  0  0  0  0  0  0  0  0  0
    8.0596    0.4685   -2.1180 H   0  0  0  0  0  0  0  0  0  0  0  0
    5.0731   -0.4192   -3.5048 H   0  0  0  0  0  0  0  0  0  0  0  0
    4.6125   -1.6477   -2.2527 H   0  0  0  0  0  0  0  0  0  0  0  0
    4.2752    0.0580   -1.9426 H   0  0  0  0  0  0  0  0  0  0  0  0
    3.4768    3.9595   -0.5876 H   0  0  0  0  0  0  0  0  0  0  0  0
    1.4869    3.3760    0.8220 H   0  0  0  0  0  0  0  0  0  0  0  0
   -1.3807   -0.1909    3.2704 H   0  0  0  0  0  0  0  0  0  0  0  0
   -2.0526    0.9287    2.0597 H   0  0  0  0  0  0  0  0  0  0  0  0
  1  2  1  0
  2  3  1  0
  3  4  1  0
  4  5  1  0
  5  6  2  0
  6  7  1  0
  6  8  1  0
  8  9  1  0
  9 10  1  0
 10 11  1  0
 11 12  1  0
 12 13  2  0
 12 14  1  0
 14 15  1  0
 11 16  1  0
 16 17  1  0
 17 18  2  0
 17 19  2  0
 17 20  1  0
 20 21  2  0
 21 22  1  0
 22 23  2  0
 23 24  1  0
 24 25  1  0
 25 26  1  0
 26 27  1  0
 27 28  1  0
 23 29  1  0
 29 30  2  0
 16 31  1  0
  8 32  1  0
 32 33  2  0
 32  4  1  0
 31  9  1  0
 30 20  1  0
  1 34  1  0
  1 35  1  0
  1 36  1  0
  2 37  1  0
  2 38  1  0
  3 39  1  0
  3 40  1  0
  5 41  1  0
  7 42  1  0
  9 43  1  1
 10 44  1  0
 10 45  1  0
 11 46  1  6
 14 47  1  0
 15 48  1  0
 21 49  1  0
 22 50  1  0
 25 51  1  0
 25 52  1  0
 26 53  1  0
 26 54  1  0
 28 55  1  0
 28 56  1  0
 28 57  1  0
 29 58  1  0
 30 59  1  0
 31 60  1  0
 31 61  1  0
M  END
$$$$
