@<TRIPOS>MOLECULE
*****
 61 63 0 0 0
SMALL
GASTEIGER

@<TRIPOS>ATOM
      1 C          -7.0680    0.4160   -3.3088 C.3     1  UNL1       -0.0637
      2 C          -6.0195    0.6349   -2.2103 C.3     1  UNL1       -0.0377
      3 C          -6.2026   -0.4960   -1.2237 C.3     1  UNL1        0.0275
      4 N          -5.2686   -0.4211   -0.1154 N.ar    1  UNL1       -0.2954
      5 C          -5.4196    0.2064    1.0793 C.ar    1  UNL1        0.0691
      6 C          -4.2494   -0.0079    1.8111 C.ar    1  UNL1        0.2138
      7 O          -4.1030    0.5149    3.0843 O.3     1  UNL1       -0.4924
      8 N          -3.4230   -0.7514    1.0552 N.ar    1  UNL1       -0.2591
      9 C          -2.1346   -1.1753    1.4576 C.3     1  UNL1        0.0584
     10 C          -1.1738   -1.4949    0.3751 C.3     1  UNL1       -0.0047
     11 C           0.1781   -1.0858    0.9890 C.3     1  UNL1        0.1117
     12 C           0.6912   -2.1389    1.8644 C.2     1  UNL1        0.2544
     13 O           0.7795   -2.0311    3.0985 O.2     1  UNL1       -0.2719
     14 N           1.1145   -3.3594    1.2682 N.am    1  UNL1       -0.1961
     15 O           1.5930   -4.3513    2.0469 O.3     1  UNL1       -0.2951
     16 N          -0.1740    0.1318    1.6125 N.3     1  UNL1       -0.1626
     17 S           0.9895    1.0074    2.4349 S.O2    1  UNL1        0.0616
     18 O           0.3376    2.2938    2.9445 O.2     1  UNL1       -0.1528
     19 O           1.6007    0.3684    3.6274 O.2     1  UNL1       -0.1528
     20 C           2.3142    1.5416    1.4152 C.ar    1  UNL1        0.1057
     21 C           3.4040    0.6762    1.3162 C.ar    1  UNL1       -0.0319
     22 C           4.4965    0.9942    0.5439 C.ar    1  UNL1       -0.0181
     23 C           4.5488    2.1761   -0.1556 C.ar    1  UNL1        0.1207
     24 O           5.6186    2.5028   -0.9210 O.3     1  UNL1       -0.4897
     25 C           6.7606    1.8602   -1.2222 C.3     1  UNL1        0.1128
     26 C           6.9108    0.6922   -2.0899 C.3     1  UNL1        0.0813
     27 O           6.2959   -0.4865   -1.9343 O.3     1  UNL1       -0.3796
     28 C           5.0097   -0.6002   -2.3829 C.3     1  UNL1        0.0366
     29 C           3.4403    3.0134   -0.0306 C.ar    1  UNL1       -0.0181
     30 C           2.3409    2.7197    0.7317 C.ar    1  UNL1       -0.0319
     31 C          -1.4577   -0.0089    2.1979 C.3     1  UNL1        0.0424
     32 C          -4.0559   -0.9915   -0.1057 C.ar    1  UNL1        0.3323
     33 O          -3.5543   -1.6589   -1.0290 O.2     1  UNL1       -0.2462
     34 H          -8.0580    0.6199   -2.8386 H       1  UNL1        0.0230
     35 H          -6.8915    1.0526   -4.1785 H       1  UNL1        0.0230
     36 H          -7.0247   -0.6776   -3.5449 H       1  UNL1        0.0230
     37 H          -5.0077    0.6043   -2.6579 H       1  UNL1        0.0280
     38 H          -6.1783    1.5845   -1.6855 H       1  UNL1        0.0280
     39 H          -6.1163   -1.4816   -1.7506 H       1  UNL1        0.0493
     40 H          -7.2600   -0.4613   -0.8513 H       1  UNL1        0.0493
     41 H          -6.2933    0.7636    1.3862 H       1  UNL1        0.0864
     42 H          -4.7556    0.4380    3.8284 H       1  UNL1        0.2937
     43 H          -2.1687   -2.0134    2.1969 H       1  UNL1        0.0544
     44 H          -1.3408   -1.0585   -0.5989 H       1  UNL1        0.0306
     45 H          -1.1131   -2.5947    0.2495 H       1  UNL1        0.0306
     46 H           0.9042   -0.8732    0.1600 H       1  UNL1        0.0577
     47 H           1.0693   -3.5238    0.2279 H       1  UNL1        0.1822
     48 H           2.1799   -4.9492    1.5072 H       1  UNL1        0.2414
     49 H           3.4222   -0.2682    1.8427 H       1  UNL1        0.0638
     50 H           5.3191    0.2905    0.5006 H       1  UNL1        0.0655
     51 H           7.5039    2.6750   -1.6297 H       1  UNL1        0.0720
     52 H           7.3411    1.6401   -0.2309 H       1  UNL1        0.0720
     53 H           6.7971    1.0091   -3.2080 H       1  UNL1        0.0593
     54 H           8.0596    0.4685   -2.1180 H       1  UNL1        0.0593
     55 H           5.0731   -0.4192   -3.5048 H       1  UNL1        0.0524
     56 H           4.6125   -1.6477   -2.2527 H       1  UNL1        0.0524
     57 H           4.2752    0.0580   -1.9426 H       1  UNL1        0.0524
     58 H           3.4768    3.9595   -0.5876 H       1  UNL1        0.0655
     59 H           1.4869    3.3760    0.8220 H       1  UNL1        0.0638
     60 H          -1.3807   -0.1909    3.2704 H       1  UNL1        0.0465
     61 H          -2.0526    0.9287    2.0597 H       1  UNL1        0.0465
@<TRIPOS>BOND
     1     1     2    1
     2     2     3    1
     3     3     4    1
     4     4     5   ar
     5     5     6   ar
     6     6     7    1
     7     6     8   ar
     8     8     9    1
     9     9    10    1
    10    10    11    1
    11    11    12    1
    12    12    13    2
    13    12    14   am
    14    14    15    1
    15    11    16    1
    16    16    17    1
    17    17    18    2
    18    17    19    2
    19    17    20    1
    20    20    21   ar
    21    21    22   ar
    22    22    23   ar
    23    23    24    1
    24    24    25    1
    25    25    26    1
    26    26    27    1
    27    27    28    1
    28    23    29   ar
    29    29    30   ar
    30    16    31    1
    31     8    32   ar
    32    32    33    2
    33    32     4   ar
    34    31     9    1
    35    30    20   ar
    36     1    34    1
    37     1    35    1
    38     1    36    1
    39     2    37    1
    40     2    38    1
    41     3    39    1
    42     3    40    1
    43     5    41    1
    44     7    42    1
    45     9    43    1
    46    10    44    1
    47    10    45    1
    48    11    46    1
    49    14    47    1
    50    15    48    1
    51    21    49    1
    52    22    50    1
    53    25    51    1
    54    25    52    1
    55    26    53    1
    56    26    54    1
    57    28    55    1
    58    28    56    1
    59    28    57    1
    60    29    58    1
    61    30    59    1
    62    31    60    1
    63    31    61    1
