@<TRIPOS>MOLECULE
*****
 32 35 0 0 0
SMALL
GASTEIGER

@<TRIPOS>ATOM
      1 CL         -0.6053    4.3507   -1.0814 Cl      1  UNL1       -0.0835
      2 C          -1.1703    2.7548   -0.6469 C.ar    1  UNL1        0.0417
      3 C          -0.2367    1.7625   -0.7471 C.ar    1  UNL1       -0.0322
      4 C          -0.6689    0.4805   -0.3996 C.ar    1  UNL1        0.0258
      5 C          -1.9646    0.2314    0.0136 C.ar    1  UNL1        0.0585
      6 C          -2.9183    1.2387    0.1165 C.ar    1  UNL1       -0.0357
      7 C          -2.4830    2.5165   -0.2266 C.ar    1  UNL1       -0.0414
      8 N          -2.5469   -1.0562    0.3262 N.ar    1  UNL1       -0.2834
      9 C          -3.5385   -1.2384    1.2001 C.ar    1  UNL1        0.1244
     10 N          -3.7141   -2.5622    1.1130 N.ar    1  UNL1       -0.1375
     11 N          -2.9005   -3.1301    0.2620 N.ar    1  UNL1       -0.1324
     12 C          -2.1084   -2.2021   -0.2895 C.ar    1  UNL1        0.1593
     13 C          -1.0123   -2.3723   -1.3285 C.3     1  UNL1        0.1004
     14 N           0.2050   -1.7199   -0.9107 N.2     1  UNL1       -0.2749
     15 C           0.4213   -0.4911   -0.4953 C.2     1  UNL1        0.0752
     16 C           1.7533   -0.0704   -0.1262 C.ar    1  UNL1        0.0006
     17 C           2.3659    0.9998    0.4520 C.ar    1  UNL1       -0.0526
     18 C           3.7103    1.1980    0.6210 C.ar    1  UNL1       -0.0611
     19 C           4.5993    0.2432    0.1804 C.ar    1  UNL1       -0.0617
     20 C           4.0778   -0.8812   -0.4178 C.ar    1  UNL1       -0.0611
     21 C           2.7133   -1.0113   -0.5545 C.ar    1  UNL1       -0.0526
     22 H           0.7739    1.8515   -1.1031 H       1  UNL1        0.0639
     23 H          -3.9129    0.9948    0.4395 H       1  UNL1        0.0639
     24 H          -3.1833    3.3358   -0.1632 H       1  UNL1        0.0633
     25 H          -3.9910   -0.4454    1.7674 H       1  UNL1        0.1052
     26 H          -1.3734   -2.0509   -2.3017 H       1  UNL1        0.0590
     27 H          -0.7869   -3.4770   -1.3384 H       1  UNL1        0.0590
     28 H           1.6198    1.6848    0.8290 H       1  UNL1        0.0624
     29 H           3.9592    2.1223    1.1037 H       1  UNL1        0.0618
     30 H           5.6279    0.5081    0.3672 H       1  UNL1        0.0618
     31 H           4.8111   -1.6015   -0.7458 H       1  UNL1        0.0618
     32 H           2.4771   -1.9632   -1.0502 H       1  UNL1        0.0624
@<TRIPOS>BOND
     1     1     2    1
     2     2     3   ar
     3     3     4   ar
     4     4     5   ar
     5     5     6   ar
     6     6     7   ar
     7     5     8    1
     8     8     9   ar
     9     9    10   ar
    10    10    11   ar
    11    11    12   ar
    12    12    13    1
    13    13    14    1
    14    14    15    2
    15    15    16    1
    16    16    17   ar
    17    17    18   ar
    18    18    19   ar
    19    19    20   ar
    20    20    21   ar
    21     7     2   ar
    22    12     8   ar
    23    21    16   ar
    24    15     4    1
    25     3    22    1
    26     6    23    1
    27     7    24    1
    28     9    25    1
    29    13    26    1
    30    13    27    1
    31    17    28    1
    32    18    29    1
    33    19    30    1
    34    20    31    1
    35    21    32    1
