@<TRIPOS>MOLECULE
*****
 68 72 0 0 0
SMALL
GASTEIGER

@<TRIPOS>ATOM
      1 C           9.9763    1.1620   -0.3535 C.3     1  UNL1       -0.0127
      2 N           9.0048    0.1583   -0.0533 N.3     1  UNL1       -0.3029
      3 C           8.1190   -0.1468   -1.1327 C.3     1  UNL1        0.0114
      4 C           6.7298    0.3767   -0.9998 C.3     1  UNL1        0.0120
      5 N           6.6530    1.5200   -0.1711 N.3     1  UNL1       -0.2957
      6 C           5.4472    2.2502   -0.1924 C.3     1  UNL1        0.0241
      7 C           4.2360    1.5126    0.2120 C.ar    1  UNL1       -0.0333
      8 C           3.5336    0.8544   -0.8047 C.ar    1  UNL1       -0.0566
      9 C           2.3931    0.1309   -0.5815 C.ar    1  UNL1       -0.0493
     10 C           1.8804    0.0188    0.6764 C.ar    1  UNL1        0.0370
     11 C           2.5553    0.6572    1.6854 C.ar    1  UNL1       -0.0493
     12 C           3.6989    1.3888    1.4945 C.ar    1  UNL1       -0.0566
     13 C           0.6776   -0.7204    1.0417 C.2     1  UNL1        0.2483
     14 O           0.2266   -0.8054    2.2212 O.2     1  UNL1       -0.2699
     15 N          -0.0653   -1.3997    0.0586 N.am    1  UNL1       -0.2814
     16 C          -1.2514   -2.1703    0.1934 C.ar    1  UNL1        0.0354
     17 C          -2.5025   -1.6471    0.0931 C.ar    1  UNL1       -0.0190
     18 C          -3.6898   -2.3317    0.2123 C.ar    1  UNL1        0.0383
     19 N          -4.9861   -1.7759    0.1058 N.pl3   1  UNL1       -0.2833
     20 C          -5.3454   -0.4385   -0.1383 C.ar    1  UNL1        0.2200
     21 N          -4.5031    0.5853   -0.3202 N.ar    1  UNL1       -0.2226
     22 C          -4.8810    1.8445   -0.5503 C.ar    1  UNL1        0.0332
     23 C          -6.2253    2.1330   -0.6086 C.ar    1  UNL1       -0.0174
     24 C          -7.1229    1.1077   -0.4266 C.ar    1  UNL1        0.0775
     25 N          -6.6434   -0.1210   -0.2016 N.ar    1  UNL1       -0.2142
     26 C          -8.5619    1.2881   -0.4657 C.ar    1  UNL1        0.0186
     27 C          -9.3769    0.1956   -0.2712 C.ar    1  UNL1        0.0367
     28 N         -10.7305    0.3045   -0.2969 N.ar    1  UNL1       -0.2626
     29 C         -11.3172    1.5119   -0.5185 C.ar    1  UNL1        0.0276
     30 C         -10.5581    2.6655   -0.7243 C.ar    1  UNL1       -0.0430
     31 C          -9.1967    2.4847   -0.6855 C.ar    1  UNL1       -0.0497
     32 C          -3.4945   -3.6853    0.4587 C.ar    1  UNL1       -0.0291
     33 C          -4.6905   -4.5596    0.6123 C.3     1  UNL1       -0.0380
     34 C          -2.2563   -4.2653    0.5692 C.ar    1  UNL1       -0.0553
     35 C          -1.1187   -3.5182    0.4385 C.ar    1  UNL1       -0.0401
     36 C           7.4091    1.5237    1.0305 C.3     1  UNL1        0.0120
     37 C           8.3058    0.3282    1.1841 C.3     1  UNL1        0.0114
     38 H          10.9756    0.6444   -0.3628 H       1  UNL1        0.0391
     39 H          10.0154    1.9234    0.4243 H       1  UNL1        0.0391
     40 H           9.8795    1.5704   -1.3918 H       1  UNL1        0.0391
     41 H           8.0989   -1.2717   -1.2127 H       1  UNL1        0.0439
     42 H           8.6121    0.1727   -2.0966 H       1  UNL1        0.0439
     43 H           6.0524   -0.4489   -0.7448 H       1  UNL1        0.0439
     44 H           6.4134    0.6993   -2.0344 H       1  UNL1        0.0439
     45 H           5.5915    3.1511    0.4661 H       1  UNL1        0.0476
     46 H           5.2813    2.6676   -1.2108 H       1  UNL1        0.0476
     47 H           3.8815    0.8982   -1.8327 H       1  UNL1        0.0621
     48 H           1.8710   -0.3676   -1.3871 H       1  UNL1        0.0625
     49 H           2.1833    0.5983    2.7194 H       1  UNL1        0.0625
     50 H           4.2596    1.9049    2.2556 H       1  UNL1        0.0621
     51 H           0.1801   -1.4206   -0.9477 H       1  UNL1        0.1551
     52 H          -2.5150   -0.5860   -0.0995 H       1  UNL1        0.0655
     53 H          -5.7625   -2.4742    0.2291 H       1  UNL1        0.1550
     54 H          -4.1124    2.6149   -0.6866 H       1  UNL1        0.0831
     55 H          -6.5736    3.1334   -0.7915 H       1  UNL1        0.0654
     56 H          -8.9451   -0.7890   -0.0907 H       1  UNL1        0.0836
     57 H         -12.4031    1.6006   -0.5394 H       1  UNL1        0.0829
     58 H         -10.9927    3.6340   -0.9019 H       1  UNL1        0.0633
     59 H          -8.5963    3.3700   -0.8434 H       1  UNL1        0.0625
     60 H          -5.2730   -4.1770    1.4611 H       1  UNL1        0.0278
     61 H          -5.3351   -4.5453   -0.2945 H       1  UNL1        0.0278
     62 H          -4.4045   -5.6136    0.7759 H       1  UNL1        0.0278
     63 H          -2.1850   -5.3294    0.7626 H       1  UNL1        0.0621
     64 H          -0.1755   -4.0367    0.5366 H       1  UNL1        0.0636
     65 H           6.8077    1.7536    1.9521 H       1  UNL1        0.0439
     66 H           8.1077    2.4097    0.9649 H       1  UNL1        0.0439
     67 H           7.7342   -0.5947    1.3846 H       1  UNL1        0.0439
     68 H           8.9991    0.4908    2.0235 H       1  UNL1        0.0439
@<TRIPOS>BOND
     1     1     2    1
     2     2     3    1
     3     3     4    1
     4     4     5    1
     5     5     6    1
     6     6     7    1
     7     7     8   ar
     8     8     9   ar
     9     9    10   ar
    10    10    11   ar
    11    11    12   ar
    12    10    13    1
    13    13    14    2
    14    13    15   am
    15    15    16    1
    16    16    17   ar
    17    17    18   ar
    18    18    19    1
    19    19    20    1
    20    20    21   ar
    21    21    22   ar
    22    22    23   ar
    23    23    24   ar
    24    24    25   ar
    25    24    26    1
    26    26    27   ar
    27    27    28   ar
    28    28    29   ar
    29    29    30   ar
    30    30    31   ar
    31    18    32   ar
    32    32    33    1
    33    32    34   ar
    34    34    35   ar
    35     5    36    1
    36    36    37    1
    37    37     2    1
    38    12     7   ar
    39    35    16   ar
    40    25    20   ar
    41    31    26   ar
    42     1    38    1
    43     1    39    1
    44     1    40    1
    45     3    41    1
    46     3    42    1
    47     4    43    1
    48     4    44    1
    49     6    45    1
    50     6    46    1
    51     8    47    1
    52     9    48    1
    53    11    49    1
    54    12    50    1
    55    15    51    1
    56    17    52    1
    57    19    53    1
    58    22    54    1
    59    23    55    1
    60    27    56    1
    61    29    57    1
    62    30    58    1
    63    31    59    1
    64    33    60    1
    65    33    61    1
    66    33    62    1
    67    34    63    1
    68    35    64    1
    69    36    65    1
    70    36    66    1
    71    37    67    1
    72    37    68    1
