
     RDKit          3D

 49 52  0  0  0  0  0  0  0  0999 V2000
    1.6192   -0.2242    1.1997 C   0  0  0  0  0  0  0  0  0  0  0  0
    1.7788   -0.3266   -0.2015 N   0  0  0  0  0  0  0  0  0  0  0  0
    0.5911   -0.6744   -0.9556 C   0  0  2  0  0  0  0  0  0  0  0  0
    0.1424    0.5359   -1.6681 C   0  0  0  0  0  0  0  0  0  0  0  0
   -1.3246    0.6618   -1.9336 C   0  0  0  0  0  0  0  0  0  0  0  0
   -2.1319    0.2306   -0.7615 C   0  0  0  0  0  0  0  0  0  0  0  0
   -1.6545   -0.7348    0.1136 C   0  0  0  0  0  0  0  0  0  0  0  0
   -2.6169   -0.9050    1.0847 C   0  0  0  0  0  0  0  0  0  0  0  0
   -2.7504   -1.6724    2.1861 N   0  0  0  0  0  0  0  0  0  0  0  0
   -3.8264   -1.6451    2.9963 C   0  0  0  0  0  0  0  0  0  0  0  0
   -4.8934   -0.7851    2.7180 C   0  0  0  0  0  0  0  0  0  0  0  0
   -4.7857    0.0054    1.6060 C   0  0  0  0  0  0  0  0  0  0  0  0
   -3.6742   -0.0488    0.8027 C   0  0  0  0  0  0  0  0  0  0  0  0
   -3.3239    0.6174   -0.3328 N   0  0  0  0  0  0  0  0  0  0  0  0
   -4.1561    1.6048   -0.9861 C   0  0  0  0  0  0  0  0  0  0  0  0
   -5.0329    1.0370   -2.0121 C   0  0  0  0  0  0  0  0  0  0  0  0
   -4.7043    0.9922   -3.2033 O   0  0  0  0  0  0  0  0  0  0  0  0
   -6.2670    0.5345   -1.6385 O   0  0  0  0  0  0  0  0  0  0  0  0
   -0.3632   -1.3845   -0.0768 C   0  0  0  0  0  0  0  0  0  0  0  0
    3.1855   -1.1228   -0.7154 S   0  0  0  0  0  6  0  0  0  0  0  0
    3.2399   -1.1061   -2.2279 O   0  0  0  0  0  0  0  0  0  0  0  0
    3.2517   -2.5567   -0.3022 O   0  0  0  0  0  0  0  0  0  0  0  0
    4.5726   -0.2302   -0.1380 C   0  0  0  0  0  0  0  0  0  0  0  0
    5.1158   -0.4928    1.1190 C   0  0  0  0  0  0  0  0  0  0  0  0
    6.2047    0.1873    1.6081 C   0  0  0  0  0  0  0  0  0  0  0  0
    6.8137    1.1794    0.8519 C   0  0  0  0  0  0  0  0  0  0  0  0
    7.9011    1.8585    1.3457 F   0  0  0  0  0  0  0  0  0  0  0  0
    6.2917    1.4478   -0.3843 C   0  0  0  0  0  0  0  0  0  0  0  0
    5.2028    0.7597   -0.8599 C   0  0  0  0  0  0  0  0  0  0  0  0
    1.8842   -1.1978    1.6869 H   0  0  0  0  0  0  0  0  0  0  0  0
    0.6463    0.1122    1.5500 H   0  0  0  0  0  0  0  0  0  0  0  0
    2.3569    0.5490    1.5805 H   0  0  0  0  0  0  0  0  0  0  0  0
    0.9579   -1.4131   -1.7252 H   0  0  0  0  0  0  0  0  0  0  0  0
    0.5064    1.4508   -1.1126 H   0  0  0  0  0  0  0  0  0  0  0  0
    0.6639    0.5949   -2.6556 H   0  0  0  0  0  0  0  0  0  0  0  0
   -1.6346    0.0249   -2.7856 H   0  0  0  0  0  0  0  0  0  0  0  0
   -1.5261    1.7104   -2.2299 H   0  0  0  0  0  0  0  0  0  0  0  0
   -3.9253   -2.2611    3.8737 H   0  0  0  0  0  0  0  0  0  0  0  0
   -5.7594   -0.7819    3.3968 H   0  0  0  0  0  0  0  0  0  0  0  0
   -5.5815    0.6807    1.3578 H   0  0  0  0  0  0  0  0  0  0  0  0
   -4.7027    2.1469   -0.1981 H   0  0  0  0  0  0  0  0  0  0  0  0
   -3.4955    2.3552   -1.4911 H   0  0  0  0  0  0  0  0  0  0  0  0
   -7.0655    0.4970   -2.2580 H   0  0  0  0  0  0  0  0  0  0  0  0
    0.0985   -1.7178    0.8977 H   0  0  0  0  0  0  0  0  0  0  0  0
   -0.6094   -2.3875   -0.5598 H   0  0  0  0  0  0  0  0  0  0  0  0
    4.6386   -1.2638    1.6976 H   0  0  0  0  0  0  0  0  0  0  0  0
    6.6338   -0.0110    2.5875 H   0  0  0  0  0  0  0  0  0  0  0  0
    6.7372    2.2050   -0.9943 H   0  0  0  0  0  0  0  0  0  0  0  0
    4.7708    0.9640   -1.8526 H   0  0  0  0  0  0  0  0  0  0  0  0
  1  2  1  0
  2  3  1  0
  3  4  1  0
  4  5  1  0
  5  6  1  0
  6  7  2  0
  7  8  1  0
  8  9  2  0
  9 10  1  0
 10 11  2  0
 11 12  1  0
 12 13  2  0
 13 14  1  0
 14 15  1  0
 15 16  1  0
 16 17  2  0
 16 18  1  0
  7 19  1  0
  2 20  1  0
 20 21  2  0
 20 22  2  0
 20 23  1  0
 23 24  2  0
 24 25  1  0
 25 26  2  0
 26 27  1  0
 26 28  1  0
 28 29  2  0
 19  3  1  0
 29 23  1  0
 14  6  1  0
 13  8  1  0
  1 30  1  0
  1 31  1  0
  1 32  1  0
  3 33  1  6
  4 34  1  0
  4 35  1  0
  5 36  1  0
  5 37  1  0
 10 38  1  0
 11 39  1  0
 12 40  1  0
 15 41  1  0
 15 42  1  0
 18 43  1  0
 19 44  1  0
 19 45  1  0
 24 46  1  0
 25 47  1  0
 28 48  1  0
 29 49  1  0
M  END
$$$$
