@<TRIPOS>MOLECULE
*****
 49 52 0 0 0
SMALL
GASTEIGER

@<TRIPOS>ATOM
      1 C           1.6192   -0.2242    1.1997 C.3     1  UNL1        0.0093
      2 N           1.7788   -0.3266   -0.2015 N.3     1  UNL1       -0.1763
      3 C           0.5911   -0.6744   -0.9556 C.3     1  UNL1        0.0360
      4 C           0.1424    0.5359   -1.6681 C.3     1  UNL1       -0.0300
      5 C          -1.3246    0.6618   -1.9336 C.3     1  UNL1       -0.0105
      6 C          -2.1319    0.2306   -0.7615 C.ar    1  UNL1        0.0252
      7 C          -1.6545   -0.7348    0.1136 C.ar    1  UNL1        0.0009
      8 C          -2.6169   -0.9050    1.0847 C.ar    1  UNL1        0.0921
      9 N          -2.7504   -1.6724    2.1861 N.ar    1  UNL1       -0.2532
     10 C          -3.8264   -1.6451    2.9963 C.ar    1  UNL1        0.0284
     11 C          -4.8934   -0.7851    2.7180 C.ar    1  UNL1       -0.0416
     12 C          -4.7857    0.0054    1.6060 C.ar    1  UNL1       -0.0346
     13 C          -3.6742   -0.0488    0.8027 C.ar    1  UNL1        0.0685
     14 N          -3.3239    0.6174   -0.3328 N.ar    1  UNL1       -0.3316
     15 C          -4.1561    1.6048   -0.9861 C.3     1  UNL1        0.1205
     16 C          -5.0329    1.0370   -2.0121 C.2     1  UNL1        0.3247
     17 O          -4.7043    0.9922   -3.2033 O.2     1  UNL1       -0.2490
     18 O          -6.2670    0.5345   -1.6385 O.3     1  UNL1       -0.4794
     19 C          -0.3632   -1.3845   -0.0768 C.3     1  UNL1       -0.0067
     20 S           3.1855   -1.1228   -0.7154 S.O2    1  UNL1        0.0609
     21 O           3.2399   -1.1061   -2.2279 O.2     1  UNL1       -0.1528
     22 O           3.2517   -2.5567   -0.3022 O.2     1  UNL1       -0.1528
     23 C           4.5726   -0.2302   -0.1380 C.ar    1  UNL1        0.1056
     24 C           5.1158   -0.4928    1.1190 C.ar    1  UNL1       -0.0326
     25 C           6.2047    0.1873    1.6081 C.ar    1  UNL1       -0.0246
     26 C           6.8137    1.1794    0.8519 C.ar    1  UNL1        0.1235
     27 F           7.9011    1.8585    1.3457 F       1  UNL1       -0.2055
     28 C           6.2917    1.4478   -0.3843 C.ar    1  UNL1       -0.0246
     29 C           5.2028    0.7597   -0.8599 C.ar    1  UNL1       -0.0326
     30 H           1.8842   -1.1978    1.6869 H       1  UNL1        0.0408
     31 H           0.6463    0.1122    1.5500 H       1  UNL1        0.0408
     32 H           2.3569    0.5490    1.5805 H       1  UNL1        0.0408
     33 H           0.9579   -1.4131   -1.7252 H       1  UNL1        0.0483
     34 H           0.5064    1.4508   -1.1126 H       1  UNL1        0.0285
     35 H           0.6639    0.5949   -2.6556 H       1  UNL1        0.0285
     36 H          -1.6346    0.0249   -2.7856 H       1  UNL1        0.0328
     37 H          -1.5261    1.7104   -2.2299 H       1  UNL1        0.0328
     38 H          -3.9253   -2.2611    3.8737 H       1  UNL1        0.0830
     39 H          -5.7594   -0.7819    3.3968 H       1  UNL1        0.0633
     40 H          -5.5815    0.6807    1.3578 H       1  UNL1        0.0639
     41 H          -4.7027    2.1469   -0.1981 H       1  UNL1        0.0607
     42 H          -3.4955    2.3552   -1.4911 H       1  UNL1        0.0607
     43 H          -7.0655    0.4970   -2.2580 H       1  UNL1        0.2951
     44 H           0.0985   -1.7178    0.8977 H       1  UNL1        0.0330
     45 H          -0.6094   -2.3875   -0.5598 H       1  UNL1        0.0330
     46 H           4.6386   -1.2638    1.6976 H       1  UNL1        0.0638
     47 H           6.6338   -0.0110    2.5875 H       1  UNL1        0.0647
     48 H           6.7372    2.2050   -0.9943 H       1  UNL1        0.0647
     49 H           4.7708    0.9640   -1.8526 H       1  UNL1        0.0638
@<TRIPOS>BOND
     1     1     2    1
     2     2     3    1
     3     3     4    1
     4     4     5    1
     5     5     6    1
     6     6     7   ar
     7     7     8   ar
     8     8     9   ar
     9     9    10   ar
    10    10    11   ar
    11    11    12   ar
    12    12    13   ar
    13    13    14   ar
    14    14    15    1
    15    15    16    1
    16    16    17    2
    17    16    18    1
    18     7    19    1
    19     2    20    1
    20    20    21    2
    21    20    22    2
    22    20    23    1
    23    23    24   ar
    24    24    25   ar
    25    25    26   ar
    26    26    27    1
    27    26    28   ar
    28    28    29   ar
    29    19     3    1
    30    29    23   ar
    31    14     6   ar
    32    13     8   ar
    33     1    30    1
    34     1    31    1
    35     1    32    1
    36     3    33    1
    37     4    34    1
    38     4    35    1
    39     5    36    1
    40     5    37    1
    41    10    38    1
    42    11    39    1
    43    12    40    1
    44    15    41    1
    45    15    42    1
    46    18    43    1
    47    19    44    1
    48    19    45    1
    49    24    46    1
    50    25    47    1
    51    28    48    1
    52    29    49    1
