
     RDKit          3D

 16 16  0  0  0  0  0  0  0  0999 V2000
    2.6783   -0.1096    0.7728 O   0  0  0  0  0  0  0  0  0  0  0  0
    1.9775   -0.2585   -0.4095 C   0  0  0  0  0  0  0  0  0  0  0  0
    0.4927   -0.1078   -0.2076 C   0  0  0  0  0  0  0  0  0  0  0  0
   -0.0533    1.1127   -0.5511 C   0  0  0  0  0  0  0  0  0  0  0  0
   -1.4175    1.3043   -0.3612 C   0  0  0  0  0  0  0  0  0  0  0  0
   -2.1311    0.2466    0.1621 C   0  0  0  0  0  0  0  0  0  0  0  0
   -1.6141   -0.9885    0.5157 C   0  0  0  0  0  0  0  0  0  0  0  0
   -2.4079   -1.9633    1.0194 F   0  0  0  0  0  0  0  0  0  0  0  0
   -0.2433   -1.1548    0.3156 C   0  0  0  0  0  0  0  0  0  0  0  0
    0.3306   -2.3304    0.6344 F   0  0  0  0  0  0  0  0  0  0  0  0
    2.3262    0.6418    1.3170 H   0  0  0  0  0  0  0  0  0  0  0  0
    2.1651   -1.3186   -0.7526 H   0  0  0  0  0  0  0  0  0  0  0  0
    2.3703    0.4122   -1.1906 H   0  0  0  0  0  0  0  0  0  0  0  0
    0.5926    1.8992   -0.9628 H   0  0  0  0  0  0  0  0  0  0  0  0
   -1.8744    2.2461   -0.6183 H   0  0  0  0  0  0  0  0  0  0  0  0
   -3.1916    0.3688    0.3166 H   0  0  0  0  0  0  0  0  0  0  0  0
  1  2  1  0
  2  3  1  0
  3  4  2  0
  4  5  1  0
  5  6  2  0
  6  7  1  0
  7  8  1  0
  7  9  2  0
  9 10  1  0
  9  3  1  0
  1 11  1  0
  2 12  1  0
  2 13  1  0
  4 14  1  0
  5 15  1  0
  6 16  1  0
M  END
$$$$
