@<TRIPOS>MOLECULE
*****
 16 16 0 0 0
SMALL
GASTEIGER

@<TRIPOS>ATOM
      1 O           2.6783   -0.1096    0.7728 O.3     1  UNL1       -0.3903
      2 C           1.9775   -0.2585   -0.4095 C.3     1  UNL1        0.0720
      3 C           0.4927   -0.1078   -0.2076 C.ar    1  UNL1        0.0158
      4 C          -0.0533    1.1127   -0.5511 C.ar    1  UNL1       -0.0535
      5 C          -1.4175    1.3043   -0.3612 C.ar    1  UNL1       -0.0585
      6 C          -2.1311    0.2466    0.1621 C.ar    1  UNL1       -0.0236
      7 C          -1.6141   -0.9885    0.5157 C.ar    1  UNL1        0.1587
      8 F          -2.4079   -1.9633    1.0194 F       1  UNL1       -0.2025
      9 C          -0.2433   -1.1548    0.3156 C.ar    1  UNL1        0.1637
     10 F           0.3306   -2.3304    0.6344 F       1  UNL1       -0.2021
     11 H           2.3262    0.6418    1.3170 H       1  UNL1        0.2098
     12 H           2.1651   -1.3186   -0.7526 H       1  UNL1        0.0608
     13 H           2.3703    0.4122   -1.1906 H       1  UNL1        0.0608
     14 H           0.5926    1.8992   -0.9628 H       1  UNL1        0.0622
     15 H          -1.8744    2.2461   -0.6183 H       1  UNL1        0.0619
     16 H          -3.1916    0.3688    0.3166 H       1  UNL1        0.0647
@<TRIPOS>BOND
     1     1     2    1
     2     2     3    1
     3     3     4   ar
     4     4     5   ar
     5     5     6   ar
     6     6     7   ar
     7     7     8    1
     8     7     9   ar
     9     9    10    1
    10     9     3   ar
    11     1    11    1
    12     2    12    1
    13     2    13    1
    14     4    14    1
    15     5    15    1
    16     6    16    1
