@<TRIPOS>MOLECULE
*****
 47 49 0 0 0
SMALL
GASTEIGER

@<TRIPOS>ATOM
      1 C           6.4032    2.3993    0.7217 C.3     1  UNL1       -0.0397
      2 C           5.3508    1.4550    0.2047 C.ar    1  UNL1       -0.0503
      3 C           3.9952    1.7134    0.3703 C.ar    1  UNL1       -0.0571
      4 C           3.0373    0.8344   -0.1117 C.ar    1  UNL1       -0.0403
      5 C           3.4184   -0.3167   -0.7677 C.ar    1  UNL1        0.0324
      6 N           2.4138   -1.2000   -1.2387 N.pl3   1  UNL1       -0.2987
      7 C           1.1303   -1.1595   -0.6379 C.ar    1  UNL1        0.1402
      8 N           0.1952   -0.2255   -0.8767 N.ar    1  UNL1       -0.1987
      9 C          -1.0218   -0.2376   -0.2851 C.ar    1  UNL1        0.2171
     10 N          -1.9889    0.7880   -0.5526 N.pl3   1  UNL1       -0.3089
     11 C          -3.2522    0.7013    0.1045 C.3     1  UNL1        0.0427
     12 C          -4.0912   -0.4960   -0.2827 C.3     1  UNL1       -0.0094
     13 C          -5.3335   -0.4561    0.5883 C.3     1  UNL1        0.0495
     14 O          -5.2162    0.4752    1.6027 O.3     1  UNL1       -0.3781
     15 C          -5.1548    1.7835    1.1585 C.3     1  UNL1        0.0645
     16 C          -4.1033    1.9228    0.0516 C.3     1  UNL1        0.0472
     17 N          -4.8258    1.9419   -1.2041 N.3     1  UNL1       -0.3239
     18 N          -1.2778   -1.2373    0.5704 N.ar    1  UNL1       -0.2221
     19 C          -0.4107   -2.2122    0.8719 C.ar    1  UNL1        0.0466
     20 C           0.8188   -2.1734    0.2563 C.ar    1  UNL1        0.0946
     21 C           1.8473   -3.1935    0.5205 C.2     1  UNL1        0.2463
     22 N           1.5424   -4.2681    1.4185 N.am    1  UNL1       -0.3252
     23 O           2.9789   -3.1669   -0.0046 O.2     1  UNL1       -0.2702
     24 C           4.7474   -0.5845   -0.9376 C.ar    1  UNL1       -0.0403
     25 C           5.6919    0.2956   -0.4544 C.ar    1  UNL1       -0.0571
     26 H           6.7075    3.0312   -0.1625 H       1  UNL1        0.0278
     27 H           7.2759    1.7661    1.0335 H       1  UNL1        0.0278
     28 H           5.9952    3.0044    1.5238 H       1  UNL1        0.0278
     29 H           3.7149    2.6385    0.8944 H       1  UNL1        0.0621
     30 H           1.9764    1.0965    0.0458 H       1  UNL1        0.0636
     31 H           2.6113   -1.8627   -2.0058 H       1  UNL1        0.1536
     32 H          -1.7440    1.5486   -1.2029 H       1  UNL1        0.1492
     33 H          -3.0005    0.5631    1.2084 H       1  UNL1        0.0515
     34 H          -3.5606   -1.4552   -0.1870 H       1  UNL1        0.0306
     35 H          -4.3599   -0.3649   -1.3650 H       1  UNL1        0.0306
     36 H          -5.4167   -1.4475    1.0787 H       1  UNL1        0.0560
     37 H          -6.2678   -0.3263   -0.0142 H       1  UNL1        0.0560
     38 H          -6.1215    2.2094    0.8377 H       1  UNL1        0.0576
     39 H          -4.7722    2.3886    2.0324 H       1  UNL1        0.0576
     40 H          -3.5237    2.8634    0.1928 H       1  UNL1        0.0499
     41 H          -5.8598    1.8223   -1.0737 H       1  UNL1        0.1186
     42 H          -4.6758    2.8413   -1.7176 H       1  UNL1        0.1186
     43 H          -0.6014   -3.0253    1.5613 H       1  UNL1        0.0839
     44 H           1.5414   -4.0442    2.4311 H       1  UNL1        0.1453
     45 H           1.3387   -5.2038    1.0466 H       1  UNL1        0.1453
     46 H           5.0942   -1.4970   -1.4542 H       1  UNL1        0.0636
     47 H           6.7533    0.0705   -0.5975 H       1  UNL1        0.0621
@<TRIPOS>BOND
     1     1     2    1
     2     2     3   ar
     3     3     4   ar
     4     4     5   ar
     5     5     6    1
     6     6     7    1
     7     7     8   ar
     8     8     9   ar
     9     9    10    1
    10    10    11    1
    11    11    12    1
    12    12    13    1
    13    13    14    1
    14    14    15    1
    15    15    16    1
    16    16    17    1
    17     9    18   ar
    18    18    19   ar
    19    19    20   ar
    20    20    21    1
    21    21    22   am
    22    21    23    2
    23     5    24   ar
    24    24    25   ar
    25    25     2   ar
    26    20     7   ar
    27    16    11    1
    28     1    26    1
    29     1    27    1
    30     1    28    1
    31     3    29    1
    32     4    30    1
    33     6    31    1
    34    10    32    1
    35    11    33    1
    36    12    34    1
    37    12    35    1
    38    13    36    1
    39    13    37    1
    40    15    38    1
    41    15    39    1
    42    16    40    1
    43    17    41    1
    44    17    42    1
    45    19    43    1
    46    22    44    1
    47    22    45    1
    48    24    46    1
    49    25    47    1
