
     RDKit          3D

 47 49  0  0  0  0  0  0  0  0999 V2000
    6.4032    2.3993    0.7217 C   0  0  0  0  0  0  0  0  0  0  0  0
    5.3508    1.4550    0.2047 C   0  0  0  0  0  0  0  0  0  0  0  0
    3.9952    1.7134    0.3703 C   0  0  0  0  0  0  0  0  0  0  0  0
    3.0373    0.8344   -0.1117 C   0  0  0  0  0  0  0  0  0  0  0  0
    3.4184   -0.3167   -0.7677 C   0  0  0  0  0  0  0  0  0  0  0  0
    2.4138   -1.2000   -1.2387 N   0  0  0  0  0  0  0  0  0  0  0  0
    1.1303   -1.1595   -0.6379 C   0  0  0  0  0  0  0  0  0  0  0  0
    0.1952   -0.2255   -0.8767 N   0  0  0  0  0  0  0  0  0  0  0  0
   -1.0218   -0.2376   -0.2851 C   0  0  0  0  0  0  0  0  0  0  0  0
   -1.9889    0.7880   -0.5526 N   0  0  0  0  0  0  0  0  0  0  0  0
   -3.2522    0.7013    0.1045 C   0  0  2  0  0  0  0  0  0  0  0  0
   -4.0912   -0.4960   -0.2827 C   0  0  0  0  0  0  0  0  0  0  0  0
   -5.3335   -0.4561    0.5883 C   0  0  0  0  0  0  0  0  0  0  0  0
   -5.2162    0.4752    1.6027 O   0  0  0  0  0  0  0  0  0  0  0  0
   -5.1548    1.7835    1.1585 C   0  0  0  0  0  0  0  0  0  0  0  0
   -4.1033    1.9228    0.0516 C   0  0  2  0  0  0  0  0  0  0  0  0
   -4.8258    1.9419   -1.2041 N   0  0  0  0  0  0  0  0  0  0  0  0
   -1.2778   -1.2373    0.5704 N   0  0  0  0  0  0  0  0  0  0  0  0
   -0.4107   -2.2122    0.8719 C   0  0  0  0  0  0  0  0  0  0  0  0
    0.8188   -2.1734    0.2563 C   0  0  0  0  0  0  0  0  0  0  0  0
    1.8473   -3.1935    0.5205 C   0  0  0  0  0  0  0  0  0  0  0  0
    1.5424   -4.2681    1.4185 N   0  0  0  0  0  0  0  0  0  0  0  0
    2.9789   -3.1669   -0.0046 O   0  0  0  0  0  0  0  0  0  0  0  0
    4.7474   -0.5845   -0.9376 C   0  0  0  0  0  0  0  0  0  0  0  0
    5.6919    0.2956   -0.4544 C   0  0  0  0  0  0  0  0  0  0  0  0
    6.7075    3.0312   -0.1625 H   0  0  0  0  0  0  0  0  0  0  0  0
    7.2759    1.7661    1.0335 H   0  0  0  0  0  0  0  0  0  0  0  0
    5.9952    3.0044    1.5238 H   0  0  0  0  0  0  0  0  0  0  0  0
    3.7149    2.6385    0.8944 H   0  0  0  0  0  0  0  0  0  0  0  0
    1.9764    1.0965    0.0458 H   0  0  0  0  0  0  0  0  0  0  0  0
    2.6113   -1.8627   -2.0058 H   0  0  0  0  0  0  0  0  0  0  0  0
   -1.7440    1.5486   -1.2029 H   0  0  0  0  0  0  0  0  0  0  0  0
   -3.0005    0.5631    1.2084 H   0  0  0  0  0  0  0  0  0  0  0  0
   -3.5606   -1.4552   -0.1870 H   0  0  0  0  0  0  0  0  0  0  0  0
   -4.3599   -0.3649   -1.3650 H   0  0  0  0  0  0  0  0  0  0  0  0
   -5.4167   -1.4475    1.0787 H   0  0  0  0  0  0  0  0  0  0  0  0
   -6.2678   -0.3263   -0.0142 H   0  0  0  0  0  0  0  0  0  0  0  0
   -6.1215    2.2094    0.8377 H   0  0  0  0  0  0  0  0  0  0  0  0
   -4.7722    2.3886    2.0324 H   0  0  0  0  0  0  0  0  0  0  0  0
   -3.5237    2.8634    0.1928 H   0  0  0  0  0  0  0  0  0  0  0  0
   -5.8598    1.8223   -1.0737 H   0  0  0  0  0  0  0  0  0  0  0  0
   -4.6758    2.8413   -1.7176 H   0  0  0  0  0  0  0  0  0  0  0  0
   -0.6014   -3.0253    1.5613 H   0  0  0  0  0  0  0  0  0  0  0  0
    1.5414   -4.0442    2.4311 H   0  0  0  0  0  0  0  0  0  0  0  0
    1.3387   -5.2038    1.0466 H   0  0  0  0  0  0  0  0  0  0  0  0
    5.0942   -1.4970   -1.4542 H   0  0  0  0  0  0  0  0  0  0  0  0
    6.7533    0.0705   -0.5975 H   0  0  0  0  0  0  0  0  0  0  0  0
  1  2  1  0
  2  3  2  0
  3  4  1  0
  4  5  2  0
  5  6  1  0
  6  7  1  0
  7  8  2  0
  8  9  1  0
  9 10  1  0
 10 11  1  0
 11 12  1  0
 12 13  1  0
 13 14  1  0
 14 15  1  0
 15 16  1  0
 16 17  1  0
  9 18  2  0
 18 19  1  0
 19 20  2  0
 20 21  1  0
 21 22  1  0
 21 23  2  0
  5 24  1  0
 24 25  2  0
 25  2  1  0
 20  7  1  0
 16 11  1  0
  1 26  1  0
  1 27  1  0
  1 28  1  0
  3 29  1  0
  4 30  1  0
  6 31  1  0
 10 32  1  0
 11 33  1  1
 12 34  1  0
 12 35  1  0
 13 36  1  0
 13 37  1  0
 15 38  1  0
 15 39  1  0
 16 40  1  1
 17 41  1  0
 17 42  1  0
 19 43  1  0
 22 44  1  0
 22 45  1  0
 24 46  1  0
 25 47  1  0
M  END
$$$$
