
     RDKit          3D

 63 67  0  0  0  0  0  0  0  0999 V2000
   -6.0455   -1.7950   -3.2067 C   0  0  0  0  0  0  0  0  0  0  0  0
   -4.7270   -1.2950   -2.7493 C   0  0  0  0  0  0  0  0  0  0  0  0
   -3.6763   -1.3916   -3.6437 C   0  0  0  0  0  0  0  0  0  0  0  0
   -2.4337   -0.9507   -3.2735 C   0  0  0  0  0  0  0  0  0  0  0  0
   -2.1591   -0.4011   -2.0283 C   0  0  0  0  0  0  0  0  0  0  0  0
   -0.8617    0.0326   -1.7104 N   0  0  0  0  0  0  0  0  0  0  0  0
   -0.3729    0.6033   -0.5417 C   0  0  0  0  0  0  0  0  0  0  0  0
   -1.1594    0.7858    0.4130 O   0  0  0  0  0  0  0  0  0  0  0  0
    1.0151    1.0167   -0.3314 C   0  0  0  0  0  0  0  0  0  0  0  0
    2.0164    0.8952   -1.2648 C   0  0  0  0  0  0  0  0  0  0  0  0
    3.3250    1.2902   -1.0547 C   0  0  0  0  0  0  0  0  0  0  0  0
    3.6617    1.8415    0.1612 C   0  0  0  0  0  0  0  0  0  0  0  0
    5.0760    2.2585    0.3665 C   0  0  0  0  0  0  0  0  0  0  0  0
    5.8218    1.1795    0.9222 N   0  0  0  0  0  0  0  0  0  0  0  0
    5.9000   -0.0097    0.1381 C   0  0  0  0  0  0  0  0  0  0  0  0
    7.0607   -0.8772    0.5755 C   0  0  0  0  0  0  0  0  0  0  0  0
    7.3148   -0.8229    1.9799 N   0  0  0  0  0  0  0  0  0  0  0  0
    8.6139   -1.4745    2.2051 C   0  0  0  0  0  0  0  0  0  0  0  0
    7.3914    0.4817    2.5548 C   0  0  0  0  0  0  0  0  0  0  0  0
    7.0840    1.5233    1.4974 C   0  0  0  0  0  0  0  0  0  0  0  0
    2.7028    1.9888    1.1350 C   0  0  0  0  0  0  0  0  0  0  0  0
    1.4145    1.5797    0.8756 C   0  0  0  0  0  0  0  0  0  0  0  0
   -3.2067   -0.3113   -1.1537 C   0  0  0  0  0  0  0  0  0  0  0  0
   -4.4956   -0.7580   -1.5108 C   0  0  0  0  0  0  0  0  0  0  0  0
   -5.5909   -0.6348   -0.5415 C   0  0  0  0  0  0  0  0  0  0  0  0
   -6.7911   -0.0995   -0.9506 C   0  0  0  0  0  0  0  0  0  0  0  0
   -7.8531    0.0285   -0.0471 C   0  0  0  0  0  0  0  0  0  0  0  0
   -7.6888   -0.3875    1.2633 C   0  0  0  0  0  0  0  0  0  0  0  0
   -8.5452   -0.3816    2.3480 C   0  0  0  0  0  0  0  0  0  0  0  0
   -9.8877    0.0706    2.4259 N   0  0  0  0  0  0  0  0  0  0  0  0
   -7.8402   -0.9083    3.3654 N   0  0  0  0  0  0  0  0  0  0  0  0
   -6.6405   -1.2183    2.9509 O   0  0  0  0  0  0  0  0  0  0  0  0
   -6.5051   -0.9191    1.6805 C   0  0  0  0  0  0  0  0  0  0  0  0
   -5.4516   -1.0417    0.7686 C   0  0  0  0  0  0  0  0  0  0  0  0
   -6.6434   -2.1038   -2.3422 H   0  0  0  0  0  0  0  0  0  0  0  0
   -6.5244   -1.0701   -3.8848 H   0  0  0  0  0  0  0  0  0  0  0  0
   -5.8589   -2.7002   -3.8424 H   0  0  0  0  0  0  0  0  0  0  0  0
   -3.8318   -1.8124   -4.6302 H   0  0  0  0  0  0  0  0  0  0  0  0
   -1.6283   -1.0329   -3.9812 H   0  0  0  0  0  0  0  0  0  0  0  0
   -0.1283   -0.0934   -2.4864 H   0  0  0  0  0  0  0  0  0  0  0  0
    1.7725    0.4667   -2.2202 H   0  0  0  0  0  0  0  0  0  0  0  0
    4.0824    1.1672   -1.8456 H   0  0  0  0  0  0  0  0  0  0  0  0
    5.0516    3.0939    1.0903 H   0  0  0  0  0  0  0  0  0  0  0  0
    5.4779    2.6021   -0.6227 H   0  0  0  0  0  0  0  0  0  0  0  0
    4.9868   -0.6285    0.1595 H   0  0  0  0  0  0  0  0  0  0  0  0
    6.0941    0.2596   -0.9345 H   0  0  0  0  0  0  0  0  0  0  0  0
    7.9536   -0.5968   -0.0198 H   0  0  0  0  0  0  0  0  0  0  0  0
    6.8211   -1.9289    0.3118 H   0  0  0  0  0  0  0  0  0  0  0  0
    9.3750   -0.6665    2.0733 H   0  0  0  0  0  0  0  0  0  0  0  0
    8.6336   -1.8325    3.2463 H   0  0  0  0  0  0  0  0  0  0  0  0
    8.7280   -2.2588    1.4502 H   0  0  0  0  0  0  0  0  0  0  0  0
    8.3391    0.6905    3.0975 H   0  0  0  0  0  0  0  0  0  0  0  0
    6.5553    0.5518    3.3063 H   0  0  0  0  0  0  0  0  0  0  0  0
    7.8439    1.5327    0.6925 H   0  0  0  0  0  0  0  0  0  0  0  0
    7.0255    2.5465    1.9438 H   0  0  0  0  0  0  0  0  0  0  0  0
    2.9897    2.4294    2.0957 H   0  0  0  0  0  0  0  0  0  0  0  0
    0.6591    1.6986    1.6499 H   0  0  0  0  0  0  0  0  0  0  0  0
   -3.1223    0.0989   -0.1502 H   0  0  0  0  0  0  0  0  0  0  0  0
   -6.9917    0.2487   -1.9564 H   0  0  0  0  0  0  0  0  0  0  0  0
   -8.7940    0.4357   -0.3206 H   0  0  0  0  0  0  0  0  0  0  0  0
  -10.1669    1.0430    2.1930 H   0  0  0  0  0  0  0  0  0  0  0  0
  -10.6421   -0.5776    2.7253 H   0  0  0  0  0  0  0  0  0  0  0  0
   -4.5226   -1.4610    1.1027 H   0  0  0  0  0  0  0  0  0  0  0  0
  1  2  1  0
  2  3  2  0
  3  4  1  0
  4  5  2  0
  5  6  1  0
  6  7  1  0
  7  8  2  0
  7  9  1  0
  9 10  2  0
 10 11  1  0
 11 12  2  0
 12 13  1  0
 13 14  1  0
 14 15  1  0
 15 16  1  0
 16 17  1  0
 17 18  1  0
 17 19  1  0
 19 20  1  0
 12 21  1  0
 21 22  2  0
  5 23  1  0
 23 24  2  0
 24 25  1  0
 25 26  2  0
 26 27  1  0
 27 28  2  0
 28 29  1  0
 29 30  1  0
 29 31  2  0
 31 32  1  0
 32 33  1  0
 33 34  2  0
 24  2  1  0
 34 25  1  0
 22  9  1  0
 33 28  1  0
 20 14  1  0
  1 35  1  0
  1 36  1  0
  1 37  1  0
  3 38  1  0
  4 39  1  0
  6 40  1  0
 10 41  1  0
 11 42  1  0
 13 43  1  0
 13 44  1  0
 15 45  1  0
 15 46  1  0
 16 47  1  0
 16 48  1  0
 18 49  1  0
 18 50  1  0
 18 51  1  0
 19 52  1  0
 19 53  1  0
 20 54  1  0
 20 55  1  0
 21 56  1  0
 22 57  1  0
 23 58  1  0
 26 59  1  0
 27 60  1  0
 30 61  1  0
 30 62  1  0
 34 63  1  0
M  END
$$$$
