@<TRIPOS>MOLECULE
*****
 63 67 0 0 0
SMALL
GASTEIGER

@<TRIPOS>ATOM
      1 C          -6.0455   -1.7950   -3.2067 C.3     1  UNL1       -0.0391
      2 C          -4.7270   -1.2950   -2.7493 C.ar    1  UNL1       -0.0426
      3 C          -3.6763   -1.3916   -3.6437 C.ar    1  UNL1       -0.0565
      4 C          -2.4337   -0.9507   -3.2735 C.ar    1  UNL1       -0.0402
      5 C          -2.1591   -0.4011   -2.0283 C.ar    1  UNL1        0.0343
      6 N          -0.8617    0.0326   -1.7104 N.am    1  UNL1       -0.2815
      7 C          -0.3729    0.6033   -0.5417 C.2     1  UNL1        0.2483
      8 O          -1.1594    0.7858    0.4130 O.2     1  UNL1       -0.2699
      9 C           1.0151    1.0167   -0.3314 C.ar    1  UNL1        0.0370
     10 C           2.0164    0.8952   -1.2648 C.ar    1  UNL1       -0.0493
     11 C           3.3250    1.2902   -1.0547 C.ar    1  UNL1       -0.0566
     12 C           3.6617    1.8415    0.1612 C.ar    1  UNL1       -0.0333
     13 C           5.0760    2.2585    0.3665 C.3     1  UNL1        0.0241
     14 N           5.8218    1.1795    0.9222 N.3     1  UNL1       -0.2957
     15 C           5.9000   -0.0097    0.1381 C.3     1  UNL1        0.0120
     16 C           7.0607   -0.8772    0.5755 C.3     1  UNL1        0.0114
     17 N           7.3148   -0.8229    1.9799 N.3     1  UNL1       -0.3029
     18 C           8.6139   -1.4745    2.2051 C.3     1  UNL1       -0.0127
     19 C           7.3914    0.4817    2.5548 C.3     1  UNL1        0.0114
     20 C           7.0840    1.5233    1.4974 C.3     1  UNL1        0.0120
     21 C           2.7028    1.9888    1.1350 C.ar    1  UNL1       -0.0566
     22 C           1.4145    1.5797    0.8756 C.ar    1  UNL1       -0.0493
     23 C          -3.2067   -0.3113   -1.1537 C.ar    1  UNL1       -0.0325
     24 C          -4.4956   -0.7580   -1.5108 C.ar    1  UNL1       -0.0131
     25 C          -5.5909   -0.6348   -0.5415 C.ar    1  UNL1       -0.0140
     26 C          -6.7911   -0.0995   -0.9506 C.ar    1  UNL1       -0.0531
     27 C          -7.8531    0.0285   -0.0471 C.ar    1  UNL1       -0.0470
     28 C          -7.6888   -0.3875    1.2633 C.ar    1  UNL1        0.0626
     29 C          -8.5452   -0.3816    2.3480 C.ar    1  UNL1        0.1667
     30 N          -9.8877    0.0706    2.4259 N.pl3   1  UNL1       -0.3400
     31 N          -7.8402   -0.9083    3.3654 N.ar    1  UNL1       -0.0624
     32 O          -6.6405   -1.2183    2.9509 O.2     1  UNL1       -0.3528
     33 C          -6.5051   -0.9191    1.6805 C.ar    1  UNL1        0.1697
     34 C          -5.4516   -1.0417    0.7686 C.ar    1  UNL1       -0.0083
     35 H          -6.6434   -2.1038   -2.3422 H       1  UNL1        0.0278
     36 H          -6.5244   -1.0701   -3.8848 H       1  UNL1        0.0278
     37 H          -5.8589   -2.7002   -3.8424 H       1  UNL1        0.0278
     38 H          -3.8318   -1.8124   -4.6302 H       1  UNL1        0.0621
     39 H          -1.6283   -1.0329   -3.9812 H       1  UNL1        0.0636
     40 H          -0.1283   -0.0934   -2.4864 H       1  UNL1        0.1551
     41 H           1.7725    0.4667   -2.2202 H       1  UNL1        0.0625
     42 H           4.0824    1.1672   -1.8456 H       1  UNL1        0.0621
     43 H           5.0516    3.0939    1.0903 H       1  UNL1        0.0476
     44 H           5.4779    2.6021   -0.6227 H       1  UNL1        0.0476
     45 H           4.9868   -0.6285    0.1595 H       1  UNL1        0.0439
     46 H           6.0941    0.2596   -0.9345 H       1  UNL1        0.0439
     47 H           7.9536   -0.5968   -0.0198 H       1  UNL1        0.0439
     48 H           6.8211   -1.9289    0.3118 H       1  UNL1        0.0439
     49 H           9.3750   -0.6665    2.0733 H       1  UNL1        0.0391
     50 H           8.6336   -1.8325    3.2463 H       1  UNL1        0.0391
     51 H           8.7280   -2.2588    1.4502 H       1  UNL1        0.0391
     52 H           8.3391    0.6905    3.0975 H       1  UNL1        0.0439
     53 H           6.5553    0.5518    3.3063 H       1  UNL1        0.0439
     54 H           7.8439    1.5327    0.6925 H       1  UNL1        0.0439
     55 H           7.0255    2.5465    1.9438 H       1  UNL1        0.0439
     56 H           2.9897    2.4294    2.0957 H       1  UNL1        0.0621
     57 H           0.6591    1.6986    1.6499 H       1  UNL1        0.0625
     58 H          -3.1223    0.0989   -0.1502 H       1  UNL1        0.0642
     59 H          -6.9917    0.2487   -1.9564 H       1  UNL1        0.0624
     60 H          -8.7940    0.4357   -0.3206 H       1  UNL1        0.0626
     61 H         -10.1669    1.0430    2.1930 H       1  UNL1        0.1438
     62 H         -10.6421   -0.5776    2.7253 H       1  UNL1        0.1438
     63 H          -4.5226   -1.4610    1.1027 H       1  UNL1        0.0661
@<TRIPOS>BOND
     1     1     2    1
     2     2     3   ar
     3     3     4   ar
     4     4     5   ar
     5     5     6    1
     6     6     7   am
     7     7     8    2
     8     7     9    1
     9     9    10   ar
    10    10    11   ar
    11    11    12   ar
    12    12    13    1
    13    13    14    1
    14    14    15    1
    15    15    16    1
    16    16    17    1
    17    17    18    1
    18    17    19    1
    19    19    20    1
    20    12    21   ar
    21    21    22   ar
    22     5    23   ar
    23    23    24   ar
    24    24    25    1
    25    25    26   ar
    26    26    27   ar
    27    27    28   ar
    28    28    29   ar
    29    29    30    1
    30    29    31   ar
    31    31    32   ar
    32    32    33   ar
    33    33    34   ar
    34    24     2   ar
    35    34    25   ar
    36    22     9   ar
    37    33    28   ar
    38    20    14    1
    39     1    35    1
    40     1    36    1
    41     1    37    1
    42     3    38    1
    43     4    39    1
    44     6    40    1
    45    10    41    1
    46    11    42    1
    47    13    43    1
    48    13    44    1
    49    15    45    1
    50    15    46    1
    51    16    47    1
    52    16    48    1
    53    18    49    1
    54    18    50    1
    55    18    51    1
    56    19    52    1
    57    19    53    1
    58    20    54    1
    59    20    55    1
    60    21    56    1
    61    22    57    1
    62    23    58    1
    63    26    59    1
    64    27    60    1
    65    30    61    1
    66    30    62    1
    67    34    63    1
