@<TRIPOS>MOLECULE
*****
 50 52 0 0 0
SMALL
GASTEIGER

@<TRIPOS>ATOM
      1 C          -3.1204   -0.1058    2.3898 C.3     1  UNL1        0.0382
      2 O          -1.7937   -0.4137    2.3456 O.3     1  UNL1       -0.3630
      3 C          -1.2207   -0.6124    1.1245 C.3     1  UNL1        0.1661
      4 C           0.2276   -0.9905    1.3758 C.3     1  UNL1        0.2356
      5 O           0.9372   -1.2313    0.1768 O.3     1  UNL1       -0.4439
      6 C           1.9372   -0.3362   -0.1728 C.ar    1  UNL1        0.3193
      7 N           2.6010   -0.6002   -1.3335 N.ar    1  UNL1       -0.2002
      8 C           3.5918    0.1689   -1.8077 C.ar    1  UNL1        0.0453
      9 C           4.2634   -0.1966   -3.0876 C.3     1  UNL1       -0.0221
     10 C           3.9839    1.3010   -1.1001 C.ar    1  UNL1       -0.0193
     11 C           3.3171    1.5649    0.0647 C.ar    1  UNL1        0.0453
     12 C           3.6973    2.7628    0.8586 C.3     1  UNL1       -0.0221
     13 N           2.3266    0.7759    0.5169 N.ar    1  UNL1       -0.2002
     14 C           0.4138   -2.0090    2.4101 C.2     1  UNL1        0.3497
     15 O          -0.2702   -1.8082    3.5955 O.3     1  UNL1       -0.4780
     16 O           1.1523   -3.0455    2.2846 O.2     1  UNL1       -0.2467
     17 C          -1.1171    0.7419    0.4529 C.ar    1  UNL1       -0.0073
     18 C          -1.1157    1.9399    1.1294 C.ar    1  UNL1       -0.0554
     19 C          -1.0254    3.1384    0.4567 C.ar    1  UNL1       -0.0614
     20 C          -0.9348    3.1464   -0.9092 C.ar    1  UNL1       -0.0617
     21 C          -0.9308    1.9921   -1.6389 C.ar    1  UNL1       -0.0614
     22 C          -1.0226    0.8072   -0.9381 C.ar    1  UNL1       -0.0554
     23 C          -1.9252   -1.4669    0.1831 C.ar    1  UNL1       -0.0073
     24 C          -3.0917   -1.0121   -0.3958 C.ar    1  UNL1       -0.0554
     25 C          -3.8143   -1.7829   -1.2988 C.ar    1  UNL1       -0.0614
     26 C          -3.3734   -3.0608   -1.6522 C.ar    1  UNL1       -0.0617
     27 C          -2.2119   -3.5492   -1.0946 C.ar    1  UNL1       -0.0614
     28 C          -1.5512   -2.7287   -0.2090 C.ar    1  UNL1       -0.0554
     29 H          -3.7841   -0.8884    1.9648 H       1  UNL1        0.0524
     30 H          -3.4250   -0.0145    3.4540 H       1  UNL1        0.0524
     31 H          -3.2918    0.8837    1.9365 H       1  UNL1        0.0524
     32 H           0.7058   -0.0520    1.7901 H       1  UNL1        0.0890
     33 H           4.7458   -1.1880   -2.9493 H       1  UNL1        0.0293
     34 H           5.0752    0.5209   -3.2921 H       1  UNL1        0.0293
     35 H           3.5400   -0.2729   -3.9249 H       1  UNL1        0.0293
     36 H           4.7798    1.9195   -1.4804 H       1  UNL1        0.0653
     37 H           3.7786    3.6711    0.2391 H       1  UNL1        0.0293
     38 H           3.0490    2.8993    1.7436 H       1  UNL1        0.0293
     39 H           4.7249    2.5958    1.2760 H       1  UNL1        0.0293
     40 H          -0.1603   -2.5369    4.3137 H       1  UNL1        0.2952
     41 H          -1.1820    1.9276    2.2082 H       1  UNL1        0.0621
     42 H          -1.0278    4.0575    1.0274 H       1  UNL1        0.0618
     43 H          -0.8658    4.1157   -1.3916 H       1  UNL1        0.0618
     44 H          -0.8599    1.9837   -2.7156 H       1  UNL1        0.0618
     45 H          -1.0177   -0.1007   -1.5369 H       1  UNL1        0.0621
     46 H          -3.5610   -0.0723   -0.2452 H       1  UNL1        0.0621
     47 H          -4.7319   -1.4907   -1.7880 H       1  UNL1        0.0618
     48 H          -3.9192   -3.6786   -2.3526 H       1  UNL1        0.0618
     49 H          -1.8606   -4.5272   -1.3560 H       1  UNL1        0.0618
     50 H          -0.6419   -3.1421    0.2111 H       1  UNL1        0.0621
@<TRIPOS>BOND
     1     1     2    1
     2     2     3    1
     3     3     4    1
     4     4     5    1
     5     5     6    1
     6     6     7   ar
     7     7     8   ar
     8     8     9    1
     9     8    10   ar
    10    10    11   ar
    11    11    12    1
    12    11    13   ar
    13     4    14    1
    14    14    15    1
    15    14    16    2
    16     3    17    1
    17    17    18   ar
    18    18    19   ar
    19    19    20   ar
    20    20    21   ar
    21    21    22   ar
    22     3    23    1
    23    23    24   ar
    24    24    25   ar
    25    25    26   ar
    26    26    27   ar
    27    27    28   ar
    28    13     6   ar
    29    22    17   ar
    30    28    23   ar
    31     1    29    1
    32     1    30    1
    33     1    31    1
    34     4    32    1
    35     9    33    1
    36     9    34    1
    37     9    35    1
    38    10    36    1
    39    12    37    1
    40    12    38    1
    41    12    39    1
    42    15    40    1
    43    18    41    1
    44    19    42    1
    45    20    43    1
    46    21    44    1
    47    22    45    1
    48    24    46    1
    49    25    47    1
    50    26    48    1
    51    27    49    1
    52    28    50    1
