@<TRIPOS>MOLECULE
*****
 61 65 0 0 0
SMALL
GASTEIGER

@<TRIPOS>ATOM
      1 C          -3.9378   -4.2980   -0.2296 C.3     1  UNL1       -0.0584
      2 C          -3.1601   -3.3229    0.6350 C.3     1  UNL1        0.0028
      3 C          -3.5657   -1.9315    0.4117 C.ar    1  UNL1        0.1119
      4 N          -4.5468   -1.3113    1.1018 N.ar    1  UNL1       -0.2304
      5 C          -4.6876   -0.0513    0.6662 C.ar    1  UNL1        0.1111
      6 C          -5.5405    0.9602    1.0504 C.ar    1  UNL1       -0.0198
      7 C          -6.5395    0.7639    2.1309 C.3     1  UNL1       -0.0375
      8 C          -5.4490    2.1729    0.4059 C.ar    1  UNL1       -0.0356
      9 C          -4.5072    2.3265   -0.5984 C.ar    1  UNL1        0.0409
     10 C          -4.4252    3.6499   -1.2840 C.3     1  UNL1       -0.0223
     11 N          -3.7015    1.3077   -0.9323 N.ar    1  UNL1       -0.2326
     12 C          -3.7508    0.1034   -0.3337 C.ar    1  UNL1        0.1612
     13 N          -3.0578   -1.0683   -0.4860 N.ar    1  UNL1       -0.3081
     14 C          -2.0221   -1.2160   -1.4558 C.3     1  UNL1        0.0513
     15 C          -0.6694   -0.8378   -0.9814 C.ar    1  UNL1       -0.0273
     16 C           0.2167   -1.7641   -0.4859 C.ar    1  UNL1       -0.0551
     17 C           1.4824   -1.4192   -0.0350 C.ar    1  UNL1       -0.0401
     18 C           1.8832   -0.1020   -0.0783 C.ar    1  UNL1        0.0339
     19 C           1.0314    0.8479   -0.5639 C.ar    1  UNL1       -0.0245
     20 C          -0.2290    0.4842   -1.0098 C.ar    1  UNL1       -0.0519
     21 C           1.6940    2.1780   -0.5047 C.3     1  UNL1       -0.0101
     22 C           3.1648    1.8629   -0.3344 C.3     1  UNL1        0.0174
     23 N           3.0989    0.5637    0.3029 N.pl3   1  UNL1       -0.3128
     24 C           4.0913   -0.0294    1.2064 C.3     1  UNL1        0.1464
     25 C           4.2881    0.7871    2.3990 C.2     1  UNL1        0.3300
     26 O           4.9997    0.4249    3.3660 O.2     1  UNL1       -0.2485
     27 O           3.6853    2.0462    2.5407 O.3     1  UNL1       -0.4791
     28 C           5.3375   -0.1714    0.4279 C.ar    1  UNL1       -0.0164
     29 C           5.2568   -0.7384   -0.8523 C.ar    1  UNL1       -0.0563
     30 C           6.3854   -0.8861   -1.6132 C.ar    1  UNL1       -0.0614
     31 C           7.6224   -0.4886   -1.1543 C.ar    1  UNL1       -0.0617
     32 C           7.7190    0.0649    0.0887 C.ar    1  UNL1       -0.0614
     33 C           6.5653    0.2196    0.8748 C.ar    1  UNL1       -0.0563
     34 H          -3.7325   -5.3135    0.2020 H       1  UNL1        0.0234
     35 H          -3.6130   -4.3198   -1.2667 H       1  UNL1        0.0234
     36 H          -5.0190   -4.1527   -0.1823 H       1  UNL1        0.0234
     37 H          -3.3926   -3.6495    1.6962 H       1  UNL1        0.0340
     38 H          -2.1041   -3.5482    0.5043 H       1  UNL1        0.0340
     39 H          -7.4206    1.3967    1.9039 H       1  UNL1        0.0278
     40 H          -6.8218   -0.3049    2.2342 H       1  UNL1        0.0278
     41 H          -6.0935    1.1797    3.0638 H       1  UNL1        0.0278
     42 H          -6.1066    3.0073    0.6772 H       1  UNL1        0.0639
     43 H          -4.2546    3.4720   -2.3659 H       1  UNL1        0.0292
     44 H          -5.3842    4.1896   -1.2031 H       1  UNL1        0.0292
     45 H          -3.6451    4.2991   -0.8407 H       1  UNL1        0.0292
     46 H          -2.2665   -0.5720   -2.3521 H       1  UNL1        0.0542
     47 H          -1.9639   -2.2446   -1.8868 H       1  UNL1        0.0542
     48 H          -0.0633   -2.8088   -0.4412 H       1  UNL1        0.0621
     49 H           2.1604   -2.1629    0.3497 H       1  UNL1        0.0636
     50 H          -0.9323    1.2083   -1.4015 H       1  UNL1        0.0624
     51 H           1.4887    2.7984   -1.3952 H       1  UNL1        0.0329
     52 H           1.3266    2.6881    0.4025 H       1  UNL1        0.0329
     53 H           3.6927    2.6171    0.2656 H       1  UNL1        0.0467
     54 H           3.6499    1.7144   -1.3412 H       1  UNL1        0.0467
     55 H           3.7765   -1.0493    1.4998 H       1  UNL1        0.0667
     56 H           3.4932    2.3823    3.4820 H       1  UNL1        0.2951
     57 H           4.2857   -1.0635   -1.2426 H       1  UNL1        0.0621
     58 H           6.3248   -1.3207   -2.5949 H       1  UNL1        0.0618
     59 H           8.5150   -0.6154   -1.7792 H       1  UNL1        0.0618
     60 H           8.6931    0.3839    0.4638 H       1  UNL1        0.0618
     61 H           6.6747    0.6608    1.8453 H       1  UNL1        0.0621
@<TRIPOS>BOND
     1     1     2    1
     2     2     3    1
     3     3     4   ar
     4     4     5   ar
     5     5     6   ar
     6     6     7    1
     7     6     8   ar
     8     8     9   ar
     9     9    10    1
    10     9    11   ar
    11    11    12   ar
    12    12    13   ar
    13    13    14    1
    14    14    15    1
    15    15    16   ar
    16    16    17   ar
    17    17    18   ar
    18    18    19   ar
    19    19    20   ar
    20    19    21    1
    21    21    22    1
    22    22    23    1
    23    23    24    1
    24    24    25    1
    25    25    26    2
    26    25    27    1
    27    24    28    1
    28    28    29   ar
    29    29    30   ar
    30    30    31   ar
    31    31    32   ar
    32    32    33   ar
    33    13     3   ar
    34    20    15   ar
    35    33    28   ar
    36    12     5   ar
    37    23    18    1
    38     1    34    1
    39     1    35    1
    40     1    36    1
    41     2    37    1
    42     2    38    1
    43     7    39    1
    44     7    40    1
    45     7    41    1
    46     8    42    1
    47    10    43    1
    48    10    44    1
    49    10    45    1
    50    14    46    1
    51    14    47    1
    52    16    48    1
    53    17    49    1
    54    20    50    1
    55    21    51    1
    56    21    52    1
    57    22    53    1
    58    22    54    1
    59    24    55    1
    60    27    56    1
    61    29    57    1
    62    30    58    1
    63    31    59    1
    64    32    60    1
    65    33    61    1
