
     RDKit          3D

 48 50  0  0  0  0  0  0  0  0999 V2000
   -2.0327   -0.0079   -1.9195 C   0  0  0  0  0  0  0  0  0  0  0  0
   -1.6533   -0.1256   -0.4876 C   0  0  1  0  0  0  0  0  0  0  0  0
   -1.0667    1.0305    0.1224 N   0  0  0  0  0  0  0  0  0  0  0  0
    0.1316    1.4952   -0.4633 C   0  0  0  0  0  0  0  0  0  0  0  0
    1.3398    0.6210   -0.3202 C   0  0  0  0  0  0  0  0  0  0  0  0
    2.5366    1.2871   -1.0170 C   0  0  0  0  0  0  0  0  0  0  0  0
    3.7472    0.4532   -0.8978 C   0  0  0  0  0  0  0  0  0  0  0  0
    4.6092    0.6108    0.1672 C   0  0  0  0  0  0  0  0  0  0  0  0
    5.7239   -0.1983    0.2254 C   0  0  0  0  0  0  0  0  0  0  0  0
    5.9854   -1.1539   -0.7588 C   0  0  0  0  0  0  0  0  0  0  0  0
    5.1147   -1.3056   -1.8258 C   0  0  0  0  0  0  0  0  0  0  0  0
    4.0043   -0.4905   -1.8716 C   0  0  0  0  0  0  0  0  0  0  0  0
    6.6890   -0.0576    1.3717 C   0  0  0  0  0  0  0  0  0  0  0  0
    7.1746    1.2433    1.2825 F   0  0  0  0  0  0  0  0  0  0  0  0
    5.9627   -0.1285    2.5381 F   0  0  0  0  0  0  0  0  0  0  0  0
    7.6719   -1.0048    1.2663 F   0  0  0  0  0  0  0  0  0  0  0  0
   -2.7098   -0.7801    0.3233 C   0  0  0  0  0  0  0  0  0  0  0  0
   -2.6871   -2.1331    0.6466 C   0  0  0  0  0  0  0  0  0  0  0  0
   -3.6312   -2.7928    1.4041 C   0  0  0  0  0  0  0  0  0  0  0  0
   -4.6892   -2.0659    1.8869 C   0  0  0  0  0  0  0  0  0  0  0  0
   -4.7653   -0.7203    1.5978 C   0  0  0  0  0  0  0  0  0  0  0  0
   -5.8718   -0.0619    2.1241 C   0  0  0  0  0  0  0  0  0  0  0  0
   -5.9567    1.2832    1.8361 C   0  0  0  0  0  0  0  0  0  0  0  0
   -5.0163    1.9739    1.0721 C   0  0  0  0  0  0  0  0  0  0  0  0
   -3.9652    1.2221    0.6045 C   0  0  0  0  0  0  0  0  0  0  0  0
   -3.7951   -0.1193    0.8386 C   0  0  0  0  0  0  0  0  0  0  0  0
   -1.4162   -0.6315   -2.6199 H   0  0  0  0  0  0  0  0  0  0  0  0
   -3.0649   -0.4583   -2.0329 H   0  0  0  0  0  0  0  0  0  0  0  0
   -2.1349    1.0062   -2.3099 H   0  0  0  0  0  0  0  0  0  0  0  0
   -0.8013   -0.8824   -0.4826 H   0  0  0  0  0  0  0  0  0  0  0  0
   -1.0569    0.9314    1.1473 H   0  0  0  0  0  0  0  0  0  0  0  0
    0.3825    2.4648    0.0551 H   0  0  0  0  0  0  0  0  0  0  0  0
   -0.0513    1.8064   -1.5157 H   0  0  0  0  0  0  0  0  0  0  0  0
    1.1570   -0.3186   -0.8826 H   0  0  0  0  0  0  0  0  0  0  0  0
    1.6247    0.4383    0.7157 H   0  0  0  0  0  0  0  0  0  0  0  0
    2.7229    2.2791   -0.5312 H   0  0  0  0  0  0  0  0  0  0  0  0
    2.3567    1.4866   -2.0777 H   0  0  0  0  0  0  0  0  0  0  0  0
    4.4402    1.3383    0.9473 H   0  0  0  0  0  0  0  0  0  0  0  0
    6.8801   -1.7443   -0.6315 H   0  0  0  0  0  0  0  0  0  0  0  0
    5.4007   -2.0683   -2.5355 H   0  0  0  0  0  0  0  0  0  0  0  0
    3.3746   -0.6776   -2.7432 H   0  0  0  0  0  0  0  0  0  0  0  0
   -1.8697   -2.7485    0.2890 H   0  0  0  0  0  0  0  0  0  0  0  0
   -3.5415   -3.8512    1.6109 H   0  0  0  0  0  0  0  0  0  0  0  0
   -5.4405   -2.5628    2.4844 H   0  0  0  0  0  0  0  0  0  0  0  0
   -6.6281   -0.5476    2.7192 H   0  0  0  0  0  0  0  0  0  0  0  0
   -6.8031    1.8729    2.2150 H   0  0  0  0  0  0  0  0  0  0  0  0
   -5.1295    3.0248    0.8757 H   0  0  0  0  0  0  0  0  0  0  0  0
   -3.2523    1.7681    0.0123 H   0  0  0  0  0  0  0  0  0  0  0  0
  1  2  1  0
  2  3  1  0
  3  4  1  0
  4  5  1  0
  5  6  1  0
  6  7  1  0
  7  8  2  0
  8  9  1  0
  9 10  2  0
 10 11  1  0
 11 12  2  0
  9 13  1  0
 13 14  1  0
 13 15  1  0
 13 16  1  0
  2 17  1  0
 17 18  2  0
 18 19  1  0
 19 20  2  0
 20 21  1  0
 21 22  2  0
 22 23  1  0
 23 24  2  0
 24 25  1  0
 25 26  2  0
 12  7  1  0
 26 17  1  0
 26 21  1  0
  1 27  1  0
  1 28  1  0
  1 29  1  0
  2 30  1  6
  3 31  1  0
  4 32  1  0
  4 33  1  0
  5 34  1  0
  5 35  1  0
  6 36  1  0
  6 37  1  0
  8 38  1  0
 10 39  1  0
 11 40  1  0
 12 41  1  0
 18 42  1  0
 19 43  1  0
 20 44  1  0
 22 45  1  0
 23 46  1  0
 24 47  1  0
 25 48  1  0
M  END
$$$$
