@<TRIPOS>MOLECULE
*****
 56 58 0 0 0
SMALL
GASTEIGER

@<TRIPOS>ATOM
      1 O           8.1275    0.0684   -0.5215 O.2     1  UNL1       -0.2484
      2 C           7.6655   -0.8834    0.1481 C.2     1  UNL1        0.3308
      3 O           8.5042   -1.5059    1.0554 O.3     1  UNL1       -0.4790
      4 C           6.2745   -1.3014   -0.0468 C.3     1  UNL1        0.1443
      5 O           5.6653   -0.5215   -1.0044 O.3     1  UNL1       -0.3684
      6 C           4.3683   -0.8151   -1.2989 C.3     1  UNL1        0.0512
      7 C           3.4485   -0.6837   -0.1160 C.3     1  UNL1       -0.0175
      8 C           3.4376    0.7092    0.4616 C.3     1  UNL1       -0.0478
      9 C           2.6631    1.6814   -0.3748 C.3     1  UNL1       -0.0468
     10 C           1.2151    1.2328   -0.6209 C.3     1  UNL1       -0.0066
     11 C           0.3630    1.4819    0.5497 C.3     1  UNL1        0.0969
     12 O          -0.9638    1.1676    0.5144 O.3     1  UNL1       -0.4495
     13 C          -1.6990    0.0453    0.4767 C.2     1  UNL1        0.4117
     14 O          -1.1341   -1.0612    0.4919 O.2     1  UNL1       -0.2255
     15 N          -3.1162    0.0521    0.4193 N.am    1  UNL1       -0.2062
     16 C          -3.7809    1.3082    0.4011 C.ar    1  UNL1        0.0445
     17 C          -4.1767    1.9638    1.5339 C.ar    1  UNL1       -0.0398
     18 C          -4.8195    3.1814    1.4793 C.ar    1  UNL1       -0.0600
     19 C          -5.0542    3.7232    0.2548 C.ar    1  UNL1       -0.0616
     20 C          -4.6605    3.0746   -0.9176 C.ar    1  UNL1       -0.0600
     21 C          -4.0239    1.8663   -0.8326 C.ar    1  UNL1       -0.0398
     22 C          -3.8838   -1.1368    0.3792 C.ar    1  UNL1        0.0446
     23 C          -4.2486   -1.7641   -0.7918 C.ar    1  UNL1       -0.0384
     24 C          -4.9989   -2.9251   -0.8003 C.ar    1  UNL1       -0.0416
     25 C          -5.4149   -3.5048    0.3834 C.ar    1  UNL1        0.0411
     26 CL         -6.3682   -4.9810    0.3752 Cl      1  UNL1       -0.0835
     27 C          -5.0541   -2.8834    1.5601 C.ar    1  UNL1       -0.0416
     28 C          -4.2982   -1.7140    1.5634 C.ar    1  UNL1       -0.0384
     29 C           1.2982   -0.0922   -1.2490 C.3     1  UNL1       -0.0468
     30 C           2.0440   -1.1467   -0.4698 C.3     1  UNL1       -0.0478
     31 H           9.1921   -0.9850    1.5940 H       1  UNL1        0.2951
     32 H           6.2515   -2.3866   -0.2782 H       1  UNL1        0.0676
     33 H           5.7615   -1.1835    0.9476 H       1  UNL1        0.0676
     34 H           4.3459   -1.9092   -1.5883 H       1  UNL1        0.0563
     35 H           3.9821   -0.2935   -2.1986 H       1  UNL1        0.0563
     36 H           3.7957   -1.3708    0.6723 H       1  UNL1        0.0323
     37 H           4.4875    1.0669    0.4732 H       1  UNL1        0.0269
     38 H           3.0609    0.7166    1.4960 H       1  UNL1        0.0269
     39 H           3.1010    1.8773   -1.3526 H       1  UNL1        0.0269
     40 H           2.5940    2.6385    0.1799 H       1  UNL1        0.0269
     41 H           0.8659    1.9536   -1.4323 H       1  UNL1        0.0334
     42 H           0.8246    1.0536    1.5023 H       1  UNL1        0.0701
     43 H           0.4028    2.6112    0.7655 H       1  UNL1        0.0701
     44 H          -3.9733    1.5014    2.5088 H       1  UNL1        0.0636
     45 H          -5.1368    3.7091    2.3641 H       1  UNL1        0.0618
     46 H          -5.5580    4.6814    0.1652 H       1  UNL1        0.0618
     47 H          -4.8505    3.5126   -1.9024 H       1  UNL1        0.0618
     48 H          -3.7121    1.3522   -1.7559 H       1  UNL1        0.0636
     49 H          -3.9190   -1.3046   -1.7270 H       1  UNL1        0.0637
     50 H          -5.2799   -3.4092   -1.7247 H       1  UNL1        0.0633
     51 H          -5.3804   -3.3379    2.4947 H       1  UNL1        0.0633
     52 H          -4.0271   -1.2447    2.4942 H       1  UNL1        0.0637
     53 H           1.8355    0.0721   -2.2494 H       1  UNL1        0.0269
     54 H           0.3191   -0.4770   -1.5396 H       1  UNL1        0.0269
     55 H           1.4855   -1.4521    0.4217 H       1  UNL1        0.0269
     56 H           2.1520   -2.0283   -1.1328 H       1  UNL1        0.0269
@<TRIPOS>BOND
     1     1     2    2
     2     2     3    1
     3     2     4    1
     4     4     5    1
     5     5     6    1
     6     6     7    1
     7     7     8    1
     8     8     9    1
     9     9    10    1
    10    10    11    1
    11    11    12    1
    12    12    13    1
    13    13    14    2
    14    13    15   am
    15    15    16    1
    16    16    17   ar
    17    17    18   ar
    18    18    19   ar
    19    19    20   ar
    20    20    21   ar
    21    15    22    1
    22    22    23   ar
    23    23    24   ar
    24    24    25   ar
    25    25    26    1
    26    25    27   ar
    27    27    28   ar
    28    10    29    1
    29    29    30    1
    30    30     7    1
    31    21    16   ar
    32    28    22   ar
    33     3    31    1
    34     4    32    1
    35     4    33    1
    36     6    34    1
    37     6    35    1
    38     7    36    1
    39     8    37    1
    40     8    38    1
    41     9    39    1
    42     9    40    1
    43    10    41    1
    44    11    42    1
    45    11    43    1
    46    17    44    1
    47    18    45    1
    48    19    46    1
    49    20    47    1
    50    21    48    1
    51    23    49    1
    52    24    50    1
    53    27    51    1
    54    28    52    1
    55    29    53    1
    56    29    54    1
    57    30    55    1
    58    30    56    1
