
     RDKit          3D

 56 58  0  0  0  0  0  0  0  0999 V2000
    8.1275    0.0684   -0.5215 O   0  0  0  0  0  0  0  0  0  0  0  0
    7.6655   -0.8834    0.1481 C   0  0  0  0  0  0  0  0  0  0  0  0
    8.5042   -1.5059    1.0554 O   0  0  0  0  0  0  0  0  0  0  0  0
    6.2745   -1.3014   -0.0468 C   0  0  0  0  0  0  0  0  0  0  0  0
    5.6653   -0.5215   -1.0044 O   0  0  0  0  0  0  0  0  0  0  0  0
    4.3683   -0.8151   -1.2989 C   0  0  0  0  0  0  0  0  0  0  0  0
    3.4485   -0.6837   -0.1160 C   0  0  1  0  0  0  0  0  0  0  0  0
    3.4376    0.7092    0.4616 C   0  0  0  0  0  0  0  0  0  0  0  0
    2.6631    1.6814   -0.3748 C   0  0  0  0  0  0  0  0  0  0  0  0
    1.2151    1.2328   -0.6209 C   0  0  2  0  0  0  0  0  0  0  0  0
    0.3630    1.4819    0.5497 C   0  0  0  0  0  0  0  0  0  0  0  0
   -0.9638    1.1676    0.5144 O   0  0  0  0  0  0  0  0  0  0  0  0
   -1.6990    0.0453    0.4767 C   0  0  0  0  0  0  0  0  0  0  0  0
   -1.1341   -1.0612    0.4919 O   0  0  0  0  0  0  0  0  0  0  0  0
   -3.1162    0.0521    0.4193 N   0  0  0  0  0  0  0  0  0  0  0  0
   -3.7809    1.3082    0.4011 C   0  0  0  0  0  0  0  0  0  0  0  0
   -4.1767    1.9638    1.5339 C   0  0  0  0  0  0  0  0  0  0  0  0
   -4.8195    3.1814    1.4793 C   0  0  0  0  0  0  0  0  0  0  0  0
   -5.0542    3.7232    0.2548 C   0  0  0  0  0  0  0  0  0  0  0  0
   -4.6605    3.0746   -0.9176 C   0  0  0  0  0  0  0  0  0  0  0  0
   -4.0239    1.8663   -0.8326 C   0  0  0  0  0  0  0  0  0  0  0  0
   -3.8838   -1.1368    0.3792 C   0  0  0  0  0  0  0  0  0  0  0  0
   -4.2486   -1.7641   -0.7918 C   0  0  0  0  0  0  0  0  0  0  0  0
   -4.9989   -2.9251   -0.8003 C   0  0  0  0  0  0  0  0  0  0  0  0
   -5.4149   -3.5048    0.3834 C   0  0  0  0  0  0  0  0  0  0  0  0
   -6.3682   -4.9810    0.3752 Cl  0  0  0  0  0  0  0  0  0  0  0  0
   -5.0541   -2.8834    1.5601 C   0  0  0  0  0  0  0  0  0  0  0  0
   -4.2982   -1.7140    1.5634 C   0  0  0  0  0  0  0  0  0  0  0  0
    1.2982   -0.0922   -1.2490 C   0  0  0  0  0  0  0  0  0  0  0  0
    2.0440   -1.1467   -0.4698 C   0  0  0  0  0  0  0  0  0  0  0  0
    9.1921   -0.9850    1.5940 H   0  0  0  0  0  0  0  0  0  0  0  0
    6.2515   -2.3866   -0.2782 H   0  0  0  0  0  0  0  0  0  0  0  0
    5.7615   -1.1835    0.9476 H   0  0  0  0  0  0  0  0  0  0  0  0
    4.3459   -1.9092   -1.5883 H   0  0  0  0  0  0  0  0  0  0  0  0
    3.9821   -0.2935   -2.1986 H   0  0  0  0  0  0  0  0  0  0  0  0
    3.7957   -1.3708    0.6723 H   0  0  0  0  0  0  0  0  0  0  0  0
    4.4875    1.0669    0.4732 H   0  0  0  0  0  0  0  0  0  0  0  0
    3.0609    0.7166    1.4960 H   0  0  0  0  0  0  0  0  0  0  0  0
    3.1010    1.8773   -1.3526 H   0  0  0  0  0  0  0  0  0  0  0  0
    2.5940    2.6385    0.1799 H   0  0  0  0  0  0  0  0  0  0  0  0
    0.8659    1.9536   -1.4323 H   0  0  0  0  0  0  0  0  0  0  0  0
    0.8246    1.0536    1.5023 H   0  0  0  0  0  0  0  0  0  0  0  0
    0.4028    2.6112    0.7655 H   0  0  0  0  0  0  0  0  0  0  0  0
   -3.9733    1.5014    2.5088 H   0  0  0  0  0  0  0  0  0  0  0  0
   -5.1368    3.7091    2.3641 H   0  0  0  0  0  0  0  0  0  0  0  0
   -5.5580    4.6814    0.1652 H   0  0  0  0  0  0  0  0  0  0  0  0
   -4.8505    3.5126   -1.9024 H   0  0  0  0  0  0  0  0  0  0  0  0
   -3.7121    1.3522   -1.7559 H   0  0  0  0  0  0  0  0  0  0  0  0
   -3.9190   -1.3046   -1.7270 H   0  0  0  0  0  0  0  0  0  0  0  0
   -5.2799   -3.4092   -1.7247 H   0  0  0  0  0  0  0  0  0  0  0  0
   -5.3804   -3.3379    2.4947 H   0  0  0  0  0  0  0  0  0  0  0  0
   -4.0271   -1.2447    2.4942 H   0  0  0  0  0  0  0  0  0  0  0  0
    1.8355    0.0721   -2.2494 H   0  0  0  0  0  0  0  0  0  0  0  0
    0.3191   -0.4770   -1.5396 H   0  0  0  0  0  0  0  0  0  0  0  0
    1.4855   -1.4521    0.4217 H   0  0  0  0  0  0  0  0  0  0  0  0
    2.1520   -2.0283   -1.1328 H   0  0  0  0  0  0  0  0  0  0  0  0
  1  2  2  0
  2  3  1  0
  2  4  1  0
  4  5  1  0
  5  6  1  0
  6  7  1  0
  7  8  1  0
  8  9  1  0
  9 10  1  0
 10 11  1  0
 11 12  1  0
 12 13  1  0
 13 14  2  0
 13 15  1  0
 15 16  1  0
 16 17  2  0
 17 18  1  0
 18 19  2  0
 19 20  1  0
 20 21  2  0
 15 22  1  0
 22 23  2  0
 23 24  1  0
 24 25  2  0
 25 26  1  0
 25 27  1  0
 27 28  2  0
 10 29  1  0
 29 30  1  0
 30  7  1  0
 21 16  1  0
 28 22  1  0
  3 31  1  0
  4 32  1  0
  4 33  1  0
  6 34  1  0
  6 35  1  0
  7 36  1  1
  8 37  1  0
  8 38  1  0
  9 39  1  0
  9 40  1  0
 10 41  1  6
 11 42  1  0
 11 43  1  0
 17 44  1  0
 18 45  1  0
 19 46  1  0
 20 47  1  0
 21 48  1  0
 23 49  1  0
 24 50  1  0
 27 51  1  0
 28 52  1  0
 29 53  1  0
 29 54  1  0
 30 55  1  0
 30 56  1  0
M  END
$$$$
