
     RDKit          3D

 67 71  0  0  0  0  0  0  0  0999 V2000
   -1.4220   -0.2190   -2.6785 C   0  0  0  0  0  0  0  0  0  0  0  0
   -2.5622    0.6969   -2.2221 C   0  0  0  0  0  0  0  0  0  0  0  0
   -2.5770    1.9694   -2.9978 C   0  0  0  0  0  0  0  0  0  0  0  0
   -3.8707    0.0129   -2.4114 C   0  0  0  0  0  0  0  0  0  0  0  0
   -4.1911   -0.7899   -3.3582 O   0  0  0  0  0  0  0  0  0  0  0  0
   -4.7209    0.3887   -1.3711 N   0  0  0  0  0  0  0  0  0  0  0  0
   -6.1363    0.2911   -1.2336 C   0  0  0  0  0  0  0  0  0  0  0  0
   -6.9577    1.3419   -1.6714 C   0  0  0  0  0  0  0  0  0  0  0  0
   -8.3118    1.2689   -1.4486 C   0  0  0  0  0  0  0  0  0  0  0  0
   -8.9048    0.1658   -0.7912 C   0  0  0  0  0  0  0  0  0  0  0  0
  -10.3289    0.2410   -0.5104 C   0  0  0  0  0  0  0  0  0  0  0  0
  -11.4753    0.3015   -0.2990 N   0  0  0  0  0  0  0  0  0  0  0  0
   -8.1085   -0.8558   -0.3734 C   0  0  0  0  0  0  0  0  0  0  0  0
   -8.7377   -2.0265    0.3153 C   0  0  0  0  0  0  0  0  0  0  0  0
   -9.6667   -2.5384   -0.5928 F   0  0  0  0  0  0  0  0  0  0  0  0
   -7.7508   -3.0091    0.4044 F   0  0  0  0  0  0  0  0  0  0  0  0
   -9.2714   -1.7329    1.5293 F   0  0  0  0  0  0  0  0  0  0  0  0
   -6.7543   -0.7588   -0.6083 C   0  0  0  0  0  0  0  0  0  0  0  0
   -3.8530    0.9445   -0.3515 C   0  0  0  0  0  0  0  0  0  0  0  0
   -4.3495    1.5401    1.0789 S   0  0  0  0  0  0  0  0  0  0  0  0
   -2.5095    0.8898   -0.7961 N   0  0  0  0  0  0  0  0  0  0  0  0
   -1.3670    0.9954    0.0797 C   0  0  0  0  0  0  0  0  0  0  0  0
   -0.8044    2.1919    0.4477 C   0  0  0  0  0  0  0  0  0  0  0  0
    0.2766    2.2384    1.3095 C   0  0  0  0  0  0  0  0  0  0  0  0
    0.8736    1.0991    1.8643 C   0  0  0  0  0  0  0  0  0  0  0  0
    2.0207    1.2856    2.7570 C   0  0  0  0  0  0  0  0  0  0  0  0
    3.2905    1.3281    2.1197 N   0  0  0  0  0  0  0  0  0  0  0  0
    3.8998    2.5339    1.7668 C   0  0  0  0  0  0  0  0  0  0  0  0
    5.1257    2.2669    1.2388 C   0  0  0  0  0  0  0  0  0  0  0  0
    5.2664    0.9066    1.2662 C   0  0  0  0  0  0  0  0  0  0  0  0
    6.3216    0.1003    0.8266 C   0  0  0  0  0  0  0  0  0  0  0  0
    6.2487   -1.2636    0.9197 C   0  0  0  0  0  0  0  0  0  0  0  0
    7.3917   -2.1091    0.5264 C   0  0  0  0  0  0  0  0  0  0  0  0
    8.6045   -1.5729    0.4799 C   0  0  0  0  0  0  0  0  0  0  0  0
    9.8093   -2.2663    0.1037 C   0  0  0  0  0  0  0  0  0  0  0  0
   10.8942   -1.6088    0.1387 O   0  0  0  0  0  0  0  0  0  0  0  0
    9.8769   -3.6070   -0.3012 N   0  0  0  0  0  0  0  0  0  0  0  0
   11.0243   -4.2565   -0.6562 O   0  0  0  0  0  0  0  0  0  0  0  0
    5.1193   -1.8317    1.4557 C   0  0  0  0  0  0  0  0  0  0  0  0
    4.0633   -1.0473    1.9017 C   0  0  0  0  0  0  0  0  0  0  0  0
    4.1297    0.3444    1.8088 C   0  0  0  0  0  0  0  0  0  0  0  0
    0.2996   -0.0879    1.4845 C   0  0  0  0  0  0  0  0  0  0  0  0
    0.7620   -1.2546    1.9836 F   0  0  0  0  0  0  0  0  0  0  0  0
   -0.7971   -0.1419    0.6120 C   0  0  0  0  0  0  0  0  0  0  0  0
   -0.5096    0.0948   -2.1752 H   0  0  0  0  0  0  0  0  0  0  0  0
   -1.6651   -1.2416   -2.3865 H   0  0  0  0  0  0  0  0  0  0  0  0
   -1.3392   -0.0681   -3.7647 H   0  0  0  0  0  0  0  0  0  0  0  0
   -2.7754    2.8145   -2.2849 H   0  0  0  0  0  0  0  0  0  0  0  0
   -1.6129    2.1549   -3.5288 H   0  0  0  0  0  0  0  0  0  0  0  0
   -3.4080    1.9663   -3.7317 H   0  0  0  0  0  0  0  0  0  0  0  0
   -6.4990    2.1877   -2.1768 H   0  0  0  0  0  0  0  0  0  0  0  0
   -8.9735    2.0547   -1.7702 H   0  0  0  0  0  0  0  0  0  0  0  0
   -6.1200   -1.5800   -0.2672 H   0  0  0  0  0  0  0  0  0  0  0  0
   -1.2406    3.1086    0.0358 H   0  0  0  0  0  0  0  0  0  0  0  0
    0.7189    3.1910    1.5938 H   0  0  0  0  0  0  0  0  0  0  0  0
    1.8568    2.3080    3.2623 H   0  0  0  0  0  0  0  0  0  0  0  0
    1.9670    0.5239    3.5822 H   0  0  0  0  0  0  0  0  0  0  0  0
    3.4302    3.4919    1.9119 H   0  0  0  0  0  0  0  0  0  0  0  0
    5.8696    2.9734    0.8518 H   0  0  0  0  0  0  0  0  0  0  0  0
    7.1700    0.6190    0.4103 H   0  0  0  0  0  0  0  0  0  0  0  0
    7.2897   -3.1392    0.2570 H   0  0  0  0  0  0  0  0  0  0  0  0
    8.6485   -0.5182    0.8035 H   0  0  0  0  0  0  0  0  0  0  0  0
    8.9569   -4.1415   -0.3410 H   0  0  0  0  0  0  0  0  0  0  0  0
   11.3943   -3.7031   -1.4168 H   0  0  0  0  0  0  0  0  0  0  0  0
    5.0142   -2.8941    1.5458 H   0  0  0  0  0  0  0  0  0  0  0  0
    3.1967   -1.4776    2.3422 H   0  0  0  0  0  0  0  0  0  0  0  0
   -1.2392   -1.0908    0.3325 H   0  0  0  0  0  0  0  0  0  0  0  0
  1  2  1  0
  2  3  1  0
  2  4  1  0
  4  5  2  0
  4  6  1  0
  6  7  1  0
  7  8  2  0
  8  9  1  0
  9 10  2  0
 10 11  1  0
 11 12  3  0
 10 13  1  0
 13 14  1  0
 14 15  1  0
 14 16  1  0
 14 17  1  0
 13 18  2  0
  6 19  1  0
 19 20  2  0
 19 21  1  0
 21 22  1  0
 22 23  2  0
 23 24  1  0
 24 25  2  0
 25 26  1  0
 26 27  1  0
 27 28  1  0
 28 29  2  0
 29 30  1  0
 30 31  2  0
 31 32  1  0
 32 33  1  0
 33 34  2  0
 34 35  1  0
 35 36  2  0
 35 37  1  0
 37 38  1  0
 32 39  2  0
 39 40  1  0
 40 41  2  0
 25 42  1  0
 42 43  1  0
 42 44  2  0
 21  2  1  0
 44 22  1  0
 18  7  1  0
 41 27  1  0
 41 30  1  0
  1 45  1  0
  1 46  1  0
  1 47  1  0
  3 48  1  0
  3 49  1  0
  3 50  1  0
  8 51  1  0
  9 52  1  0
 18 53  1  0
 23 54  1  0
 24 55  1  0
 26 56  1  0
 26 57  1  0
 28 58  1  0
 29 59  1  0
 31 60  1  0
 33 61  1  0
 34 62  1  0
 37 63  1  0
 38 64  1  0
 39 65  1  0
 40 66  1  0
 44 67  1  0
M  END
$$$$
