@<TRIPOS>MOLECULE
*****
 67 71 0 0 0
SMALL
GASTEIGER

@<TRIPOS>ATOM
      1 C          -1.4220   -0.2190   -2.6785 C.3     1  UNL1       -0.0349
      2 C          -2.5622    0.6969   -2.2221 C.3     1  UNL1        0.1123
      3 C          -2.5770    1.9694   -2.9978 C.3     1  UNL1       -0.0349
      4 C          -3.8707    0.0129   -2.4114 C.2     1  UNL1        0.2489
      5 O          -4.1911   -0.7899   -3.3582 O.2     1  UNL1       -0.2725
      6 N          -4.7209    0.3887   -1.3711 N.am    1  UNL1       -0.2196
      7 C          -6.1363    0.2911   -1.2336 C.ar    1  UNL1        0.0436
      8 C          -6.9577    1.3419   -1.6714 C.ar    1  UNL1       -0.0386
      9 C          -8.3118    1.2689   -1.4486 C.ar    1  UNL1       -0.0420
     10 C          -8.9048    0.1658   -0.7912 C.ar    1  UNL1        0.0635
     11 C         -10.3289    0.2410   -0.5104 C.1     1  UNL1        0.0997
     12 N         -11.4753    0.3015   -0.2990 N.1     1  UNL1       -0.1909
     13 C          -8.1085   -0.8558   -0.3734 C.ar    1  UNL1        0.0739
     14 C          -8.7377   -2.0265    0.3153 C.3     1  UNL1        0.4187
     15 F          -9.6667   -2.5384   -0.5928 F       1  UNL1       -0.1659
     16 F          -7.7508   -3.0091    0.4044 F       1  UNL1       -0.1659
     17 F          -9.2714   -1.7329    1.5293 F       1  UNL1       -0.1659
     18 C          -6.7543   -0.7588   -0.6083 C.ar    1  UNL1       -0.0270
     19 C          -3.8530    0.9445   -0.3515 C.2     1  UNL1        0.1515
     20 S          -4.3495    1.5401    1.0789 S.2     1  UNL1       -0.0174
     21 N          -2.5095    0.8898   -0.7961 N.am    1  UNL1       -0.2676
     22 C          -1.3670    0.9954    0.0797 C.ar    1  UNL1        0.0392
     23 C          -0.8044    2.1919    0.4477 C.ar    1  UNL1       -0.0398
     24 C           0.2766    2.2384    1.3095 C.ar    1  UNL1       -0.0524
     25 C           0.8736    1.0991    1.8643 C.ar    1  UNL1        0.0075
     26 C           2.0207    1.2856    2.7570 C.3     1  UNL1        0.0510
     27 N           3.2905    1.3281    2.1197 N.ar    1  UNL1       -0.3422
     28 C           3.8998    2.5339    1.7668 C.ar    1  UNL1        0.0061
     29 C           5.1257    2.2669    1.2388 C.ar    1  UNL1       -0.0364
     30 C           5.2664    0.9066    1.2662 C.ar    1  UNL1        0.0004
     31 C           6.3216    0.1003    0.8266 C.ar    1  UNL1       -0.0454
     32 C           6.2487   -1.2636    0.9197 C.ar    1  UNL1       -0.0242
     33 C           7.3917   -2.1091    0.5264 C.2     1  UNL1       -0.0496
     34 C           8.6045   -1.5729    0.4799 C.2     1  UNL1        0.0027
     35 C           9.8093   -2.2663    0.1037 C.2     1  UNL1        0.2593
     36 O          10.8942   -1.6088    0.1387 O.2     1  UNL1       -0.2687
     37 N           9.8769   -3.6070   -0.3012 N.am    1  UNL1       -0.1940
     38 O          11.0243   -4.2565   -0.6562 O.3     1  UNL1       -0.2949
     39 C           5.1193   -1.8317    1.4557 C.ar    1  UNL1       -0.0526
     40 C           4.0633   -1.0473    1.9017 C.ar    1  UNL1       -0.0370
     41 C           4.1297    0.3444    1.8088 C.ar    1  UNL1        0.0494
     42 C           0.2996   -0.0879    1.4845 C.ar    1  UNL1        0.1300
     43 F           0.7620   -1.2546    1.9836 F       1  UNL1       -0.2051
     44 C          -0.7971   -0.1419    0.6120 C.ar    1  UNL1       -0.0047
     45 H          -0.5096    0.0948   -2.1752 H       1  UNL1        0.0255
     46 H          -1.6651   -1.2416   -2.3865 H       1  UNL1        0.0255
     47 H          -1.3392   -0.0681   -3.7647 H       1  UNL1        0.0255
     48 H          -2.7754    2.8145   -2.2849 H       1  UNL1        0.0255
     49 H          -1.6129    2.1549   -3.5288 H       1  UNL1        0.0255
     50 H          -3.4080    1.9663   -3.7317 H       1  UNL1        0.0255
     51 H          -6.4990    2.1877   -2.1768 H       1  UNL1        0.0637
     52 H          -8.9735    2.0547   -1.7702 H       1  UNL1        0.0631
     53 H          -6.1200   -1.5800   -0.2672 H       1  UNL1        0.0642
     54 H          -1.2406    3.1086    0.0358 H       1  UNL1        0.0636
     55 H           0.7189    3.1910    1.5938 H       1  UNL1        0.0622
     56 H           1.8568    2.3080    3.2623 H       1  UNL1        0.0542
     57 H           1.9670    0.5239    3.5822 H       1  UNL1        0.0542
     58 H           3.4302    3.4919    1.9119 H       1  UNL1        0.0809
     59 H           5.8696    2.9734    0.8518 H       1  UNL1        0.0639
     60 H           7.1700    0.6190    0.4103 H       1  UNL1        0.0630
     61 H           7.2897   -3.1392    0.2570 H       1  UNL1        0.0625
     62 H           8.6485   -0.5182    0.8035 H       1  UNL1        0.0670
     63 H           8.9569   -4.1415   -0.3410 H       1  UNL1        0.1825
     64 H          11.3943   -3.7031   -1.4168 H       1  UNL1        0.2414
     65 H           5.0142   -2.8941    1.5458 H       1  UNL1        0.0624
     66 H           3.1967   -1.4776    2.3422 H       1  UNL1        0.0638
     67 H          -1.2392   -1.0908    0.3325 H       1  UNL1        0.0665
@<TRIPOS>BOND
     1     1     2    1
     2     2     3    1
     3     2     4    1
     4     4     5    2
     5     4     6   am
     6     6     7    1
     7     7     8   ar
     8     8     9   ar
     9     9    10   ar
    10    10    11    1
    11    11    12    3
    12    10    13   ar
    13    13    14    1
    14    14    15    1
    15    14    16    1
    16    14    17    1
    17    13    18   ar
    18     6    19    1
    19    19    20    2
    20    19    21    1
    21    21    22    1
    22    22    23   ar
    23    23    24   ar
    24    24    25   ar
    25    25    26    1
    26    26    27    1
    27    27    28   ar
    28    28    29   ar
    29    29    30   ar
    30    30    31   ar
    31    31    32   ar
    32    32    33    1
    33    33    34    2
    34    34    35    1
    35    35    36    2
    36    35    37   am
    37    37    38    1
    38    32    39   ar
    39    39    40   ar
    40    40    41   ar
    41    25    42   ar
    42    42    43    1
    43    42    44   ar
    44    21     2    1
    45    44    22   ar
    46    18     7   ar
    47    41    27   ar
    48    41    30   ar
    49     1    45    1
    50     1    46    1
    51     1    47    1
    52     3    48    1
    53     3    49    1
    54     3    50    1
    55     8    51    1
    56     9    52    1
    57    18    53    1
    58    23    54    1
    59    24    55    1
    60    26    56    1
    61    26    57    1
    62    28    58    1
    63    29    59    1
    64    31    60    1
    65    33    61    1
    66    34    62    1
    67    37    63    1
    68    38    64    1
    69    39    65    1
    70    40    66    1
    71    44    67    1
