@<TRIPOS>MOLECULE
*****
 61 64 0 0 0
SMALL
GASTEIGER

@<TRIPOS>ATOM
      1 C          -5.0342    1.5302    1.3662 C.3     1  UNL1       -0.0613
      2 C          -5.4169    0.7493    0.1113 C.3     1  UNL1       -0.0302
      3 C          -4.3474    0.7815   -0.8777 C.ar    1  UNL1       -0.0425
      4 C          -4.4483    1.6320   -1.9697 C.ar    1  UNL1       -0.0583
      5 C          -3.4470    1.7113   -2.9223 C.ar    1  UNL1       -0.0615
      6 C          -2.3235    0.9254   -2.7805 C.ar    1  UNL1       -0.0614
      7 C          -2.2292    0.0718   -1.6796 C.ar    1  UNL1       -0.0563
      8 C          -3.2381    0.0018   -0.7342 C.ar    1  UNL1       -0.0183
      9 C          -3.1247   -0.9135    0.4051 C.3     1  UNL1        0.1129
     10 C          -1.7780   -0.7531    1.0306 C.2     1  UNL1        0.2389
     11 O          -1.5205    0.3277    1.6039 O.2     1  UNL1       -0.2734
     12 N          -0.7775   -1.7555    1.0107 N.am    1  UNL1       -0.2839
     13 C           0.4800   -1.5293    1.6347 C.ar    1  UNL1        0.0342
     14 C           0.6867   -1.8776    2.9630 C.ar    1  UNL1       -0.0385
     15 C           1.9073   -1.6594    3.5718 C.ar    1  UNL1       -0.0345
     16 C           2.9655   -1.0931    2.8999 C.ar    1  UNL1        0.0665
     17 N           4.2306   -0.7665    3.2177 N.ar    1  UNL1       -0.2764
     18 N           4.8022   -0.2447    2.1717 N.ar    1  UNL1       -0.1727
     19 C           3.9493   -0.1990    1.1119 C.ar    1  UNL1        0.1003
     20 C           4.2391    0.3199   -0.2115 C.ar    1  UNL1        0.0045
     21 C           3.8702   -0.3966   -1.3347 C.ar    1  UNL1       -0.0524
     22 C           4.1339    0.0777   -2.6110 C.ar    1  UNL1       -0.0593
     23 C           4.7735    1.2813   -2.8142 C.ar    1  UNL1       -0.0353
     24 C           5.1538    2.0193   -1.6953 C.ar    1  UNL1        0.1056
     25 S           5.9777    3.5664   -1.8903 S.O2    1  UNL1        0.0560
     26 N           7.6977    3.3232   -1.9147 N.3     1  UNL1       -0.2035
     27 O           5.5507    4.1417   -3.2086 O.2     1  UNL1       -0.1533
     28 O           5.6211    4.4951   -0.7859 O.2     1  UNL1       -0.1533
     29 C           4.8771    1.5202   -0.4420 C.ar    1  UNL1       -0.0261
     30 C           2.7720   -0.7409    1.5732 C.ar    1  UNL1        0.0291
     31 C           1.5424   -0.9626    0.9665 C.ar    1  UNL1       -0.0292
     32 N          -3.3070   -2.2682   -0.0771 N.3     1  UNL1       -0.2940
     33 C          -3.2958   -3.2538    0.9743 C.3     1  UNL1       -0.0120
     34 C          -4.4544   -2.4262   -0.9309 C.3     1  UNL1       -0.0120
     35 H          -5.6743    2.4268    1.4663 H       1  UNL1        0.0233
     36 H          -3.9932    1.8759    1.2803 H       1  UNL1        0.0233
     37 H          -5.1960    0.9170    2.2930 H       1  UNL1        0.0233
     38 H          -5.7635   -0.2519    0.4285 H       1  UNL1        0.0311
     39 H          -6.3152    1.2425   -0.3143 H       1  UNL1        0.0311
     40 H          -5.3197    2.2534   -2.0962 H       1  UNL1        0.0620
     41 H          -3.4851    2.3590   -3.7865 H       1  UNL1        0.0618
     42 H          -1.5363    0.9772   -3.5141 H       1  UNL1        0.0618
     43 H          -1.3418   -0.5397   -1.5807 H       1  UNL1        0.0621
     44 H          -3.8630   -0.7466    1.1947 H       1  UNL1        0.0609
     45 H          -0.9699   -2.6805    0.5212 H       1  UNL1        0.1549
     46 H          -0.0875   -2.3280    3.5686 H       1  UNL1        0.0637
     47 H           2.0807   -1.9303    4.6196 H       1  UNL1        0.0639
     48 H           4.6246   -0.9343    4.1722 H       1  UNL1        0.1889
     49 H           3.3659   -1.3540   -1.2536 H       1  UNL1        0.0624
     50 H           3.8480   -0.4783   -3.5047 H       1  UNL1        0.0618
     51 H           4.9856    1.6638   -3.8091 H       1  UNL1        0.0637
     52 H           8.1459    4.0547   -1.2863 H       1  UNL1        0.1442
     53 H           7.8786    2.4144   -1.4457 H       1  UNL1        0.1442
     54 H           5.1656    2.0807    0.4458 H       1  UNL1        0.0644
     55 H           1.4214   -0.6768   -0.0599 H       1  UNL1        0.0643
     56 H          -2.8660   -4.1848    0.5873 H       1  UNL1        0.0391
     57 H          -2.8982   -2.9004    1.9215 H       1  UNL1        0.0391
     58 H          -4.3809   -3.4950    1.1820 H       1  UNL1        0.0391
     59 H          -4.6120   -1.5387   -1.5552 H       1  UNL1        0.0391
     60 H          -4.3573   -3.3601   -1.5303 H       1  UNL1        0.0391
     61 H          -5.3446   -2.5018   -0.2373 H       1  UNL1        0.0391
@<TRIPOS>BOND
     1     1     2    1
     2     2     3    1
     3     3     4   ar
     4     4     5   ar
     5     5     6   ar
     6     6     7   ar
     7     7     8   ar
     8     8     9    1
     9     9    10    1
    10    10    11    2
    11    10    12   am
    12    12    13    1
    13    13    14   ar
    14    14    15   ar
    15    15    16   ar
    16    16    17   ar
    17    17    18   ar
    18    18    19   ar
    19    19    20    1
    20    20    21   ar
    21    21    22   ar
    22    22    23   ar
    23    23    24   ar
    24    24    25    1
    25    25    26    1
    26    25    27    2
    27    25    28    2
    28    24    29   ar
    29    19    30   ar
    30    30    31   ar
    31     9    32    1
    32    32    33    1
    33    32    34    1
    34     8     3   ar
    35    31    13   ar
    36    30    16   ar
    37    29    20   ar
    38     1    35    1
    39     1    36    1
    40     1    37    1
    41     2    38    1
    42     2    39    1
    43     4    40    1
    44     5    41    1
    45     6    42    1
    46     7    43    1
    47     9    44    1
    48    12    45    1
    49    14    46    1
    50    15    47    1
    51    17    48    1
    52    21    49    1
    53    22    50    1
    54    23    51    1
    55    26    52    1
    56    26    53    1
    57    29    54    1
    58    31    55    1
    59    33    56    1
    60    33    57    1
    61    33    58    1
    62    34    59    1
    63    34    60    1
    64    34    61    1
