
     RDKit          3D

 61 64  0  0  0  0  0  0  0  0999 V2000
   -5.0342    1.5302    1.3662 C   0  0  0  0  0  0  0  0  0  0  0  0
   -5.4169    0.7493    0.1113 C   0  0  0  0  0  0  0  0  0  0  0  0
   -4.3474    0.7815   -0.8777 C   0  0  0  0  0  0  0  0  0  0  0  0
   -4.4483    1.6320   -1.9697 C   0  0  0  0  0  0  0  0  0  0  0  0
   -3.4470    1.7113   -2.9223 C   0  0  0  0  0  0  0  0  0  0  0  0
   -2.3235    0.9254   -2.7805 C   0  0  0  0  0  0  0  0  0  0  0  0
   -2.2292    0.0718   -1.6796 C   0  0  0  0  0  0  0  0  0  0  0  0
   -3.2381    0.0018   -0.7342 C   0  0  0  0  0  0  0  0  0  0  0  0
   -3.1247   -0.9135    0.4051 C   0  0  0  0  0  0  0  0  0  0  0  0
   -1.7780   -0.7531    1.0306 C   0  0  0  0  0  0  0  0  0  0  0  0
   -1.5205    0.3277    1.6039 O   0  0  0  0  0  0  0  0  0  0  0  0
   -0.7775   -1.7555    1.0107 N   0  0  0  0  0  0  0  0  0  0  0  0
    0.4800   -1.5293    1.6347 C   0  0  0  0  0  0  0  0  0  0  0  0
    0.6867   -1.8776    2.9630 C   0  0  0  0  0  0  0  0  0  0  0  0
    1.9073   -1.6594    3.5718 C   0  0  0  0  0  0  0  0  0  0  0  0
    2.9655   -1.0931    2.8999 C   0  0  0  0  0  0  0  0  0  0  0  0
    4.2306   -0.7665    3.2177 N   0  0  0  0  0  0  0  0  0  0  0  0
    4.8022   -0.2447    2.1717 N   0  0  0  0  0  0  0  0  0  0  0  0
    3.9493   -0.1990    1.1119 C   0  0  0  0  0  0  0  0  0  0  0  0
    4.2391    0.3199   -0.2115 C   0  0  0  0  0  0  0  0  0  0  0  0
    3.8702   -0.3966   -1.3347 C   0  0  0  0  0  0  0  0  0  0  0  0
    4.1339    0.0777   -2.6110 C   0  0  0  0  0  0  0  0  0  0  0  0
    4.7735    1.2813   -2.8142 C   0  0  0  0  0  0  0  0  0  0  0  0
    5.1538    2.0193   -1.6953 C   0  0  0  0  0  0  0  0  0  0  0  0
    5.9777    3.5664   -1.8903 S   0  0  0  0  0  6  0  0  0  0  0  0
    7.6977    3.3232   -1.9147 N   0  0  0  0  0  0  0  0  0  0  0  0
    5.5507    4.1417   -3.2086 O   0  0  0  0  0  0  0  0  0  0  0  0
    5.6211    4.4951   -0.7859 O   0  0  0  0  0  0  0  0  0  0  0  0
    4.8771    1.5202   -0.4420 C   0  0  0  0  0  0  0  0  0  0  0  0
    2.7720   -0.7409    1.5732 C   0  0  0  0  0  0  0  0  0  0  0  0
    1.5424   -0.9626    0.9665 C   0  0  0  0  0  0  0  0  0  0  0  0
   -3.3070   -2.2682   -0.0771 N   0  0  0  0  0  0  0  0  0  0  0  0
   -3.2958   -3.2538    0.9743 C   0  0  0  0  0  0  0  0  0  0  0  0
   -4.4544   -2.4262   -0.9309 C   0  0  0  0  0  0  0  0  0  0  0  0
   -5.6743    2.4268    1.4663 H   0  0  0  0  0  0  0  0  0  0  0  0
   -3.9932    1.8759    1.2803 H   0  0  0  0  0  0  0  0  0  0  0  0
   -5.1960    0.9170    2.2930 H   0  0  0  0  0  0  0  0  0  0  0  0
   -5.7635   -0.2519    0.4285 H   0  0  0  0  0  0  0  0  0  0  0  0
   -6.3152    1.2425   -0.3143 H   0  0  0  0  0  0  0  0  0  0  0  0
   -5.3197    2.2534   -2.0962 H   0  0  0  0  0  0  0  0  0  0  0  0
   -3.4851    2.3590   -3.7865 H   0  0  0  0  0  0  0  0  0  0  0  0
   -1.5363    0.9772   -3.5141 H   0  0  0  0  0  0  0  0  0  0  0  0
   -1.3418   -0.5397   -1.5807 H   0  0  0  0  0  0  0  0  0  0  0  0
   -3.8630   -0.7466    1.1947 H   0  0  0  0  0  0  0  0  0  0  0  0
   -0.9699   -2.6805    0.5212 H   0  0  0  0  0  0  0  0  0  0  0  0
   -0.0875   -2.3280    3.5686 H   0  0  0  0  0  0  0  0  0  0  0  0
    2.0807   -1.9303    4.6196 H   0  0  0  0  0  0  0  0  0  0  0  0
    4.6246   -0.9343    4.1722 H   0  0  0  0  0  0  0  0  0  0  0  0
    3.3659   -1.3540   -1.2536 H   0  0  0  0  0  0  0  0  0  0  0  0
    3.8480   -0.4783   -3.5047 H   0  0  0  0  0  0  0  0  0  0  0  0
    4.9856    1.6638   -3.8091 H   0  0  0  0  0  0  0  0  0  0  0  0
    8.1459    4.0547   -1.2863 H   0  0  0  0  0  0  0  0  0  0  0  0
    7.8786    2.4144   -1.4457 H   0  0  0  0  0  0  0  0  0  0  0  0
    5.1656    2.0807    0.4458 H   0  0  0  0  0  0  0  0  0  0  0  0
    1.4214   -0.6768   -0.0599 H   0  0  0  0  0  0  0  0  0  0  0  0
   -2.8660   -4.1848    0.5873 H   0  0  0  0  0  0  0  0  0  0  0  0
   -2.8982   -2.9004    1.9215 H   0  0  0  0  0  0  0  0  0  0  0  0
   -4.3809   -3.4950    1.1820 H   0  0  0  0  0  0  0  0  0  0  0  0
   -4.6120   -1.5387   -1.5552 H   0  0  0  0  0  0  0  0  0  0  0  0
   -4.3573   -3.3601   -1.5303 H   0  0  0  0  0  0  0  0  0  0  0  0
   -5.3446   -2.5018   -0.2373 H   0  0  0  0  0  0  0  0  0  0  0  0
  1  2  1  0
  2  3  1  0
  3  4  2  0
  4  5  1  0
  5  6  2  0
  6  7  1  0
  7  8  2  0
  8  9  1  0
  9 10  1  0
 10 11  2  0
 10 12  1  0
 12 13  1  0
 13 14  2  0
 14 15  1  0
 15 16  2  0
 16 17  1  0
 17 18  1  0
 18 19  2  0
 19 20  1  0
 20 21  2  0
 21 22  1  0
 22 23  2  0
 23 24  1  0
 24 25  1  0
 25 26  1  0
 25 27  2  0
 25 28  2  0
 24 29  2  0
 19 30  1  0
 30 31  2  0
  9 32  1  0
 32 33  1  0
 32 34  1  0
  8  3  1  0
 31 13  1  0
 30 16  1  0
 29 20  1  0
  1 35  1  0
  1 36  1  0
  1 37  1  0
  2 38  1  0
  2 39  1  0
  4 40  1  0
  5 41  1  0
  6 42  1  0
  7 43  1  0
  9 44  1  0
 12 45  1  0
 14 46  1  0
 15 47  1  0
 17 48  1  0
 21 49  1  0
 22 50  1  0
 23 51  1  0
 26 52  1  0
 26 53  1  0
 29 54  1  0
 31 55  1  0
 33 56  1  0
 33 57  1  0
 33 58  1  0
 34 59  1  0
 34 60  1  0
 34 61  1  0
M  END
$$$$
