@<TRIPOS>MOLECULE
*****
 35 38 0 0 0
SMALL
GASTEIGER

@<TRIPOS>ATOM
      1 C          -4.0681   -0.9423    0.6487 C.3     1  UNL1       -0.0041
      2 C          -3.3457    0.3189    0.9307 C.ar    1  UNL1        0.1349
      3 N          -3.6433    1.2814    1.8259 N.ar    1  UNL1       -0.1342
      4 N          -2.7459    2.2488    1.8490 N.ar    1  UNL1       -0.1321
      5 C          -1.7777    1.9820    0.9512 C.ar    1  UNL1        0.1595
      6 C          -0.5118    2.7426    0.5963 C.3     1  UNL1        0.1004
      7 N           0.6646    1.8720    0.6843 N.2     1  UNL1       -0.2749
      8 C           0.8711    0.6992    0.1476 C.2     1  UNL1        0.0752
      9 C           2.1108   -0.0121    0.3587 C.ar    1  UNL1        0.0006
     10 C           3.0238    0.8285    1.0171 C.ar    1  UNL1       -0.0526
     11 C           4.2907    0.4051    1.4168 C.ar    1  UNL1       -0.0611
     12 C           4.6998   -0.8864    1.1727 C.ar    1  UNL1       -0.0617
     13 C           3.8141   -1.7214    0.5290 C.ar    1  UNL1       -0.0611
     14 C           2.5776   -1.2507    0.1586 C.ar    1  UNL1       -0.0526
     15 C          -0.1063    0.0729   -0.7531 C.ar    1  UNL1        0.0258
     16 C          -1.4909    0.1110   -0.6137 C.ar    1  UNL1        0.0587
     17 C          -2.3783   -0.4949   -1.4935 C.ar    1  UNL1       -0.0357
     18 C          -1.7671   -1.1704   -2.5619 C.ar    1  UNL1       -0.0414
     19 C          -0.3744   -1.2062   -2.7004 C.ar    1  UNL1        0.0417
     20 CL          0.4364   -2.0340   -4.0120 Cl      1  UNL1       -0.0835
     21 C           0.4861   -0.5934   -1.8152 C.ar    1  UNL1       -0.0322
     22 N          -2.2105    0.7991    0.4327 N.ar    1  UNL1       -0.2811
     23 H          -5.0352   -0.8542    0.1682 H       1  UNL1        0.0308
     24 H          -4.3756   -1.3004    1.6942 H       1  UNL1        0.0308
     25 H          -3.4269   -1.8007    0.3617 H       1  UNL1        0.0308
     26 H          -0.3649    3.4872    1.3997 H       1  UNL1        0.0590
     27 H          -0.5687    3.1727   -0.3966 H       1  UNL1        0.0590
     28 H           2.8747    1.8845    1.2953 H       1  UNL1        0.0624
     29 H           5.0112    1.0231    1.9216 H       1  UNL1        0.0618
     30 H           5.6448   -1.3418    1.4247 H       1  UNL1        0.0618
     31 H           4.0376   -2.7480    0.2921 H       1  UNL1        0.0618
     32 H           1.8742   -1.9038   -0.2887 H       1  UNL1        0.0624
     33 H          -3.4388   -0.4389   -1.4409 H       1  UNL1        0.0639
     34 H          -2.3406   -1.6903   -3.3216 H       1  UNL1        0.0633
     35 H           1.5533   -0.5387   -1.8793 H       1  UNL1        0.0639
@<TRIPOS>BOND
     1     1     2    1
     2     2     3   ar
     3     3     4   ar
     4     4     5   ar
     5     5     6    1
     6     6     7    1
     7     7     8    2
     8     8     9    1
     9     9    10   ar
    10    10    11   ar
    11    11    12   ar
    12    12    13   ar
    13    13    14   ar
    14     8    15    1
    15    15    16   ar
    16    16    17   ar
    17    17    18   ar
    18    18    19   ar
    19    19    20    1
    20    19    21   ar
    21    16    22    1
    22    22     2   ar
    23    22     5   ar
    24    14     9   ar
    25    21    15   ar
    26     1    23    1
    27     1    24    1
    28     1    25    1
    29     6    26    1
    30     6    27    1
    31    10    28    1
    32    11    29    1
    33    12    30    1
    34    13    31    1
    35    14    32    1
    36    17    33    1
    37    18    34    1
    38    21    35    1
