@<TRIPOS>MOLECULE
*****
 65 70 0 0 0
SMALL
GASTEIGER

@<TRIPOS>ATOM
      1 C          -0.1010   -1.7042    0.9197 C.3     1  UNL1        0.0126
      2 N          -1.2753   -0.9577    0.5500 N.ar    1  UNL1       -0.3389
      3 C          -2.5354   -1.4247    0.8024 C.ar    1  UNL1        0.0562
      4 C          -2.9927   -2.5719    1.3931 C.ar    1  UNL1       -0.0193
      5 C          -4.3485   -2.7736    1.4956 C.ar    1  UNL1        0.0317
      6 N          -5.1921   -1.8495    1.0189 N.ar    1  UNL1       -0.2395
      7 C          -4.8026   -0.6990    0.4274 C.ar    1  UNL1        0.1327
      8 N          -5.6943    0.2552   -0.0680 N.pl3   1  UNL1       -0.3102
      9 C          -5.8732    1.5942    0.4381 C.3     1  UNL1        0.0370
     10 C          -7.2841    1.6547    1.0005 C.3     1  UNL1        0.0634
     11 O          -8.1442    0.7669    0.3628 O.3     1  UNL1       -0.3767
     12 C          -7.8727    0.5977   -0.9873 C.3     1  UNL1        0.0634
     13 C          -6.5426   -0.1008   -1.2060 C.3     1  UNL1        0.0370
     14 C          -3.4419   -0.5084    0.3310 C.ar    1  UNL1        0.0659
     15 C          -2.6972    0.5190   -0.2092 C.ar    1  UNL1        0.1048
     16 N          -3.1230    1.6447   -0.8008 N.ar    1  UNL1       -0.2330
     17 C          -2.1868    2.4887   -1.2566 C.ar    1  UNL1        0.1189
     18 N          -0.8802    2.2334   -1.1345 N.ar    1  UNL1       -0.2186
     19 C          -0.4063    1.0848   -0.5310 C.ar    1  UNL1        0.1489
     20 N           0.9840    0.8985   -0.4608 N.pl3   1  UNL1       -0.3110
     21 C           1.8397    0.9353    0.6883 C.3     1  UNL1        0.0264
     22 C           3.2309    0.4805    0.2495 C.3     1  UNL1        0.0147
     23 N           3.1833   -0.6736   -0.5457 N.3     1  UNL1       -0.2990
     24 C           4.0562   -1.7326   -0.3949 C.3     1  UNL1        0.0030
     25 C           5.4847   -1.6154   -0.7577 C.3     1  UNL1       -0.0148
     26 C           6.2945   -0.6233   -0.0631 C.ar    1  UNL1       -0.0433
     27 C           6.4416    0.6461   -0.5635 C.ar    1  UNL1       -0.0556
     28 C           7.1944    1.6207    0.0294 C.ar    1  UNL1       -0.0233
     29 C           7.8593    1.3467    1.2005 C.ar    1  UNL1        0.1584
     30 F           8.6229    2.3095    1.8134 F       1  UNL1       -0.2025
     31 C           7.7417    0.0885    1.7393 C.ar    1  UNL1        0.1587
     32 F           8.4042   -0.1643    2.8909 F       1  UNL1       -0.2025
     33 C           6.9790   -0.8721    1.1237 C.ar    1  UNL1       -0.0204
     34 C           2.4252   -0.5457   -1.7545 C.3     1  UNL1        0.0147
     35 C           1.6410    0.7070   -1.7672 C.3     1  UNL1        0.0264
     36 C          -1.3367    0.2128   -0.0593 C.ar    1  UNL1        0.1089
     37 H           0.7386   -1.6394    0.2526 H       1  UNL1        0.0456
     38 H           0.1785   -1.4029    1.9674 H       1  UNL1        0.0456
     39 H          -0.3452   -2.8151    0.9812 H       1  UNL1        0.0456
     40 H          -2.2690   -3.2917    1.7656 H       1  UNL1        0.0653
     41 H          -4.7628   -3.6600    1.9526 H       1  UNL1        0.0831
     42 H          -5.1782    1.8668    1.2545 H       1  UNL1        0.0487
     43 H          -5.7599    2.3705   -0.3705 H       1  UNL1        0.0487
     44 H          -7.2148    1.3307    2.0578 H       1  UNL1        0.0575
     45 H          -7.6381    2.7018    0.9682 H       1  UNL1        0.0575
     46 H          -7.9339    1.5483   -1.5523 H       1  UNL1        0.0575
     47 H          -8.6600   -0.0615   -1.4009 H       1  UNL1        0.0575
     48 H          -6.7371   -1.1818   -1.2537 H       1  UNL1        0.0487
     49 H          -6.1128    0.2481   -2.1571 H       1  UNL1        0.0487
     50 H          -2.5056    3.3980   -1.7361 H       1  UNL1        0.1048
     51 H           2.0169    2.0417    0.9540 H       1  UNL1        0.0477
     52 H           1.4893    0.5032    1.6054 H       1  UNL1        0.0477
     53 H           3.8156    0.3083    1.1630 H       1  UNL1        0.0442
     54 H           3.7104    1.3074   -0.3198 H       1  UNL1        0.0442
     55 H           3.6594   -2.6218   -0.9642 H       1  UNL1        0.0430
     56 H           4.0167   -2.0905    0.6714 H       1  UNL1        0.0430
     57 H           5.9474   -2.6271   -0.5120 H       1  UNL1        0.0326
     58 H           5.6355   -1.5753   -1.8827 H       1  UNL1        0.0326
     59 H           5.9378    0.9399   -1.4987 H       1  UNL1        0.0621
     60 H           7.2944    2.6249   -0.3920 H       1  UNL1        0.0647
     61 H           6.8942   -1.8783    1.5646 H       1  UNL1        0.0650
     62 H           1.7504   -1.4148   -1.8642 H       1  UNL1        0.0442
     63 H           3.0652   -0.5609   -2.6660 H       1  UNL1        0.0442
     64 H           0.9369    0.8020   -2.6123 H       1  UNL1        0.0477
     65 H           2.3788    1.5617   -1.8346 H       1  UNL1        0.0477
@<TRIPOS>BOND
     1     1     2    1
     2     2     3   ar
     3     3     4   ar
     4     4     5   ar
     5     5     6   ar
     6     6     7   ar
     7     7     8    1
     8     8     9    1
     9     9    10    1
    10    10    11    1
    11    11    12    1
    12    12    13    1
    13     7    14   ar
    14    14    15   ar
    15    15    16   ar
    16    16    17   ar
    17    17    18   ar
    18    18    19   ar
    19    19    20    1
    20    20    21    1
    21    21    22    1
    22    22    23    1
    23    23    24    1
    24    24    25    1
    25    25    26    1
    26    26    27   ar
    27    27    28   ar
    28    28    29   ar
    29    29    30    1
    30    29    31   ar
    31    31    32    1
    32    31    33   ar
    33    23    34    1
    34    34    35    1
    35    19    36   ar
    36    36     2   ar
    37    14     3   ar
    38    36    15   ar
    39    13     8    1
    40    35    20    1
    41    33    26   ar
    42     1    37    1
    43     1    38    1
    44     1    39    1
    45     4    40    1
    46     5    41    1
    47     9    42    1
    48     9    43    1
    49    10    44    1
    50    10    45    1
    51    12    46    1
    52    12    47    1
    53    13    48    1
    54    13    49    1
    55    17    50    1
    56    21    51    1
    57    21    52    1
    58    22    53    1
    59    22    54    1
    60    24    55    1
    61    24    56    1
    62    25    57    1
    63    25    58    1
    64    27    59    1
    65    28    60    1
    66    33    61    1
    67    34    62    1
    68    34    63    1
    69    35    64    1
    70    35    65    1
