@<TRIPOS>MOLECULE
*****
 86 91 0 0 0
SMALL
GASTEIGER

@<TRIPOS>ATOM
      1 C          -8.2498   -2.2518    4.5022 C.3     1  UNL1        0.0790
      2 O          -8.2371   -1.8115    3.1766 O.3     1  UNL1       -0.4914
      3 C          -7.1928   -1.0934    2.6296 C.ar    1  UNL1        0.1618
      4 C          -6.0804   -0.7681    3.3921 C.ar    1  UNL1       -0.0160
      5 C          -5.0189   -0.0558    2.8897 C.ar    1  UNL1       -0.0534
      6 C          -5.0192    0.3732    1.5752 C.ar    1  UNL1       -0.0255
      7 C          -6.1157    0.0522    0.8232 C.ar    1  UNL1        0.0158
      8 C          -7.1839   -0.6597    1.3155 C.ar    1  UNL1        0.1667
      9 O          -8.1408   -0.8300    0.3284 O.3     1  UNL1       -0.4836
     10 C          -7.4895   -0.6094   -0.9335 C.3     1  UNL1        0.1161
     11 C          -8.5325   -0.1030   -1.8832 C.3     1  UNL1        0.0151
     12 C          -8.0627    1.0343   -2.7698 C.3     1  UNL1        0.0768
     13 O          -9.1945    1.5692   -3.3786 O.3     1  UNL1       -0.3876
     14 C          -7.5181    2.0915   -1.8436 C.2     1  UNL1       -0.0588
     15 C          -6.7435    1.7600   -0.8242 C.2     1  UNL1       -0.0715
     16 C          -6.4114    0.3522   -0.5951 C.3     1  UNL1        0.0558
     17 C          -5.1486   -0.0615   -1.3597 C.3     1  UNL1       -0.0235
     18 C          -3.9991    0.8547   -1.1510 C.3     1  UNL1        0.0004
     19 N          -3.2202    0.6579    0.0078 N.3     1  UNL1       -0.2981
     20 C          -2.4249   -0.5040    0.1021 C.3     1  UNL1       -0.0008
     21 C          -1.2726   -0.5237   -0.8773 C.3     1  UNL1       -0.0402
     22 C          -0.3567    0.6751   -0.6419 C.3     1  UNL1       -0.0518
     23 C           0.7958    0.6781   -1.5876 C.3     1  UNL1       -0.0499
     24 C           1.6605    1.8951   -1.3555 C.3     1  UNL1       -0.0186
     25 C           2.1936    1.8967    0.0497 C.3     1  UNL1        0.0896
     26 O           2.9379    0.8194    0.4131 O.3     1  UNL1       -0.4920
     27 C           4.1454    0.3964   -0.0589 C.ar    1  UNL1        0.1205
     28 C           4.8777    1.0284   -1.0072 C.ar    1  UNL1       -0.0196
     29 C           6.1086    0.5294   -1.4449 C.ar    1  UNL1       -0.0539
     30 C           6.6429   -0.6342   -0.9322 C.ar    1  UNL1       -0.0331
     31 C           7.9569   -1.1263   -1.4302 C.3     1  UNL1        0.0240
     32 N           8.9715   -0.5428   -0.6150 N.3     1  UNL1       -0.2982
     33 C           8.8972   -0.8774    0.7774 C.3     1  UNL1       -0.0008
     34 C           9.9835   -0.2024    1.5792 C.3     1  UNL1       -0.0402
     35 C          11.3060   -0.7413    1.1643 C.3     1  UNL1       -0.0507
     36 C          11.3138   -1.1773   -0.2557 C.3     1  UNL1       -0.0402
     37 C          10.2941   -0.5579   -1.1458 C.3     1  UNL1       -0.0008
     38 C           5.8961   -1.2714    0.0309 C.ar    1  UNL1       -0.0539
     39 C           4.6886   -0.7939    0.4685 C.ar    1  UNL1       -0.0196
     40 C          -3.7701    1.1382    1.2271 C.3     1  UNL1        0.0244
     41 H          -7.2971   -2.7909    4.7185 H       1  UNL1        0.0660
     42 H          -8.4059   -1.4152    5.2089 H       1  UNL1        0.0660
     43 H          -9.0914   -2.9706    4.6984 H       1  UNL1        0.0660
     44 H          -6.0711   -1.1037    4.4319 H       1  UNL1        0.0655
     45 H          -4.1697    0.1833    3.4992 H       1  UNL1        0.0622
     46 H          -7.0580   -1.5889   -1.2869 H       1  UNL1        0.0746
     47 H          -9.4028    0.2618   -1.2938 H       1  UNL1        0.0329
     48 H          -8.9128   -0.9582   -2.4865 H       1  UNL1        0.0329
     49 H          -7.3373    0.7432   -3.5263 H       1  UNL1        0.0639
     50 H          -9.9951    1.4696   -2.7989 H       1  UNL1        0.2102
     51 H          -7.7760    3.1124   -2.0379 H       1  UNL1        0.0595
     52 H          -6.3385    2.5268   -0.1360 H       1  UNL1        0.0580
     53 H          -4.9471   -1.1038   -1.0395 H       1  UNL1        0.0290
     54 H          -5.3809   -0.1356   -2.4620 H       1  UNL1        0.0290
     55 H          -4.3263    1.9107   -1.1960 H       1  UNL1        0.0427
     56 H          -3.3185    0.7302   -2.0448 H       1  UNL1        0.0427
     57 H          -2.9653   -1.4616   -0.0211 H       1  UNL1        0.0427
     58 H          -1.9799   -0.5364    1.1268 H       1  UNL1        0.0427
     59 H          -0.6558   -1.4380   -0.7601 H       1  UNL1        0.0278
     60 H          -1.6293   -0.5070   -1.9288 H       1  UNL1        0.0278
     61 H          -0.0054    0.5938    0.4160 H       1  UNL1        0.0266
     62 H          -0.9142    1.6241   -0.7575 H       1  UNL1        0.0266
     63 H           1.4102   -0.2564   -1.5030 H       1  UNL1        0.0266
     64 H           0.4070    0.7643   -2.6448 H       1  UNL1        0.0266
     65 H           1.0114    2.8344   -1.4210 H       1  UNL1        0.0298
     66 H           2.4181    1.9316   -2.1443 H       1  UNL1        0.0298
     67 H           1.3086    1.9851    0.7418 H       1  UNL1        0.0696
     68 H           2.8151    2.8505    0.1999 H       1  UNL1        0.0696
     69 H           4.5213    1.9612   -1.4289 H       1  UNL1        0.0654
     70 H           6.6593    1.0657   -2.2050 H       1  UNL1        0.0622
     71 H           7.9368   -2.2422   -1.2545 H       1  UNL1        0.0476
     72 H           8.0773   -0.9125   -2.4996 H       1  UNL1        0.0476
     73 H           8.9719   -1.9625    0.9859 H       1  UNL1        0.0427
     74 H           7.9330   -0.5110    1.1808 H       1  UNL1        0.0427
     75 H           9.9481    0.9063    1.4765 H       1  UNL1        0.0278
     76 H           9.8229   -0.4566    2.6473 H       1  UNL1        0.0278
     77 H          11.5774   -1.5999    1.8223 H       1  UNL1        0.0266
     78 H          12.0827    0.0528    1.3620 H       1  UNL1        0.0266
     79 H          11.3163   -2.2968   -0.3054 H       1  UNL1        0.0278
     80 H          12.3227   -0.8891   -0.6782 H       1  UNL1        0.0278
     81 H          10.2631   -1.1754   -2.0839 H       1  UNL1        0.0427
     82 H          10.5990    0.4579   -1.4714 H       1  UNL1        0.0427
     83 H           6.2858   -2.1870    0.4554 H       1  UNL1        0.0622
     84 H           4.1069   -1.2932    1.2208 H       1  UNL1        0.0654
     85 H          -4.0403    2.2009    1.0907 H       1  UNL1        0.0476
     86 H          -3.0632    1.0209    2.0466 H       1  UNL1        0.0476
@<TRIPOS>BOND
     1     1     2    1
     2     2     3    1
     3     3     4   ar
     4     4     5   ar
     5     5     6   ar
     6     6     7   ar
     7     7     8   ar
     8     8     9    1
     9     9    10    1
    10    10    11    1
    11    11    12    1
    12    12    13    1
    13    12    14    1
    14    14    15    2
    15    15    16    1
    16    16    17    1
    17    17    18    1
    18    18    19    1
    19    19    20    1
    20    20    21    1
    21    21    22    1
    22    22    23    1
    23    23    24    1
    24    24    25    1
    25    25    26    1
    26    26    27    1
    27    27    28   ar
    28    28    29   ar
    29    29    30   ar
    30    30    31    1
    31    31    32    1
    32    32    33    1
    33    33    34    1
    34    34    35    1
    35    35    36    1
    36    36    37    1
    37    30    38   ar
    38    38    39   ar
    39    19    40    1
    40     8     3   ar
    41    16    10    1
    42    39    27   ar
    43    40     6    1
    44    16     7    1
    45    37    32    1
    46     1    41    1
    47     1    42    1
    48     1    43    1
    49     4    44    1
    50     5    45    1
    51    10    46    1
    52    11    47    1
    53    11    48    1
    54    12    49    1
    55    13    50    1
    56    14    51    1
    57    15    52    1
    58    17    53    1
    59    17    54    1
    60    18    55    1
    61    18    56    1
    62    20    57    1
    63    20    58    1
    64    21    59    1
    65    21    60    1
    66    22    61    1
    67    22    62    1
    68    23    63    1
    69    23    64    1
    70    24    65    1
    71    24    66    1
    72    25    67    1
    73    25    68    1
    74    28    69    1
    75    29    70    1
    76    31    71    1
    77    31    72    1
    78    33    73    1
    79    33    74    1
    80    34    75    1
    81    34    76    1
    82    35    77    1
    83    35    78    1
    84    36    79    1
    85    36    80    1
    86    37    81    1
    87    37    82    1
    88    38    83    1
    89    39    84    1
    90    40    85    1
    91    40    86    1
