@<TRIPOS>MOLECULE
*****
 64 69 0 0 0
SMALL
GASTEIGER

@<TRIPOS>ATOM
      1 C          -2.4018   -3.6335   -0.4546 C.3     1  UNL1       -0.0411
      2 C          -1.7998   -2.3474    0.1157 C.3     1  UNL1        0.0614
      3 N          -2.7207   -1.2943   -0.1499 N.am    1  UNL1       -0.3032
      4 C          -3.4782   -0.5839    0.8335 C.2     1  UNL1        0.2516
      5 O          -3.3034   -0.9277    2.0188 O.2     1  UNL1       -0.2699
      6 C          -4.4030    0.4890    0.4406 C.ar    1  UNL1        0.1218
      7 C          -5.1378    1.3005    1.2735 C.ar    1  UNL1        0.1529
      8 N          -5.1333    1.2787    2.7014 N.pl3   1  UNL1       -0.3411
      9 N          -5.8638    2.1370    0.4811 N.ar    1  UNL1       -0.1495
     10 N          -5.6077    1.8751   -0.7878 N.ar    1  UNL1       -0.2192
     11 C          -6.1091    2.4632   -1.8965 C.ar    1  UNL1        0.0329
     12 C          -5.7182    2.0459   -3.1420 C.ar    1  UNL1       -0.0253
     13 C          -4.7955    1.0059   -3.2231 C.ar    1  UNL1        0.0314
     14 N          -4.3433    0.4724   -2.0813 N.ar    1  UNL1       -0.2354
     15 C          -4.7079    0.8610   -0.8481 C.ar    1  UNL1        0.1695
     16 C          -0.4179   -2.1520   -0.2775 C.ar    1  UNL1        0.0477
     17 C           0.1729   -2.9866   -1.1984 C.ar    1  UNL1       -0.0321
     18 C           1.4700   -2.9021   -1.6086 C.ar    1  UNL1       -0.0098
     19 C           2.0585   -3.7384   -2.5349 C.ar    1  UNL1       -0.0537
     20 C           3.3777   -3.6237   -2.9313 C.ar    1  UNL1       -0.0600
     21 C           4.1353   -2.6141   -2.3622 C.ar    1  UNL1       -0.0455
     22 C           3.5542   -1.7755   -1.4368 C.ar    1  UNL1        0.0382
     23 C           4.3387   -0.7347   -0.8105 C.1     1  UNL1       -0.0602
     24 C           5.0161    0.1327   -0.2739 C.1     1  UNL1       -0.0579
     25 C           5.8234    1.1300    0.3606 C.ar    1  UNL1        0.0626
     26 C           6.9160    0.9078    1.1819 C.ar    1  UNL1        0.0648
     27 N           7.3551    2.1183    1.5439 N.ar    1  UNL1       -0.1787
     28 N           6.6009    3.0574    0.9970 N.ar    1  UNL1       -0.2733
     29 C           6.8162    4.4724    1.1973 C.3     1  UNL1        0.0302
     30 C           5.6429    2.4911    0.2576 C.ar    1  UNL1        0.0406
     31 C           2.2364   -1.8880   -1.0408 C.ar    1  UNL1        0.0624
     32 C           1.6449   -1.0672   -0.1311 C.ar    1  UNL1        0.2649
     33 O           2.3594   -0.1409    0.3829 O.2     1  UNL1       -0.2666
     34 N           0.3370   -1.1839    0.2559 N.ar    1  UNL1       -0.2789
     35 C          -0.1161   -0.2606    1.2212 C.ar    1  UNL1        0.0498
     36 C          -0.5367    0.9880    0.8172 C.ar    1  UNL1       -0.0377
     37 C          -0.9783    1.9371    1.7044 C.ar    1  UNL1       -0.0598
     38 C          -1.0122    1.6535    3.0469 C.ar    1  UNL1       -0.0616
     39 C          -0.5934    0.3964    3.4970 C.ar    1  UNL1       -0.0598
     40 C          -0.1495   -0.5448    2.5649 C.ar    1  UNL1       -0.0377
     41 H          -2.4932   -3.5833   -1.5517 H       1  UNL1        0.0251
     42 H          -3.3796   -3.7549    0.0756 H       1  UNL1        0.0251
     43 H          -1.6966   -4.4537   -0.2105 H       1  UNL1        0.0251
     44 H          -1.8176   -2.4927    1.2406 H       1  UNL1        0.0560
     45 H          -2.8386   -1.0343   -1.1563 H       1  UNL1        0.1497
     46 H          -5.1034    0.4173    3.2795 H       1  UNL1        0.1438
     47 H          -5.1644    2.1951    3.1906 H       1  UNL1        0.1438
     48 H          -6.8353    3.2849   -1.8485 H       1  UNL1        0.0831
     49 H          -6.0771    2.4674   -4.0692 H       1  UNL1        0.0648
     50 H          -4.4590    0.6458   -4.1856 H       1  UNL1        0.0831
     51 H          -0.4302   -3.7902   -1.6536 H       1  UNL1        0.0642
     52 H           1.4434   -4.5262   -2.9738 H       1  UNL1        0.0624
     53 H           3.8342   -4.2896   -3.6634 H       1  UNL1        0.0618
     54 H           5.1925   -2.4949   -2.6538 H       1  UNL1        0.0630
     55 H           7.2985   -0.0671    1.4453 H       1  UNL1        0.0860
     56 H           7.9100    4.6340    1.2411 H       1  UNL1        0.0473
     57 H           6.3911    4.7405    2.1961 H       1  UNL1        0.0473
     58 H           6.3961    5.1014    0.3913 H       1  UNL1        0.0473
     59 H           4.9088    3.0542   -0.2869 H       1  UNL1        0.0838
     60 H          -0.5217    1.2471   -0.2397 H       1  UNL1        0.0638
     61 H          -1.3080    2.9234    1.3586 H       1  UNL1        0.0618
     62 H          -1.3520    2.3626    3.7966 H       1  UNL1        0.0618
     63 H          -0.5972    0.1175    4.5418 H       1  UNL1        0.0618
     64 H           0.1712   -1.5186    2.9361 H       1  UNL1        0.0638
@<TRIPOS>BOND
     1     1     2    1
     2     2     3    1
     3     3     4   am
     4     4     5    2
     5     4     6    1
     6     6     7   ar
     7     7     8    1
     8     7     9   ar
     9     9    10   ar
    10    10    11   ar
    11    11    12   ar
    12    12    13   ar
    13    13    14   ar
    14    14    15   ar
    15     2    16    1
    16    16    17   ar
    17    17    18   ar
    18    18    19   ar
    19    19    20   ar
    20    20    21   ar
    21    21    22   ar
    22    22    23    1
    23    23    24    3
    24    24    25    1
    25    25    26   ar
    26    26    27   ar
    27    27    28   ar
    28    28    29    1
    29    28    30   ar
    30    22    31   ar
    31    31    32   ar
    32    32    33    2
    33    32    34   ar
    34    34    35    1
    35    35    36   ar
    36    36    37   ar
    37    37    38   ar
    38    38    39   ar
    39    39    40   ar
    40    15     6   ar
    41    34    16   ar
    42    40    35   ar
    43    15    10   ar
    44    31    18   ar
    45    30    25   ar
    46     1    41    1
    47     1    42    1
    48     1    43    1
    49     2    44    1
    50     3    45    1
    51     8    46    1
    52     8    47    1
    53    11    48    1
    54    12    49    1
    55    13    50    1
    56    17    51    1
    57    19    52    1
    58    20    53    1
    59    21    54    1
    60    26    55    1
    61    29    56    1
    62    29    57    1
    63    29    58    1
    64    30    59    1
    65    36    60    1
    66    37    61    1
    67    38    62    1
    68    39    63    1
    69    40    64    1
