
     RDKit          3D

 66 71  0  0  0  0  0  0  0  0999 V2000
    2.0014    2.8499    2.1982 O   0  0  0  0  0  0  0  0  0  0  0  0
    1.7141    2.3162    1.1031 C   0  0  0  0  0  0  0  0  0  0  0  0
    2.6740    2.3324    0.0732 N   0  0  0  0  0  0  0  0  0  0  0  0
    3.9886    2.9453    0.1928 C   0  0  1  0  0  0  0  0  0  0  0  0
    5.0917    1.9829    0.4389 C   0  0  0  0  0  0  0  0  0  0  0  0
    5.2773    0.9549   -0.5834 C   0  0  0  0  0  0  0  0  0  0  0  0
    4.8158    0.7991   -1.8677 C   0  0  0  0  0  0  0  0  0  0  0  0
    5.3118   -0.3697   -2.3822 N   0  0  0  0  0  0  0  0  0  0  0  0
    6.0792   -0.9823   -1.4852 C   0  0  0  0  0  0  0  0  0  0  0  0
    6.7885   -2.1672   -1.5321 C   0  0  0  0  0  0  0  0  0  0  0  0
    7.5016   -2.5407   -0.4177 C   0  0  0  0  0  0  0  0  0  0  0  0
    7.5093   -1.7560    0.7134 C   0  0  0  0  0  0  0  0  0  0  0  0
    8.2460   -2.1539    1.8453 O   0  0  0  0  0  0  0  0  0  0  0  0
    6.7938   -0.5780    0.7354 C   0  0  0  0  0  0  0  0  0  0  0  0
    6.0737   -0.1782   -0.3573 C   0  0  0  0  0  0  0  0  0  0  0  0
    4.2785    3.8070   -0.9450 C   0  0  0  0  0  0  0  0  0  0  0  0
    5.4223    4.3763   -0.9610 O   0  0  0  0  0  0  0  0  0  0  0  0
    3.4096    4.0566   -2.0104 O   0  0  0  0  0  0  0  0  0  0  0  0
    0.3958    1.6926    0.9311 C   0  0  0  0  0  0  0  0  0  0  0  0
   -0.4028    1.3553    2.0029 C   0  0  0  0  0  0  0  0  0  0  0  0
   -1.6694    0.7881    1.8101 C   0  0  0  0  0  0  0  0  0  0  0  0
   -2.1717    0.5455    0.5767 C   0  0  0  0  0  0  0  0  0  0  0  0
   -1.3911    0.8748   -0.5101 C   0  0  0  0  0  0  0  0  0  0  0  0
   -0.1326    1.4358   -0.3381 C   0  0  0  0  0  0  0  0  0  0  0  0
   -2.1264    0.5427   -1.5850 N   0  0  0  0  0  0  0  0  0  0  0  0
   -3.2851    0.0411   -1.1947 C   0  0  0  0  0  0  0  0  0  0  0  0
   -4.3112   -0.4005   -2.1319 C   0  0  0  0  0  0  0  0  0  0  0  0
   -5.5769    0.1192   -2.3079 C   0  0  0  0  0  0  0  0  0  0  0  0
   -6.1731   -0.6149   -3.3067 C   0  0  0  0  0  0  0  0  0  0  0  0
   -5.3190   -1.5136   -3.7010 O   0  0  0  0  0  0  0  0  0  0  0  0
   -4.1904   -1.4495   -3.0505 C   0  0  0  0  0  0  0  0  0  0  0  0
   -3.3408    0.0300    0.1734 N   0  0  0  0  0  0  0  0  0  0  0  0
   -4.4591   -0.4652    0.8738 C   0  0  0  0  0  0  0  0  0  0  0  0
   -4.6834   -0.1011    2.2733 C   0  0  0  0  0  0  0  0  0  0  0  0
   -6.1636   -0.3846    2.5925 C   0  0  0  0  0  0  0  0  0  0  0  0
   -6.8249   -1.2486    1.5657 C   0  0  0  0  0  0  0  0  0  0  0  0
   -5.9964   -2.3513    1.0107 C   0  0  0  0  0  0  0  0  0  0  0  0
   -4.5577   -2.0045    0.7916 C   0  0  0  0  0  0  0  0  0  0  0  0
    2.4032    1.8661   -0.8196 H   0  0  0  0  0  0  0  0  0  0  0  0
    3.9621    3.6095    1.1229 H   0  0  0  0  0  0  0  0  0  0  0  0
    5.0296    1.4936    1.4472 H   0  0  0  0  0  0  0  0  0  0  0  0
    6.0367    2.6028    0.5099 H   0  0  0  0  0  0  0  0  0  0  0  0
    4.1773    1.4911   -2.3625 H   0  0  0  0  0  0  0  0  0  0  0  0
    5.0876   -0.6863   -3.3491 H   0  0  0  0  0  0  0  0  0  0  0  0
    6.8046   -2.8028   -2.3975 H   0  0  0  0  0  0  0  0  0  0  0  0
    8.0780   -3.4765   -0.4214 H   0  0  0  0  0  0  0  0  0  0  0  0
    8.2888   -1.5296    2.6404 H   0  0  0  0  0  0  0  0  0  0  0  0
    6.7993    0.0493    1.6425 H   0  0  0  0  0  0  0  0  0  0  0  0
    3.7911    4.0227   -2.9543 H   0  0  0  0  0  0  0  0  0  0  0  0
   -0.0244    1.5410    3.0079 H   0  0  0  0  0  0  0  0  0  0  0  0
   -2.2410    0.5416    2.6745 H   0  0  0  0  0  0  0  0  0  0  0  0
    0.4388    1.6768   -1.1988 H   0  0  0  0  0  0  0  0  0  0  0  0
   -5.9572    0.9539   -1.7292 H   0  0  0  0  0  0  0  0  0  0  0  0
   -7.1927   -0.3980   -3.6365 H   0  0  0  0  0  0  0  0  0  0  0  0
   -3.3313   -2.0841   -3.1951 H   0  0  0  0  0  0  0  0  0  0  0  0
   -5.3871   -0.1292    0.3084 H   0  0  0  0  0  0  0  0  0  0  0  0
   -4.1562   -0.8202    2.9629 H   0  0  0  0  0  0  0  0  0  0  0  0
   -4.5480    0.9576    2.5495 H   0  0  0  0  0  0  0  0  0  0  0  0
   -6.7349    0.5909    2.5822 H   0  0  0  0  0  0  0  0  0  0  0  0
   -6.2935   -0.7519    3.6328 H   0  0  0  0  0  0  0  0  0  0  0  0
   -7.3332   -0.6268    0.7652 H   0  0  0  0  0  0  0  0  0  0  0  0
   -7.6970   -1.7379    2.0990 H   0  0  0  0  0  0  0  0  0  0  0  0
   -6.1109   -3.3173    1.5870 H   0  0  0  0  0  0  0  0  0  0  0  0
   -6.4287   -2.5958   -0.0055 H   0  0  0  0  0  0  0  0  0  0  0  0
   -3.8801   -2.4853    1.5234 H   0  0  0  0  0  0  0  0  0  0  0  0
   -4.1779   -2.2650   -0.2205 H   0  0  0  0  0  0  0  0  0  0  0  0
  1  2  2  0
  2  3  1  0
  3  4  1  0
  4  5  1  0
  5  6  1  0
  6  7  2  0
  7  8  1  0
  8  9  1  0
  9 10  2  0
 10 11  1  0
 11 12  2  0
 12 13  1  0
 12 14  1  0
 14 15  2  0
  4 16  1  0
 16 17  2  0
 16 18  1  0
  2 19  1  0
 19 20  2  0
 20 21  1  0
 21 22  2  0
 22 23  1  0
 23 24  2  0
 23 25  1  0
 25 26  2  0
 26 27  1  0
 27 28  1  0
 28 29  2  0
 29 30  1  0
 30 31  1  0
 26 32  1  0
 32 33  1  0
 33 34  1  0
 34 35  1  0
 35 36  1  0
 36 37  1  0
 37 38  1  0
 15  6  1  0
 24 19  1  0
 31 27  2  0
 38 33  1  0
 15  9  1  0
 32 22  1  0
  3 39  1  0
  4 40  1  1
  5 41  1  0
  5 42  1  0
  7 43  1  0
  8 44  1  0
 10 45  1  0
 11 46  1  0
 13 47  1  0
 14 48  1  0
 18 49  1  0
 20 50  1  0
 21 51  1  0
 24 52  1  0
 28 53  1  0
 29 54  1  0
 31 55  1  0
 33 56  1  0
 34 57  1  0
 34 58  1  0
 35 59  1  0
 35 60  1  0
 36 61  1  0
 36 62  1  0
 37 63  1  0
 37 64  1  0
 38 65  1  0
 38 66  1  0
M  END
$$$$
