@<TRIPOS>MOLECULE
*****
 66 71 0 0 0
SMALL
GASTEIGER

@<TRIPOS>ATOM
      1 O           2.0014    2.8499    2.1982 O.2     1  UNL1       -0.2702
      2 C           1.7141    2.3162    1.1031 C.2     1  UNL1        0.2448
      3 N           2.6740    2.3324    0.0732 N.am    1  UNL1       -0.2981
      4 CA          3.9886    2.9453    0.1928 C.3     1  UNL1        0.1245
      5 C           5.0917    1.9829    0.4389 C.3     1  UNL1        0.0032
      6 C           5.2773    0.9549   -0.5834 C.ar    1  UNL1       -0.0200
      7 C           4.8158    0.7991   -1.8677 C.ar    1  UNL1        0.0060
      8 N           5.3118   -0.3697   -2.3822 N.ar    1  UNL1       -0.3604
      9 C           6.0792   -0.9823   -1.4852 C.ar    1  UNL1        0.0470
     10 C           6.7885   -2.1672   -1.5321 C.ar    1  UNL1       -0.0343
     11 C           7.5016   -2.5407   -0.4177 C.ar    1  UNL1       -0.0182
     12 C           7.5093   -1.7560    0.7134 C.ar    1  UNL1        0.1176
     13 O           8.2460   -2.1539    1.8453 O.3     1  UNL1       -0.5067
     14 C           6.7938   -0.5780    0.7354 C.ar    1  UNL1       -0.0108
     15 C           6.0737   -0.1782   -0.3573 C.ar    1  UNL1        0.0063
     16 C           4.2785    3.8070   -0.9450 C.2     1  UNL1        0.3256
     17 O           5.4223    4.3763   -0.9610 O.2     1  UNL1       -0.2489
     18 OXT         3.4096    4.0566   -2.0104 O.3     1  UNL1       -0.4793
     19 C           0.3958    1.6926    0.9311 C.ar    1  UNL1        0.0388
     20 C          -0.4028    1.3553    2.0029 C.ar    1  UNL1       -0.0476
     21 C          -1.6694    0.7881    1.8101 C.ar    1  UNL1       -0.0353
     22 C          -2.1717    0.5455    0.5767 C.ar    1  UNL1        0.0694
     23 C          -1.3911    0.8748   -0.5101 C.ar    1  UNL1        0.0904
     24 C          -0.1326    1.4358   -0.3381 C.ar    1  UNL1       -0.0221
     25 N          -2.1264    0.5427   -1.5850 N.ar    1  UNL1       -0.2274
     26 C          -3.2851    0.0411   -1.1947 C.ar    1  UNL1        0.1451
     27 C          -4.3112   -0.4005   -2.1319 C.ar    1  UNL1        0.0551
     28 C          -5.5769    0.1192   -2.3079 C.ar    1  UNL1       -0.0132
     29 C          -6.1731   -0.6149   -3.3067 C.ar    1  UNL1        0.0924
     30 O          -5.3190   -1.5136   -3.7010 O.2     1  UNL1       -0.4703
     31 C          -4.1904   -1.4495   -3.0505 C.ar    1  UNL1        0.1023
     32 N          -3.3408    0.0300    0.1734 N.ar    1  UNL1       -0.3204
     33 C          -4.4591   -0.4652    0.8738 C.3     1  UNL1        0.0365
     34 C          -4.6834   -0.1011    2.2733 C.3     1  UNL1       -0.0320
     35 C          -6.1636   -0.3846    2.5925 C.3     1  UNL1       -0.0512
     36 C          -6.8249   -1.2486    1.5657 C.3     1  UNL1       -0.0529
     37 C          -5.9964   -2.3513    1.0107 C.3     1  UNL1       -0.0512
     38 C          -4.5577   -2.0045    0.7916 C.3     1  UNL1       -0.0320
     39 H           2.4032    1.8661   -0.8196 H       1  UNL1        0.1498
     40 HA          3.9621    3.6095    1.1229 H       1  UNL1        0.0618
     41 H           5.0296    1.4936    1.4472 H       1  UNL1        0.0337
     42 H           6.0367    2.6028    0.5099 H       1  UNL1        0.0337
     43 H           4.1773    1.4911   -2.3625 H       1  UNL1        0.0810
     44 H           5.0876   -0.6863   -3.3491 H       1  UNL1        0.1653
     45 H           6.8046   -2.8028   -2.3975 H       1  UNL1        0.0639
     46 H           8.0780   -3.4765   -0.4214 H       1  UNL1        0.0655
     47 H           8.2888   -1.5296    2.6404 H       1  UNL1        0.2921
     48 H           6.7993    0.0493    1.6425 H       1  UNL1        0.0661
     49 HXT         3.7911    4.0227   -2.9543 H       1  UNL1        0.2951
     50 H          -0.0244    1.5410    3.0079 H       1  UNL1        0.0626
     51 H          -2.2410    0.5416    2.6745 H       1  UNL1        0.0639
     52 H           0.4388    1.6768   -1.1988 H       1  UNL1        0.0647
     53 H          -5.9572    0.9539   -1.7292 H       1  UNL1        0.0656
     54 H          -7.1927   -0.3980   -3.6365 H       1  UNL1        0.1029
     55 H          -3.3313   -2.0841   -3.1951 H       1  UNL1        0.1036
     56 H          -5.3871   -0.1292    0.3084 H       1  UNL1        0.0528
     57 H          -4.1562   -0.8202    2.9629 H       1  UNL1        0.0285
     58 H          -4.5480    0.9576    2.5495 H       1  UNL1        0.0285
     59 H          -6.7349    0.5909    2.5822 H       1  UNL1        0.0266
     60 H          -6.2935   -0.7519    3.6328 H       1  UNL1        0.0266
     61 H          -7.3332   -0.6268    0.7652 H       1  UNL1        0.0265
     62 H          -7.6970   -1.7379    2.0990 H       1  UNL1        0.0265
     63 H          -6.1109   -3.3173    1.5870 H       1  UNL1        0.0266
     64 H          -6.4287   -2.5958   -0.0055 H       1  UNL1        0.0266
     65 H          -3.8801   -2.4853    1.5234 H       1  UNL1        0.0285
     66 H          -4.1779   -2.2650   -0.2205 H       1  UNL1        0.0285
@<TRIPOS>BOND
     1     1     2    2
     2     2     3   am
     3     3     4    1
     4     4     5    1
     5     5     6    1
     6     6     7   ar
     7     7     8   ar
     8     8     9   ar
     9     9    10   ar
    10    10    11   ar
    11    11    12   ar
    12    12    13    1
    13    12    14   ar
    14    14    15   ar
    15     4    16    1
    16    16    17    2
    17    16    18    1
    18     2    19    1
    19    19    20   ar
    20    20    21   ar
    21    21    22   ar
    22    22    23   ar
    23    23    24   ar
    24    23    25   ar
    25    25    26   ar
    26    26    27    1
    27    27    28   ar
    28    28    29   ar
    29    29    30   ar
    30    30    31   ar
    31    26    32   ar
    32    32    33    1
    33    33    34    1
    34    34    35    1
    35    35    36    1
    36    36    37    1
    37    37    38    1
    38    15     6   ar
    39    24    19   ar
    40    31    27   ar
    41    38    33    1
    42    15     9   ar
    43    32    22   ar
    44     3    39    1
    45     4    40    1
    46     5    41    1
    47     5    42    1
    48     7    43    1
    49     8    44    1
    50    10    45    1
    51    11    46    1
    52    13    47    1
    53    14    48    1
    54    18    49    1
    55    20    50    1
    56    21    51    1
    57    24    52    1
    58    28    53    1
    59    29    54    1
    60    31    55    1
    61    33    56    1
    62    34    57    1
    63    34    58    1
    64    35    59    1
    65    35    60    1
    66    36    61    1
    67    36    62    1
    68    37    63    1
    69    37    64    1
    70    38    65    1
    71    38    66    1
