
     RDKit          3D

 43 45  0  0  0  0  0  0  0  0999 V2000
    2.3757    0.5052   -1.9618 N   0  0  0  0  0  0  0  0  0  0  0  0
    1.6624   -0.0341   -0.8195 C   0  0  1  0  0  0  0  0  0  0  0  0
    0.4020   -0.7065   -1.3079 C   0  0  0  0  0  0  0  0  0  0  0  0
   -0.3972   -1.2884   -0.2303 C   0  0  0  0  0  0  0  0  0  0  0  0
   -0.0519   -2.4083    0.2283 O   0  0  0  0  0  0  0  0  0  0  0  0
   -1.5460   -0.6702    0.3386 N   0  0  0  0  0  0  0  0  0  0  0  0
   -2.0402    0.6216   -0.1065 C   0  0  0  0  0  0  0  0  0  0  0  0
   -3.4507    0.3887   -0.6232 C   0  0  0  0  0  0  0  0  0  0  0  0
   -4.2523   -0.0267    0.5167 N   0  0  0  0  0  0  0  0  0  0  0  0
   -3.6960   -0.8145    1.4539 C   0  0  0  0  0  0  0  0  0  0  0  0
   -4.6569   -1.0302    2.3678 N   0  0  0  0  0  0  0  0  0  0  0  0
   -5.7685   -0.3892    1.9944 N   0  0  0  0  0  0  0  0  0  0  0  0
   -5.5329    0.2425    0.8404 C   0  0  0  0  0  0  0  0  0  0  0  0
   -6.4565    1.0894    0.0248 C   0  0  0  0  0  0  0  0  0  0  0  0
   -6.1852    2.4083    0.3626 F   0  0  0  0  0  0  0  0  0  0  0  0
   -7.7633    0.7411    0.2756 F   0  0  0  0  0  0  0  0  0  0  0  0
   -6.1113    0.9323   -1.3024 F   0  0  0  0  0  0  0  0  0  0  0  0
   -2.3034   -1.2992    1.4104 C   0  0  0  0  0  0  0  0  0  0  0  0
    2.5714   -1.0046   -0.0925 C   0  0  0  0  0  0  0  0  0  0  0  0
    3.7789   -0.2770    0.3545 C   0  0  0  0  0  0  0  0  0  0  0  0
    4.9785   -0.4223   -0.3018 C   0  0  0  0  0  0  0  0  0  0  0  0
    6.1259    0.2565    0.1066 C   0  0  0  0  0  0  0  0  0  0  0  0
    7.2718    0.0488   -0.6079 F   0  0  0  0  0  0  0  0  0  0  0  0
    6.0726    1.0938    1.1887 C   0  0  0  0  0  0  0  0  0  0  0  0
    7.2207    1.7318    1.5458 F   0  0  0  0  0  0  0  0  0  0  0  0
    4.8871    1.2527    1.8567 C   0  0  0  0  0  0  0  0  0  0  0  0
    3.7634    0.5784    1.4446 C   0  0  0  0  0  0  0  0  0  0  0  0
    2.5850    0.7495    2.1244 F   0  0  0  0  0  0  0  0  0  0  0  0
    1.8360    1.2086   -2.4777 H   0  0  0  0  0  0  0  0  0  0  0  0
    2.7896   -0.2440   -2.5587 H   0  0  0  0  0  0  0  0  0  0  0  0
    1.4431    0.8286   -0.1506 H   0  0  0  0  0  0  0  0  0  0  0  0
    0.7513   -1.5153   -2.0165 H   0  0  0  0  0  0  0  0  0  0  0  0
   -0.1361    0.0099   -1.9552 H   0  0  0  0  0  0  0  0  0  0  0  0
   -1.3971    1.1315   -0.8181 H   0  0  0  0  0  0  0  0  0  0  0  0
   -2.1409    1.2370    0.8353 H   0  0  0  0  0  0  0  0  0  0  0  0
   -3.8544    1.3045   -1.1046 H   0  0  0  0  0  0  0  0  0  0  0  0
   -3.4980   -0.4189   -1.3620 H   0  0  0  0  0  0  0  0  0  0  0  0
   -2.2184   -2.3940    1.4080 H   0  0  0  0  0  0  0  0  0  0  0  0
   -1.8109   -0.9553    2.3662 H   0  0  0  0  0  0  0  0  0  0  0  0
    2.0244   -1.4650    0.7658 H   0  0  0  0  0  0  0  0  0  0  0  0
    2.8314   -1.8226   -0.7696 H   0  0  0  0  0  0  0  0  0  0  0  0
    5.0478   -1.0840   -1.1677 H   0  0  0  0  0  0  0  0  0  0  0  0
    4.8491    1.9098    2.7042 H   0  0  0  0  0  0  0  0  0  0  0  0
  1  2  1  0
  2  3  1  0
  3  4  1  0
  4  5  2  0
  4  6  1  0
  6  7  1  0
  7  8  1  0
  8  9  1  0
  9 10  1  0
 10 11  2  0
 11 12  1  0
 12 13  2  0
 13 14  1  0
 14 15  1  0
 14 16  1  0
 14 17  1  0
 10 18  1  0
  2 19  1  0
 19 20  1  0
 20 21  2  0
 21 22  1  0
 22 23  1  0
 22 24  2  0
 24 25  1  0
 24 26  1  0
 26 27  2  0
 27 28  1  0
 18  6  1  0
 27 20  1  0
 13  9  1  0
  1 29  1  0
  1 30  1  0
  2 31  1  1
  3 32  1  0
  3 33  1  0
  7 34  1  0
  7 35  1  0
  8 36  1  0
  8 37  1  0
 18 38  1  0
 18 39  1  0
 19 40  1  0
 19 41  1  0
 21 42  1  0
 26 43  1  0
M  END
$$$$
