@<TRIPOS>MOLECULE
*****
 43 45 0 0 0
SMALL
GASTEIGER

@<TRIPOS>ATOM
      1 N           2.3757    0.5052   -1.9618 N.3     1  UNL1       -0.3265
      2 C           1.6624   -0.0341   -0.8195 C.3     1  UNL1        0.0172
      3 C           0.4020   -0.7065   -1.3079 C.3     1  UNL1        0.0396
      4 C          -0.3972   -1.2884   -0.2303 C.2     1  UNL1        0.2175
      5 O          -0.0519   -2.4083    0.2283 O.2     1  UNL1       -0.2755
      6 N          -1.5460   -0.6702    0.3386 N.am    1  UNL1       -0.2924
      7 C          -2.0402    0.6216   -0.1065 C.3     1  UNL1        0.0332
      8 C          -3.4507    0.3887   -0.6232 C.3     1  UNL1        0.0422
      9 N          -4.2523   -0.0267    0.5167 N.ar    1  UNL1       -0.3048
     10 C          -3.6960   -0.8145    1.4539 C.ar    1  UNL1        0.1512
     11 N          -4.6569   -1.0302    2.3678 N.ar    1  UNL1       -0.1324
     12 N          -5.7685   -0.3892    1.9944 N.ar    1  UNL1       -0.1250
     13 C          -5.5329    0.2425    0.8404 C.ar    1  UNL1        0.2376
     14 C          -6.4565    1.0894    0.0248 C.3     1  UNL1        0.4524
     15 F          -6.1852    2.4083    0.3626 F       1  UNL1       -0.1632
     16 F          -7.7633    0.7411    0.2756 F       1  UNL1       -0.1632
     17 F          -6.1113    0.9323   -1.3024 F       1  UNL1       -0.1632
     18 C          -2.3034   -1.2992    1.4104 C.3     1  UNL1        0.0746
     19 C           2.5714   -1.0046   -0.0925 C.3     1  UNL1       -0.0092
     20 C           3.7789   -0.2770    0.3545 C.ar    1  UNL1       -0.0078
     21 C           4.9785   -0.4223   -0.3018 C.ar    1  UNL1       -0.0176
     22 C           6.1259    0.2565    0.1066 C.ar    1  UNL1        0.1588
     23 F           7.2718    0.0488   -0.6079 F       1  UNL1       -0.2025
     24 C           6.0726    1.0938    1.1887 C.ar    1  UNL1        0.1611
     25 F           7.2207    1.7318    1.5458 F       1  UNL1       -0.2024
     26 C           4.8871    1.2527    1.8567 C.ar    1  UNL1        0.0119
     27 C           3.7634    0.5784    1.4446 C.ar    1  UNL1        0.1295
     28 F           2.5850    0.7495    2.1244 F       1  UNL1       -0.2051
     29 H           1.8360    1.2086   -2.4777 H       1  UNL1        0.1185
     30 H           2.7896   -0.2440   -2.5587 H       1  UNL1        0.1185
     31 H           1.4431    0.8286   -0.1506 H       1  UNL1        0.0466
     32 H           0.7513   -1.5153   -2.0165 H       1  UNL1        0.0374
     33 H          -0.1361    0.0099   -1.9552 H       1  UNL1        0.0374
     34 H          -1.3971    1.1315   -0.8181 H       1  UNL1        0.0482
     35 H          -2.1409    1.2370    0.8353 H       1  UNL1        0.0482
     36 H          -3.8544    1.3045   -1.1046 H       1  UNL1        0.0508
     37 H          -3.4980   -0.4189   -1.3620 H       1  UNL1        0.0508
     38 H          -2.2184   -2.3940    1.4080 H       1  UNL1        0.0545
     39 H          -1.8109   -0.9553    2.3662 H       1  UNL1        0.0545
     40 H           2.0244   -1.4650    0.7658 H       1  UNL1        0.0329
     41 H           2.8314   -1.8226   -0.7696 H       1  UNL1        0.0329
     42 H           5.0478   -1.0840   -1.1677 H       1  UNL1        0.0651
     43 H           4.8491    1.9098    2.7042 H       1  UNL1        0.0676
@<TRIPOS>BOND
     1     1     2    1
     2     2     3    1
     3     3     4    1
     4     4     5    2
     5     4     6   am
     6     6     7    1
     7     7     8    1
     8     8     9    1
     9     9    10   ar
    10    10    11   ar
    11    11    12   ar
    12    12    13   ar
    13    13    14    1
    14    14    15    1
    15    14    16    1
    16    14    17    1
    17    10    18    1
    18     2    19    1
    19    19    20    1
    20    20    21   ar
    21    21    22   ar
    22    22    23    1
    23    22    24   ar
    24    24    25    1
    25    24    26   ar
    26    26    27   ar
    27    27    28    1
    28    18     6    1
    29    27    20   ar
    30    13     9   ar
    31     1    29    1
    32     1    30    1
    33     2    31    1
    34     3    32    1
    35     3    33    1
    36     7    34    1
    37     7    35    1
    38     8    36    1
    39     8    37    1
    40    18    38    1
    41    18    39    1
    42    19    40    1
    43    19    41    1
    44    21    42    1
    45    26    43    1
