@<TRIPOS>MOLECULE
*****
 42 44 0 0 0
SMALL
GASTEIGER

@<TRIPOS>ATOM
      1 C          -6.0502   -2.2326   -0.5549 C.3     1  UNL1       -0.0570
      2 C          -5.3865   -0.8997   -0.2019 C.3     1  UNL1        0.0211
      3 C          -3.9309   -1.1762   -0.0079 C.2     1  UNL1        0.2132
      4 O          -3.4401   -2.3285   -0.1431 O.2     1  UNL1       -0.2758
      5 N          -3.0665   -0.1307    0.3370 N.am    1  UNL1       -0.3084
      6 C          -1.6641   -0.2825    0.5464 C.3     1  UNL1        0.0501
      7 C          -1.2366    0.0109    1.9719 C.3     1  UNL1       -0.0300
      8 C           0.1539   -0.5316    2.1637 C.3     1  UNL1       -0.0470
      9 C           0.9388   -0.6660    0.8687 C.3     1  UNL1       -0.0266
     10 C           0.5738    0.3738   -0.1182 C.ar    1  UNL1       -0.0318
     11 C           1.4778    1.1034   -0.8414 C.ar    1  UNL1        0.0037
     12 C           2.9011    0.9342   -0.6068 C.ar    1  UNL1       -0.0161
     13 C           3.6667    0.6159   -1.7254 C.ar    1  UNL1       -0.0528
     14 C           5.0164    0.4625   -1.6016 C.ar    1  UNL1       -0.0438
     15 C           5.6650    0.6097   -0.4058 C.ar    1  UNL1        0.0518
     16 C           7.0888    0.4532   -0.2436 C.1     1  UNL1        0.0992
     17 N           8.2453    0.3393   -0.1256 N.1     1  UNL1       -0.1909
     18 C           4.8758    0.9268    0.6892 C.ar    1  UNL1       -0.0438
     19 C           3.5091    1.0890    0.5972 C.ar    1  UNL1       -0.0528
     20 C           1.0040    2.0239   -1.7684 C.ar    1  UNL1        0.0355
     21 N          -0.3120    2.1812   -1.9363 N.ar    1  UNL1       -0.2623
     22 C          -1.2320    1.4544   -1.2138 C.ar    1  UNL1        0.0328
     23 C          -0.8021    0.5432   -0.2970 C.ar    1  UNL1       -0.0054
     24 H          -6.9825   -2.0620   -1.1052 H       1  UNL1        0.0234
     25 H          -5.3965   -2.8346   -1.2205 H       1  UNL1        0.0234
     26 H          -6.2891   -2.7661    0.3899 H       1  UNL1        0.0234
     27 H          -5.5370   -0.2404   -1.0898 H       1  UNL1        0.0356
     28 H          -5.8538   -0.4532    0.6740 H       1  UNL1        0.0356
     29 H          -3.4742    0.8288    0.4500 H       1  UNL1        0.1493
     30 H          -1.3785   -1.3572    0.3777 H       1  UNL1        0.0549
     31 H          -1.9441   -0.4035    2.7115 H       1  UNL1        0.0286
     32 H          -1.1644    1.1232    2.0844 H       1  UNL1        0.0286
     33 H           0.0215   -1.5829    2.5525 H       1  UNL1        0.0269
     34 H           0.7422    0.0256    2.9199 H       1  UNL1        0.0269
     35 H           2.0143   -0.7619    1.0466 H       1  UNL1        0.0313
     36 H           0.6414   -1.6534    0.3830 H       1  UNL1        0.0313
     37 H           3.1952    0.4878   -2.7032 H       1  UNL1        0.0624
     38 H           5.6127    0.2127   -2.4821 H       1  UNL1        0.0631
     39 H           5.3981    1.0432    1.6417 H       1  UNL1        0.0631
     40 H           2.9344    1.3476    1.4801 H       1  UNL1        0.0624
     41 H           1.7538    2.5741   -2.3149 H       1  UNL1        0.0836
     42 H          -2.2889    1.5985   -1.3654 H       1  UNL1        0.0833
@<TRIPOS>BOND
     1     1     2    1
     2     2     3    1
     3     3     4    2
     4     3     5   am
     5     5     6    1
     6     6     7    1
     7     7     8    1
     8     8     9    1
     9     9    10    1
    10    10    11   ar
    11    11    12    1
    12    12    13   ar
    13    13    14   ar
    14    14    15   ar
    15    15    16    1
    16    16    17    3
    17    15    18   ar
    18    18    19   ar
    19    11    20   ar
    20    20    21   ar
    21    21    22   ar
    22    22    23   ar
    23    23     6    1
    24    23    10   ar
    25    19    12   ar
    26     1    24    1
    27     1    25    1
    28     1    26    1
    29     2    27    1
    30     2    28    1
    31     5    29    1
    32     6    30    1
    33     7    31    1
    34     7    32    1
    35     8    33    1
    36     8    34    1
    37     9    35    1
    38     9    36    1
    39    13    37    1
    40    14    38    1
    41    18    39    1
    42    19    40    1
    43    20    41    1
    44    22    42    1
