
     RDKit          3D

 42 44  0  0  0  0  0  0  0  0999 V2000
   -6.0502   -2.2326   -0.5549 C   0  0  0  0  0  0  0  0  0  0  0  0
   -5.3865   -0.8997   -0.2019 C   0  0  0  0  0  0  0  0  0  0  0  0
   -3.9309   -1.1762   -0.0079 C   0  0  0  0  0  0  0  0  0  0  0  0
   -3.4401   -2.3285   -0.1431 O   0  0  0  0  0  0  0  0  0  0  0  0
   -3.0665   -0.1307    0.3370 N   0  0  0  0  0  0  0  0  0  0  0  0
   -1.6641   -0.2825    0.5464 C   0  0  2  0  0  0  0  0  0  0  0  0
   -1.2366    0.0109    1.9719 C   0  0  0  0  0  0  0  0  0  0  0  0
    0.1539   -0.5316    2.1637 C   0  0  0  0  0  0  0  0  0  0  0  0
    0.9388   -0.6660    0.8687 C   0  0  0  0  0  0  0  0  0  0  0  0
    0.5738    0.3738   -0.1182 C   0  0  0  0  0  0  0  0  0  0  0  0
    1.4778    1.1034   -0.8414 C   0  0  0  0  0  0  0  0  0  0  0  0
    2.9011    0.9342   -0.6068 C   0  0  0  0  0  0  0  0  0  0  0  0
    3.6667    0.6159   -1.7254 C   0  0  0  0  0  0  0  0  0  0  0  0
    5.0164    0.4625   -1.6016 C   0  0  0  0  0  0  0  0  0  0  0  0
    5.6650    0.6097   -0.4058 C   0  0  0  0  0  0  0  0  0  0  0  0
    7.0888    0.4532   -0.2436 C   0  0  0  0  0  0  0  0  0  0  0  0
    8.2453    0.3393   -0.1256 N   0  0  0  0  0  0  0  0  0  0  0  0
    4.8758    0.9268    0.6892 C   0  0  0  0  0  0  0  0  0  0  0  0
    3.5091    1.0890    0.5972 C   0  0  0  0  0  0  0  0  0  0  0  0
    1.0040    2.0239   -1.7684 C   0  0  0  0  0  0  0  0  0  0  0  0
   -0.3120    2.1812   -1.9363 N   0  0  0  0  0  0  0  0  0  0  0  0
   -1.2320    1.4544   -1.2138 C   0  0  0  0  0  0  0  0  0  0  0  0
   -0.8021    0.5432   -0.2970 C   0  0  0  0  0  0  0  0  0  0  0  0
   -6.9825   -2.0620   -1.1052 H   0  0  0  0  0  0  0  0  0  0  0  0
   -5.3965   -2.8346   -1.2205 H   0  0  0  0  0  0  0  0  0  0  0  0
   -6.2891   -2.7661    0.3899 H   0  0  0  0  0  0  0  0  0  0  0  0
   -5.5370   -0.2404   -1.0898 H   0  0  0  0  0  0  0  0  0  0  0  0
   -5.8538   -0.4532    0.6740 H   0  0  0  0  0  0  0  0  0  0  0  0
   -3.4742    0.8288    0.4500 H   0  0  0  0  0  0  0  0  0  0  0  0
   -1.3785   -1.3572    0.3777 H   0  0  0  0  0  0  0  0  0  0  0  0
   -1.9441   -0.4035    2.7115 H   0  0  0  0  0  0  0  0  0  0  0  0
   -1.1644    1.1232    2.0844 H   0  0  0  0  0  0  0  0  0  0  0  0
    0.0215   -1.5829    2.5525 H   0  0  0  0  0  0  0  0  0  0  0  0
    0.7422    0.0256    2.9199 H   0  0  0  0  0  0  0  0  0  0  0  0
    2.0143   -0.7619    1.0466 H   0  0  0  0  0  0  0  0  0  0  0  0
    0.6414   -1.6534    0.3830 H   0  0  0  0  0  0  0  0  0  0  0  0
    3.1952    0.4878   -2.7032 H   0  0  0  0  0  0  0  0  0  0  0  0
    5.6127    0.2127   -2.4821 H   0  0  0  0  0  0  0  0  0  0  0  0
    5.3981    1.0432    1.6417 H   0  0  0  0  0  0  0  0  0  0  0  0
    2.9344    1.3476    1.4801 H   0  0  0  0  0  0  0  0  0  0  0  0
    1.7538    2.5741   -2.3149 H   0  0  0  0  0  0  0  0  0  0  0  0
   -2.2889    1.5985   -1.3654 H   0  0  0  0  0  0  0  0  0  0  0  0
  1  2  1  0
  2  3  1  0
  3  4  2  0
  3  5  1  0
  5  6  1  0
  6  7  1  0
  7  8  1  0
  8  9  1  0
  9 10  1  0
 10 11  2  0
 11 12  1  0
 12 13  2  0
 13 14  1  0
 14 15  2  0
 15 16  1  0
 16 17  3  0
 15 18  1  0
 18 19  2  0
 11 20  1  0
 20 21  2  0
 21 22  1  0
 22 23  2  0
 23  6  1  0
 23 10  1  0
 19 12  1  0
  1 24  1  0
  1 25  1  0
  1 26  1  0
  2 27  1  0
  2 28  1  0
  5 29  1  0
  6 30  1  6
  7 31  1  0
  7 32  1  0
  8 33  1  0
  8 34  1  0
  9 35  1  0
  9 36  1  0
 13 37  1  0
 14 38  1  0
 18 39  1  0
 19 40  1  0
 20 41  1  0
 22 42  1  0
M  END
$$$$
