@<TRIPOS>MOLECULE
*****
 31 32 0 0 0
SMALL
GASTEIGER

@<TRIPOS>ATOM
      1 C           4.8268    0.7491    1.1676 C.3     1  UNL1        0.0789
      2 O           4.3551   -0.5157    0.7688 O.3     1  UNL1       -0.4930
      3 C           3.0395   -0.7627    0.4141 C.ar    1  UNL1        0.1462
      4 C           2.6340   -0.5970   -0.8882 C.ar    1  UNL1        0.0563
      5 I           4.0328    0.0509   -2.3368 I       1  UNL1       -0.0400
      6 C           1.3188   -0.8506   -1.2175 C.ar    1  UNL1       -0.0415
      7 C           0.3656   -1.2712   -0.2877 C.ar    1  UNL1       -0.0407
      8 C          -0.9814   -1.5031   -0.8050 C.3     1  UNL1        0.0023
      9 C          -1.8687   -0.3569   -0.9040 C.ar    1  UNL1        0.0146
     10 C          -2.1226    0.3342   -2.0786 C.ar    1  UNL1        0.0379
     11 N          -2.9479    1.3806   -2.0343 N.ar    1  UNL1       -0.2227
     12 C          -3.5663    1.8302   -0.9240 C.ar    1  UNL1        0.2142
     13 N          -4.4341    2.9488   -0.9221 N.pl3   1  UNL1       -0.3274
     14 N          -3.3366    1.1786    0.2220 N.ar    1  UNL1       -0.1999
     15 C          -2.5023    0.1053    0.2248 C.ar    1  UNL1        0.1247
     16 N          -2.3405   -0.5183    1.5109 N.pl3   1  UNL1       -0.3428
     17 C           0.7994   -1.4268    1.0016 C.ar    1  UNL1       -0.0415
     18 C           2.1294   -1.1765    1.3637 C.ar    1  UNL1        0.0563
     19 I           2.6586   -1.4553    3.3864 I       1  UNL1       -0.0400
     20 H           4.7996    0.9477    2.2420 H       1  UNL1        0.0660
     21 H           5.8954    0.9106    0.8412 H       1  UNL1        0.0660
     22 H           4.2220    1.4861    0.5589 H       1  UNL1        0.0660
     23 H           1.0518   -0.7028   -2.2593 H       1  UNL1        0.0632
     24 H          -1.5105   -2.2593   -0.1469 H       1  UNL1        0.0363
     25 H          -0.8831   -1.9785   -1.8262 H       1  UNL1        0.0363
     26 H          -1.6358   -0.0109   -2.9796 H       1  UNL1        0.0834
     27 H          -4.8999    3.3120   -1.7798 H       1  UNL1        0.1452
     28 H          -4.6248    3.4422   -0.0245 H       1  UNL1        0.1452
     29 H          -2.4661   -1.5438    1.5711 H       1  UNL1        0.1437
     30 H          -2.1088    0.0129    2.3503 H       1  UNL1        0.1437
     31 H           0.1001   -1.7598    1.7650 H       1  UNL1        0.0632
@<TRIPOS>BOND
     1     1     2    1
     2     2     3    1
     3     3     4   ar
     4     4     5    1
     5     4     6   ar
     6     6     7   ar
     7     7     8    1
     8     8     9    1
     9     9    10   ar
    10    10    11   ar
    11    11    12   ar
    12    12    13    1
    13    12    14   ar
    14    14    15   ar
    15    15    16    1
    16     7    17   ar
    17    17    18   ar
    18    18    19    1
    19    18     3   ar
    20    15     9   ar
    21     1    20    1
    22     1    21    1
    23     1    22    1
    24     6    23    1
    25     8    24    1
    26     8    25    1
    27    10    26    1
    28    13    27    1
    29    13    28    1
    30    16    29    1
    31    16    30    1
    32    17    31    1
