
     RDKit          3D

 46 46  0  0  0  0  0  0  0  0999 V2000
   -0.3427    0.0263   -0.1179 C   0  0  1  0  0  0  0  0  0  0  0  0
   -0.6274    0.2905    1.2803 N   0  0  0  0  0  0  0  0  0  0  0  0
   -1.3567    0.7457   -0.9778 C   0  0  0  0  0  0  0  0  0  0  0  0
   -2.7605    0.3219   -0.7161 C   0  0  0  0  0  0  0  0  0  0  0  0
   -3.0084   -1.1392   -0.9606 C   0  0  0  0  0  0  0  0  0  0  0  0
   -4.4887   -1.3540   -1.0574 C   0  0  0  0  0  0  0  0  0  0  0  0
   -5.2529   -0.7963    0.1082 C   0  0  0  0  0  0  0  0  0  0  0  0
   -4.7938    0.5653    0.5452 C   0  0  0  0  0  0  0  0  0  0  0  0
   -3.2641    0.6327    0.6500 C   0  0  0  0  0  0  0  0  0  0  0  0
    1.0093    0.6196   -0.4297 C   0  0  1  0  0  0  0  0  0  0  0  0
    0.9874    1.9907   -0.1940 O   0  0  0  0  0  0  0  0  0  0  0  0
    2.1116    0.0199    0.4171 C   0  0  1  0  0  0  0  0  0  0  0  0
    2.1202   -1.3509    0.1707 O   0  0  0  0  0  0  0  0  0  0  0  0
    3.4225    0.6210   -0.0449 C   0  0  0  0  0  0  0  0  0  0  0  0
    4.5939    0.0829    0.7439 C   0  0  0  0  0  0  0  0  0  0  0  0
    5.8459    0.7451    0.2042 C   0  0  0  0  0  0  0  0  0  0  0  0
    4.7462   -1.4007    0.6093 C   0  0  0  0  0  0  0  0  0  0  0  0
   -0.3415   -1.0568   -0.2933 H   0  0  0  0  0  0  0  0  0  0  0  0
   -0.3814    1.2750    1.5464 H   0  0  0  0  0  0  0  0  0  0  0  0
   -0.2108   -0.4311    1.9147 H   0  0  0  0  0  0  0  0  0  0  0  0
   -1.1429    0.6049   -2.0570 H   0  0  0  0  0  0  0  0  0  0  0  0
   -1.2872    1.8315   -0.7614 H   0  0  0  0  0  0  0  0  0  0  0  0
   -3.4060    0.8697   -1.4350 H   0  0  0  0  0  0  0  0  0  0  0  0
   -2.5688   -1.6849   -0.0983 H   0  0  0  0  0  0  0  0  0  0  0  0
   -2.5434   -1.3934   -1.9186 H   0  0  0  0  0  0  0  0  0  0  0  0
   -4.8578   -0.9792   -2.0168 H   0  0  0  0  0  0  0  0  0  0  0  0
   -4.6729   -2.4627   -1.0735 H   0  0  0  0  0  0  0  0  0  0  0  0
   -6.3189   -0.6664   -0.2440 H   0  0  0  0  0  0  0  0  0  0  0  0
   -5.3350   -1.5099    0.9572 H   0  0  0  0  0  0  0  0  0  0  0  0
   -5.2843    0.7801    1.5154 H   0  0  0  0  0  0  0  0  0  0  0  0
   -5.0825    1.2776   -0.2569 H   0  0  0  0  0  0  0  0  0  0  0  0
   -2.9774    1.5969    1.0657 H   0  0  0  0  0  0  0  0  0  0  0  0
   -3.0085   -0.2352    1.3201 H   0  0  0  0  0  0  0  0  0  0  0  0
    1.1966    0.4798   -1.5109 H   0  0  0  0  0  0  0  0  0  0  0  0
    0.7254    2.5206   -0.9875 H   0  0  0  0  0  0  0  0  0  0  0  0
    2.0012    0.2470    1.4786 H   0  0  0  0  0  0  0  0  0  0  0  0
    1.9356   -1.4994   -0.8104 H   0  0  0  0  0  0  0  0  0  0  0  0
    3.6333    0.4449   -1.1112 H   0  0  0  0  0  0  0  0  0  0  0  0
    3.3960    1.7015    0.1277 H   0  0  0  0  0  0  0  0  0  0  0  0
    4.4955    0.3969    1.8106 H   0  0  0  0  0  0  0  0  0  0  0  0
    5.7586    1.8190    0.0424 H   0  0  0  0  0  0  0  0  0  0  0  0
    6.1183    0.2434   -0.7502 H   0  0  0  0  0  0  0  0  0  0  0  0
    6.6983    0.5725    0.8929 H   0  0  0  0  0  0  0  0  0  0  0  0
    4.2473   -1.9866    1.4090 H   0  0  0  0  0  0  0  0  0  0  0  0
    4.4403   -1.7288   -0.4088 H   0  0  0  0  0  0  0  0  0  0  0  0
    5.8311   -1.6479    0.6704 H   0  0  0  0  0  0  0  0  0  0  0  0
  1  2  1  0
  1  3  1  0
  3  4  1  0
  4  5  1  0
  5  6  1  0
  6  7  1  0
  7  8  1  0
  8  9  1  0
  1 10  1  0
 10 11  1  0
 10 12  1  0
 12 13  1  0
 12 14  1  0
 14 15  1  0
 15 16  1  0
 15 17  1  0
  9  4  1  0
  1 18  1  1
  2 19  1  0
  2 20  1  0
  3 21  1  0
  3 22  1  0
  4 23  1  0
  5 24  1  0
  5 25  1  0
  6 26  1  0
  6 27  1  0
  7 28  1  0
  7 29  1  0
  8 30  1  0
  8 31  1  0
  9 32  1  0
  9 33  1  0
 10 34  1  6
 11 35  1  0
 12 36  1  1
 13 37  1  0
 14 38  1  0
 14 39  1  0
 15 40  1  0
 16 41  1  0
 16 42  1  0
 16 43  1  0
 17 44  1  0
 17 45  1  0
 17 46  1  0
M  END
$$$$
