
     RDKit          3D

 42 45  0  0  0  0  0  0  0  0999 V2000
    1.9863    0.3493   -0.2934 O   0  0  0  0  0  0  0  0  0  0  0  0
    2.0886   -0.8574   -0.0786 C   0  0  0  0  0  0  0  0  0  0  0  0
    0.8810   -1.6108    0.0020 N   0  0  0  0  0  0  0  0  0  0  0  0
   -0.4322   -1.1380   -0.1356 C   0  0  0  0  0  0  0  0  0  0  0  0
   -0.8423    0.1296   -0.3739 C   0  0  0  0  0  0  0  0  0  0  0  0
   -2.1759    0.5019   -0.4949 C   0  0  0  0  0  0  0  0  0  0  0  0
   -3.1612   -0.4369   -0.3724 C   0  0  0  0  0  0  0  0  0  0  0  0
   -4.5589   -0.0872   -0.4870 C   0  0  0  0  0  0  0  0  0  0  0  0
   -5.4132   -0.8313   -1.2867 C   0  0  0  0  0  0  0  0  0  0  0  0
   -6.7582   -0.5096   -1.4173 C   0  0  0  0  0  0  0  0  0  0  0  0
   -7.2567    0.5422   -0.7609 N   0  0  0  0  0  0  0  0  0  0  0  0
   -6.4282    1.2677    0.0178 C   0  0  0  0  0  0  0  0  0  0  0  0
   -6.7070    2.3535    0.7642 N   0  0  0  0  0  0  0  0  0  0  0  0
   -5.5894    2.7648    1.3879 C   0  0  0  0  0  0  0  0  0  0  0  0
   -4.6012    1.9170    1.0200 N   0  0  0  0  0  0  0  0  0  0  0  0
   -5.0974    0.9949    0.1816 C   0  0  0  0  0  0  0  0  0  0  0  0
   -2.7802   -1.7360   -0.1299 C   0  0  0  0  0  0  0  0  0  0  0  0
   -1.4483   -2.0975   -0.0110 C   0  0  0  0  0  0  0  0  0  0  0  0
    3.3552   -1.4516    0.0782 N   0  0  0  0  0  0  0  0  0  0  0  0
    4.5873   -0.7807    0.0130 C   0  0  0  0  0  0  0  0  0  0  0  0
    5.7698   -1.5312    0.1936 C   0  0  0  0  0  0  0  0  0  0  0  0
    7.0178   -0.9683    0.1478 C   0  0  0  0  0  0  0  0  0  0  0  0
    7.1888    0.3747   -0.0792 C   0  0  0  0  0  0  0  0  0  0  0  0
    6.0594    1.1259   -0.2577 C   0  0  0  0  0  0  0  0  0  0  0  0
    6.1538    2.5258   -0.4980 N   0  0  0  0  0  4  0  0  0  0  0  0
    7.2446    3.1211   -0.5560 O   0  0  0  0  0  0  0  0  0  0  0  0
    5.0284    3.2926   -0.6790 O   0  0  0  0  0  1  0  0  0  0  0  0
    4.7827    0.5563   -0.2120 C   0  0  0  0  0  0  0  0  0  0  0  0
    1.0365   -2.6483    0.1895 H   0  0  0  0  0  0  0  0  0  0  0  0
   -0.1153    0.9150   -0.4804 H   0  0  0  0  0  0  0  0  0  0  0  0
   -2.4513    1.5249   -0.6886 H   0  0  0  0  0  0  0  0  0  0  0  0
   -5.0566   -1.6988   -1.8433 H   0  0  0  0  0  0  0  0  0  0  0  0
   -7.3890   -1.1099   -2.0464 H   0  0  0  0  0  0  0  0  0  0  0  0
   -5.5214    3.6206    2.0565 H   0  0  0  0  0  0  0  0  0  0  0  0
   -3.6174    1.9700    1.3373 H   0  0  0  0  0  0  0  0  0  0  0  0
   -3.5297   -2.4985   -0.0284 H   0  0  0  0  0  0  0  0  0  0  0  0
   -1.2113   -3.1385    0.1805 H   0  0  0  0  0  0  0  0  0  0  0  0
    3.3666   -2.5038    0.2622 H   0  0  0  0  0  0  0  0  0  0  0  0
    5.6266   -2.6020    0.3744 H   0  0  0  0  0  0  0  0  0  0  0  0
    7.8630   -1.6335    0.2994 H   0  0  0  0  0  0  0  0  0  0  0  0
    8.1876    0.8309   -0.1169 H   0  0  0  0  0  0  0  0  0  0  0  0
    3.9181    1.1910   -0.3591 H   0  0  0  0  0  0  0  0  0  0  0  0
  1  2  2  0
  2  3  1  0
  3  4  1  0
  4  5  2  0
  5  6  1  0
  6  7  2  0
  7  8  1  0
  8  9  2  0
  9 10  1  0
 10 11  2  0
 11 12  1  0
 12 13  1  0
 13 14  2  0
 14 15  1  0
 15 16  1  0
  7 17  1  0
 17 18  2  0
  2 19  1  0
 19 20  1  0
 20 21  2  0
 21 22  1  0
 22 23  2  0
 23 24  1  0
 24 25  1  0
 25 26  2  0
 25 27  1  0
 24 28  2  0
 18  4  1  0
 28 20  1  0
 16  8  1  0
 16 12  2  0
  3 29  1  0
  5 30  1  0
  6 31  1  0
  9 32  1  0
 10 33  1  0
 14 34  1  0
 15 35  1  0
 17 36  1  0
 18 37  1  0
 19 38  1  0
 21 39  1  0
 22 40  1  0
 23 41  1  0
 28 42  1  0
M  CHG  2  25   1  27  -1
M  END
$$$$
