@<TRIPOS>MOLECULE
*****
 42 45 0 0 0
SMALL
GASTEIGER

@<TRIPOS>ATOM
      1 O           1.9863    0.3493   -0.2934 O.2     1  UNL1       -0.2522
      2 C           2.0886   -0.8574   -0.0786 C.2     1  UNL1        0.3081
      3 N           0.8810   -1.6108    0.0020 N.am    1  UNL1       -0.2692
      4 C          -0.4322   -1.1380   -0.1356 C.ar    1  UNL1        0.0348
      5 C          -0.8423    0.1296   -0.3739 C.ar    1  UNL1       -0.0399
      6 C          -2.1759    0.5019   -0.4949 C.ar    1  UNL1       -0.0522
      7 C          -3.1612   -0.4369   -0.3724 C.ar    1  UNL1       -0.0156
      8 C          -4.5589   -0.0872   -0.4870 C.ar    1  UNL1        0.0105
      9 C          -5.4132   -0.8313   -1.2867 C.ar    1  UNL1       -0.0338
     10 C          -6.7582   -0.5096   -1.4173 C.ar    1  UNL1        0.0307
     11 N          -7.2567    0.5422   -0.7609 N.ar    1  UNL1       -0.2344
     12 C          -6.4282    1.2677    0.0178 C.ar    1  UNL1        0.1783
     13 N          -6.7070    2.3535    0.7642 N.ar    1  UNL1       -0.2166
     14 C          -5.5894    2.7648    1.3879 C.ar    1  UNL1        0.0962
     15 N          -4.6012    1.9170    1.0200 N.ar    1  UNL1       -0.3426
     16 C          -5.0974    0.9949    0.1816 C.ar    1  UNL1        0.0929
     17 C          -2.7802   -1.7360   -0.1299 C.ar    1  UNL1       -0.0522
     18 C          -1.4483   -2.0975   -0.0110 C.ar    1  UNL1       -0.0399
     19 N           3.3552   -1.4516    0.0782 N.am    1  UNL1       -0.2690
     20 C           4.5873   -0.7807    0.0130 C.ar    1  UNL1        0.0412
     21 C           5.7698   -1.5312    0.1936 C.ar    1  UNL1       -0.0400
     22 C           7.0178   -0.9683    0.1478 C.ar    1  UNL1       -0.0536
     23 C           7.1888    0.3747   -0.0792 C.ar    1  UNL1        0.0157
     24 C           6.0594    1.1259   -0.2577 C.ar    1  UNL1        0.2749
     25 N           6.1538    2.5258   -0.4980 N.pl3   1  UNL1        0.0797
     26 O           7.2446    3.1211   -0.5560 O.2     1  UNL1        0.0414
     27 O           5.0284    3.2926   -0.6790 O.co2   1  UNL1       -0.5760
     28 C           4.7827    0.5563   -0.2120 C.ar    1  UNL1        0.0368
     29 H           1.0365   -2.6483    0.1895 H       1  UNL1        0.1564
     30 H          -0.1153    0.9150   -0.4804 H       1  UNL1        0.0636
     31 H          -2.4513    1.5249   -0.6886 H       1  UNL1        0.0624
     32 H          -5.0566   -1.6988   -1.8433 H       1  UNL1        0.0639
     33 H          -7.3890   -1.1099   -2.0464 H       1  UNL1        0.0830
     34 H          -5.5214    3.6206    2.0565 H       1  UNL1        0.1027
     35 H          -3.6174    1.9700    1.3373 H       1  UNL1        0.1669
     36 H          -3.5297   -2.4985   -0.0284 H       1  UNL1        0.0624
     37 H          -1.2113   -3.1385    0.1805 H       1  UNL1        0.0636
     38 H           3.3666   -2.5038    0.2622 H       1  UNL1        0.1564
     39 H           5.6266   -2.6020    0.3744 H       1  UNL1        0.0636
     40 H           7.8630   -1.6335    0.2994 H       1  UNL1        0.0620
     41 H           8.1876    0.8309   -0.1169 H       1  UNL1        0.0685
     42 H           3.9181    1.1910   -0.3591 H       1  UNL1        0.0704
@<TRIPOS>UNITY_ATOM_ATTR
25 1
charge 1
27 1
charge -1
@<TRIPOS>BOND
     1     1     2    2
     2     2     3   am
     3     3     4    1
     4     4     5   ar
     5     5     6   ar
     6     6     7   ar
     7     7     8    1
     8     8     9   ar
     9     9    10   ar
    10    10    11   ar
    11    11    12   ar
    12    12    13   ar
    13    13    14   ar
    14    14    15   ar
    15    15    16   ar
    16     7    17   ar
    17    17    18   ar
    18     2    19   am
    19    19    20    1
    20    20    21   ar
    21    21    22   ar
    22    22    23   ar
    23    23    24   ar
    24    24    25    1
    25    25    26    2
    26    25    27    1
    27    24    28   ar
    28    18     4   ar
    29    28    20   ar
    30    16     8   ar
    31    16    12   ar
    32     3    29    1
    33     5    30    1
    34     6    31    1
    35     9    32    1
    36    10    33    1
    37    14    34    1
    38    15    35    1
    39    17    36    1
    40    18    37    1
    41    19    38    1
    42    21    39    1
    43    22    40    1
    44    23    41    1
    45    28    42    1
