
     RDKit          3D

 52 56  0  0  0  0  0  0  0  0999 V2000
   -4.0325   -2.0341    1.8594 C   0  0  0  0  0  0  0  0  0  0  0  0
   -4.2678   -0.9352    0.9230 N   0  0  0  0  0  0  0  0  0  0  0  0
   -5.4242   -0.4080    0.5403 C   0  0  0  0  0  0  0  0  0  0  0  0
   -5.1265    0.6001   -0.3513 C   0  0  0  0  0  0  0  0  0  0  0  0
   -3.7596    0.6819   -0.5090 C   0  0  0  0  0  0  0  0  0  0  0  0
   -2.9111    1.4868   -1.2598 C   0  0  0  0  0  0  0  0  0  0  0  0
   -1.5415    1.3245   -1.2064 C   0  0  0  0  0  0  0  0  0  0  0  0
   -1.0080    0.3419   -0.3898 C   0  0  0  0  0  0  0  0  0  0  0  0
    0.4158    0.1412   -0.3066 N   0  0  0  0  0  0  0  0  0  0  0  0
    0.9468   -1.0724   -0.4677 C   0  0  0  0  0  0  0  0  0  0  0  0
    2.3062   -1.3216   -0.3980 C   0  0  0  0  0  0  0  0  0  0  0  0
    3.1661   -0.2674   -0.1495 C   0  0  0  0  0  0  0  0  0  0  0  0
    4.5364   -0.4801   -0.0727 O   0  0  0  0  0  0  0  0  0  0  0  0
    5.3526    0.6721    0.1887 C   0  0  0  0  0  0  0  0  0  0  0  0
    6.7805    0.3089    0.2449 C   0  0  0  0  0  0  0  0  0  0  0  0
    7.3287   -0.0534    1.4461 C   0  0  0  0  0  0  0  0  0  0  0  0
    8.6725   -0.4067    1.5599 C   0  0  0  0  0  0  0  0  0  0  0  0
    9.4582   -0.3842    0.4145 C   0  0  0  0  0  0  0  0  0  0  0  0
    8.9130   -0.0207   -0.7970 C   0  0  0  0  0  0  0  0  0  0  0  0
    7.5634    0.3254   -0.8654 C   0  0  0  0  0  0  0  0  0  0  0  0
    2.5894    0.9783    0.0132 C   0  0  0  0  0  0  0  0  0  0  0  0
    1.2283    1.1891   -0.0631 C   0  0  0  0  0  0  0  0  0  0  0  0
    0.7942    2.3590    0.0986 O   0  0  0  0  0  0  0  0  0  0  0  0
   -1.8656   -0.4475    0.3481 C   0  0  0  0  0  0  0  0  0  0  0  0
   -3.2429   -0.3018    0.3096 C   0  0  0  0  0  0  0  0  0  0  0  0
   -6.2503    1.3576   -0.9355 C   0  0  0  0  0  0  0  0  0  0  0  0
   -7.4040    0.3803   -1.1076 C   0  0  0  0  0  0  0  0  0  0  0  0
   -7.8043   -0.0581    0.1895 N   0  0  0  0  0  0  0  0  0  0  0  0
   -6.8101   -0.7585    0.9318 C   0  0  0  0  0  0  0  0  0  0  0  0
   -3.3648   -1.6423    2.6654 H   0  0  0  0  0  0  0  0  0  0  0  0
   -3.5281   -2.8355    1.2912 H   0  0  0  0  0  0  0  0  0  0  0  0
   -4.9676   -2.4231    2.2822 H   0  0  0  0  0  0  0  0  0  0  0  0
   -3.3503    2.2458   -1.8888 H   0  0  0  0  0  0  0  0  0  0  0  0
   -0.9005    1.9640   -1.8008 H   0  0  0  0  0  0  0  0  0  0  0  0
    0.3162   -1.9435   -0.6664 H   0  0  0  0  0  0  0  0  0  0  0  0
    2.7371   -2.3058   -0.5286 H   0  0  0  0  0  0  0  0  0  0  0  0
    5.0208    1.1260    1.1614 H   0  0  0  0  0  0  0  0  0  0  0  0
    5.1968    1.3870   -0.6633 H   0  0  0  0  0  0  0  0  0  0  0  0
    6.7176   -0.0713    2.3390 H   0  0  0  0  0  0  0  0  0  0  0  0
    9.0526   -0.6842    2.5321 H   0  0  0  0  0  0  0  0  0  0  0  0
   10.4895   -0.6619    0.5364 H   0  0  0  0  0  0  0  0  0  0  0  0
    9.5494   -0.0141   -1.6632 H   0  0  0  0  0  0  0  0  0  0  0  0
    7.1266    0.6116   -1.8090 H   0  0  0  0  0  0  0  0  0  0  0  0
    3.2907    1.8015    0.2098 H   0  0  0  0  0  0  0  0  0  0  0  0
   -1.4570   -1.2116    0.9835 H   0  0  0  0  0  0  0  0  0  0  0  0
   -6.5890    2.0907   -0.1511 H   0  0  0  0  0  0  0  0  0  0  0  0
   -5.9985    1.8762   -1.8610 H   0  0  0  0  0  0  0  0  0  0  0  0
   -8.2567    0.9116   -1.5708 H   0  0  0  0  0  0  0  0  0  0  0  0
   -7.0637   -0.4181   -1.7853 H   0  0  0  0  0  0  0  0  0  0  0  0
   -8.6942   -0.6339    0.0944 H   0  0  0  0  0  0  0  0  0  0  0  0
   -6.9357   -0.5103    2.0228 H   0  0  0  0  0  0  0  0  0  0  0  0
   -6.9949   -1.8565    0.8577 H   0  0  0  0  0  0  0  0  0  0  0  0
  1  2  1  0
  2  3  1  0
  3  4  2  0
  4  5  1  0
  5  6  2  0
  6  7  1  0
  7  8  2  0
  8  9  1  0
  9 10  1  0
 10 11  2  0
 11 12  1  0
 12 13  1  0
 13 14  1  0
 14 15  1  0
 15 16  2  0
 16 17  1  0
 17 18  2  0
 18 19  1  0
 19 20  2  0
 12 21  2  0
 21 22  1  0
 22 23  2  0
  8 24  1  0
 24 25  2  0
  4 26  1  0
 26 27  1  0
 27 28  1  0
 28 29  1  0
 25  2  1  0
 29  3  1  0
 25  5  1  0
 22  9  1  0
 20 15  1  0
  1 30  1  0
  1 31  1  0
  1 32  1  0
  6 33  1  0
  7 34  1  0
 10 35  1  0
 11 36  1  0
 14 37  1  0
 14 38  1  0
 16 39  1  0
 17 40  1  0
 18 41  1  0
 19 42  1  0
 20 43  1  0
 21 44  1  0
 24 45  1  0
 26 46  1  0
 26 47  1  0
 27 48  1  0
 27 49  1  0
 28 50  1  0
 29 51  1  0
 29 52  1  0
M  END
$$$$
