@<TRIPOS>MOLECULE
*****
 52 56 0 0 0
SMALL
GASTEIGER

@<TRIPOS>ATOM
      1 C          -4.0325   -2.0341    1.8594 C.3     1  UNL1        0.0122
      2 N          -4.2678   -0.9352    0.9230 N.ar    1  UNL1       -0.3454
      3 C          -5.4242   -0.4080    0.5403 C.ar    1  UNL1        0.0366
      4 C          -5.1265    0.6001   -0.3513 C.ar    1  UNL1       -0.0165
      5 C          -3.7596    0.6819   -0.5090 C.ar    1  UNL1        0.0035
      6 C          -2.9111    1.4868   -1.2598 C.ar    1  UNL1       -0.0504
      7 C          -1.5415    1.3245   -1.2064 C.ar    1  UNL1       -0.0371
      8 C          -1.0080    0.3419   -0.3898 C.ar    1  UNL1        0.0514
      9 N           0.4158    0.1412   -0.3066 N.ar    1  UNL1       -0.2839
     10 C           0.9468   -1.0724   -0.4677 C.ar    1  UNL1        0.0167
     11 C           2.3062   -1.3216   -0.3980 C.ar    1  UNL1       -0.0031
     12 C           3.1661   -0.2674   -0.1495 C.ar    1  UNL1        0.1275
     13 O           4.5364   -0.4801   -0.0727 O.3     1  UNL1       -0.4872
     14 C           5.3526    0.6721    0.1887 C.3     1  UNL1        0.1146
     15 C           6.7805    0.3089    0.2449 C.ar    1  UNL1       -0.0104
     16 C           7.3287   -0.0534    1.4461 C.ar    1  UNL1       -0.0554
     17 C           8.6725   -0.4067    1.5599 C.ar    1  UNL1       -0.0614
     18 C           9.4582   -0.3842    0.4145 C.ar    1  UNL1       -0.0617
     19 C           8.9130   -0.0207   -0.7970 C.ar    1  UNL1       -0.0614
     20 C           7.5634    0.3254   -0.8654 C.ar    1  UNL1       -0.0554
     21 C           2.5894    0.9783    0.0132 C.ar    1  UNL1        0.0450
     22 C           1.2283    1.1891   -0.0631 C.ar    1  UNL1        0.2592
     23 O           0.7942    2.3590    0.0986 O.2     1  UNL1       -0.2672
     24 C          -1.8656   -0.4475    0.3481 C.ar    1  UNL1       -0.0136
     25 C          -3.2429   -0.3018    0.3096 C.ar    1  UNL1        0.0513
     26 C          -6.2503    1.3576   -0.9355 C.3     1  UNL1       -0.0128
     27 C          -7.4040    0.3803   -1.1076 C.3     1  UNL1        0.0003
     28 N          -7.8043   -0.0581    0.1895 N.3     1  UNL1       -0.3103
     29 C          -6.8101   -0.7585    0.9318 C.3     1  UNL1        0.0369
     30 H          -3.3648   -1.6423    2.6654 H       1  UNL1        0.0456
     31 H          -3.5281   -2.8355    1.2912 H       1  UNL1        0.0456
     32 H          -4.9676   -2.4231    2.2822 H       1  UNL1        0.0456
     33 H          -3.3503    2.2458   -1.8888 H       1  UNL1        0.0625
     34 H          -0.9005    1.9640   -1.8008 H       1  UNL1        0.0638
     35 H           0.3162   -1.9435   -0.6664 H       1  UNL1        0.0815
     36 H           2.7371   -2.3058   -0.5286 H       1  UNL1        0.0669
     37 H           5.0208    1.1260    1.1614 H       1  UNL1        0.0748
     38 H           5.1968    1.3870   -0.6633 H       1  UNL1        0.0748
     39 H           6.7176   -0.0713    2.3390 H       1  UNL1        0.0621
     40 H           9.0526   -0.6842    2.5321 H       1  UNL1        0.0618
     41 H          10.4895   -0.6619    0.5364 H       1  UNL1        0.0618
     42 H           9.5494   -0.0141   -1.6632 H       1  UNL1        0.0618
     43 H           7.1266    0.6116   -1.8090 H       1  UNL1        0.0621
     44 H           3.2907    1.8015    0.2098 H       1  UNL1        0.0709
     45 H          -1.4570   -1.2116    0.9835 H       1  UNL1        0.0659
     46 H          -6.5890    2.0907   -0.1511 H       1  UNL1        0.0326
     47 H          -5.9985    1.8762   -1.8610 H       1  UNL1        0.0326
     48 H          -8.2567    0.9116   -1.5708 H       1  UNL1        0.0427
     49 H          -7.0637   -0.4181   -1.7853 H       1  UNL1        0.0427
     50 H          -8.6942   -0.6339    0.0944 H       1  UNL1        0.1223
     51 H          -6.9357   -0.5103    2.0228 H       1  UNL1        0.0488
     52 H          -6.9949   -1.8565    0.8577 H       1  UNL1        0.0488
@<TRIPOS>BOND
     1     1     2    1
     2     2     3   ar
     3     3     4   ar
     4     4     5   ar
     5     5     6   ar
     6     6     7   ar
     7     7     8   ar
     8     8     9    1
     9     9    10   ar
    10    10    11   ar
    11    11    12   ar
    12    12    13    1
    13    13    14    1
    14    14    15    1
    15    15    16   ar
    16    16    17   ar
    17    17    18   ar
    18    18    19   ar
    19    19    20   ar
    20    12    21   ar
    21    21    22   ar
    22    22    23    2
    23     8    24   ar
    24    24    25   ar
    25     4    26    1
    26    26    27    1
    27    27    28    1
    28    28    29    1
    29    25     2   ar
    30    29     3    1
    31    25     5   ar
    32    22     9   ar
    33    20    15   ar
    34     1    30    1
    35     1    31    1
    36     1    32    1
    37     6    33    1
    38     7    34    1
    39    10    35    1
    40    11    36    1
    41    14    37    1
    42    14    38    1
    43    16    39    1
    44    17    40    1
    45    18    41    1
    46    19    42    1
    47    20    43    1
    48    21    44    1
    49    24    45    1
    50    26    46    1
    51    26    47    1
    52    27    48    1
    53    27    49    1
    54    28    50    1
    55    29    51    1
    56    29    52    1
