
     RDKit          3D

 41 43  0  0  0  0  0  0  0  0999 V2000
    4.3971    2.1575   -0.5360 C   0  0  0  0  0  0  0  0  0  0  0  0
    5.1223    0.9321   -0.1879 C   0  0  0  0  0  0  0  0  0  0  0  0
    6.4414    0.7726   -0.5596 C   0  0  0  0  0  0  0  0  0  0  0  0
    7.1725   -0.3506   -0.2630 C   0  0  0  0  0  0  0  0  0  0  0  0
    6.5736   -1.3706    0.4365 C   0  0  0  0  0  0  0  0  0  0  0  0
    5.2479   -1.2259    0.8175 C   0  0  0  0  0  0  0  0  0  0  0  0
    4.5244   -0.0936    0.5139 C   0  0  0  0  0  0  0  0  0  0  0  0
    3.1215   -0.0005    0.9454 C   0  0  0  0  0  0  0  0  0  0  0  0
    2.2553   -0.2342   -0.2170 N   0  0  0  0  0  0  0  0  0  0  0  0
    0.8457   -0.1954   -0.0680 C   0  0  0  0  0  0  0  0  0  0  0  0
    0.4022    0.0446    1.0878 O   0  0  0  0  0  0  0  0  0  0  0  0
   -0.0301   -0.4124   -1.1482 O   0  0  0  0  0  0  0  0  0  0  0  0
   -1.3884   -0.3387   -0.8313 C   0  0  0  0  0  0  0  0  0  0  0  0
   -2.0479    0.8652   -0.9238 C   0  0  0  0  0  0  0  0  0  0  0  0
   -3.3868    0.9440   -0.6124 C   0  0  0  0  0  0  0  0  0  0  0  0
   -4.0791   -0.1767   -0.2063 C   0  0  0  0  0  0  0  0  0  0  0  0
   -5.4931   -0.1022    0.1261 C   0  0  0  0  0  0  0  0  0  0  0  0
   -6.2245   -1.0539    0.5046 N   0  0  0  0  0  0  0  0  0  0  0  0
   -7.5750   -0.8531    0.7960 C   0  0  0  0  0  0  0  0  0  0  0  0
   -8.1269    0.3775    0.1056 C   0  0  0  0  0  0  0  0  0  0  0  0
   -6.5514    1.3416    0.0752 S   0  0  0  0  0  0  0  0  0  0  0  0
   -3.4056   -1.3731   -0.1188 C   0  0  0  0  0  0  0  0  0  0  0  0
   -2.0681   -1.4595   -0.4282 C   0  0  0  0  0  0  0  0  0  0  0  0
    4.0197    2.1288   -1.5996 H   0  0  0  0  0  0  0  0  0  0  0  0
    3.6048    2.4365    0.1698 H   0  0  0  0  0  0  0  0  0  0  0  0
    5.1360    2.9984   -0.5201 H   0  0  0  0  0  0  0  0  0  0  0  0
    6.9002    1.5998   -1.1173 H   0  0  0  0  0  0  0  0  0  0  0  0
    8.2025   -0.4584   -0.5613 H   0  0  0  0  0  0  0  0  0  0  0  0
    7.1649   -2.2461    0.6607 H   0  0  0  0  0  0  0  0  0  0  0  0
    4.8122   -2.0511    1.3666 H   0  0  0  0  0  0  0  0  0  0  0  0
    2.9506   -0.7564    1.7367 H   0  0  0  0  0  0  0  0  0  0  0  0
    2.8732    0.9778    1.4055 H   0  0  0  0  0  0  0  0  0  0  0  0
    2.6618   -0.4302   -1.1605 H   0  0  0  0  0  0  0  0  0  0  0  0
   -1.5102    1.7594   -1.2452 H   0  0  0  0  0  0  0  0  0  0  0  0
   -3.8944    1.8711   -0.6843 H   0  0  0  0  0  0  0  0  0  0  0  0
   -8.2099   -1.7499    0.5731 H   0  0  0  0  0  0  0  0  0  0  0  0
   -7.6694   -0.6519    1.8903 H   0  0  0  0  0  0  0  0  0  0  0  0
   -8.4193    0.1907   -0.9275 H   0  0  0  0  0  0  0  0  0  0  0  0
   -8.8814    0.9102    0.7169 H   0  0  0  0  0  0  0  0  0  0  0  0
   -3.9011   -2.2945    0.1974 H   0  0  0  0  0  0  0  0  0  0  0  0
   -1.5674   -2.4289   -0.3464 H   0  0  0  0  0  0  0  0  0  0  0  0
  1  2  1  0
  2  3  2  0
  3  4  1  0
  4  5  2  0
  5  6  1  0
  6  7  2  0
  7  8  1  0
  8  9  1  0
  9 10  1  0
 10 11  2  0
 10 12  1  0
 12 13  1  0
 13 14  2  0
 14 15  1  0
 15 16  2  0
 16 17  1  0
 17 18  2  0
 18 19  1  0
 19 20  1  0
 20 21  1  0
 16 22  1  0
 22 23  2  0
  7  2  1  0
 23 13  1  0
 21 17  1  0
  1 24  1  0
  1 25  1  0
  1 26  1  0
  3 27  1  0
  4 28  1  0
  5 29  1  0
  6 30  1  0
  8 31  1  0
  8 32  1  0
  9 33  1  0
 14 34  1  0
 15 35  1  0
 19 36  1  0
 19 37  1  0
 20 38  1  0
 20 39  1  0
 22 40  1  0
 23 41  1  0
M  END
$$$$
