@<TRIPOS>MOLECULE
*****
 41 43 0 0 0
SMALL
GASTEIGER

@<TRIPOS>ATOM
      1 C           4.3971    2.1575   -0.5360 C.3     1  UNL1       -0.0394
      2 C           5.1223    0.9321   -0.1879 C.ar    1  UNL1       -0.0458
      3 C           6.4414    0.7726   -0.5596 C.ar    1  UNL1       -0.0585
      4 C           7.1725   -0.3506   -0.2630 C.ar    1  UNL1       -0.0615
      5 C           6.5736   -1.3706    0.4365 C.ar    1  UNL1       -0.0614
      6 C           5.2479   -1.2259    0.8175 C.ar    1  UNL1       -0.0568
      7 C           4.5244   -0.0936    0.5139 C.ar    1  UNL1       -0.0273
      8 C           3.1215   -0.0005    0.9454 C.3     1  UNL1        0.0402
      9 N           2.2553   -0.2342   -0.2170 N.am    1  UNL1       -0.2767
     10 C           0.8457   -0.1954   -0.0680 C.2     1  UNL1        0.4059
     11 O           0.4022    0.0446    1.0878 O.2     1  UNL1       -0.2260
     12 O          -0.0301   -0.4124   -1.1482 O.3     1  UNL1       -0.4115
     13 C          -1.3884   -0.3387   -0.8313 C.ar    1  UNL1        0.1333
     14 C          -2.0479    0.8652   -0.9238 C.ar    1  UNL1       -0.0185
     15 C          -3.3868    0.9440   -0.6124 C.ar    1  UNL1       -0.0486
     16 C          -4.0791   -0.1767   -0.2063 C.ar    1  UNL1        0.0066
     17 C          -5.4931   -0.1022    0.1261 C.2     1  UNL1        0.0987
     18 N          -6.2245   -1.0539    0.5046 N.2     1  UNL1       -0.2757
     19 C          -7.5750   -0.8531    0.7960 C.3     1  UNL1        0.0503
     20 C          -8.1269    0.3775    0.1056 C.3     1  UNL1        0.0193
     21 S          -6.5514    1.3416    0.0752 S.3     1  UNL1       -0.1039
     22 C          -3.4056   -1.3731   -0.1188 C.ar    1  UNL1       -0.0486
     23 C          -2.0681   -1.4595   -0.4282 C.ar    1  UNL1       -0.0185
     24 H           4.0197    2.1288   -1.5996 H       1  UNL1        0.0278
     25 H           3.6048    2.4365    0.1698 H       1  UNL1        0.0278
     26 H           5.1360    2.9984   -0.5201 H       1  UNL1        0.0278
     27 H           6.9002    1.5998   -1.1173 H       1  UNL1        0.0620
     28 H           8.2025   -0.4584   -0.5613 H       1  UNL1        0.0618
     29 H           7.1649   -2.2461    0.6607 H       1  UNL1        0.0618
     30 H           4.8122   -2.0511    1.3666 H       1  UNL1        0.0621
     31 H           2.9506   -0.7564    1.7367 H       1  UNL1        0.0513
     32 H           2.8732    0.9778    1.4055 H       1  UNL1        0.0513
     33 H           2.6618   -0.4302   -1.1605 H       1  UNL1        0.1523
     34 H          -1.5102    1.7594   -1.2452 H       1  UNL1        0.0654
     35 H          -3.8944    1.8711   -0.6843 H       1  UNL1        0.0625
     36 H          -8.2099   -1.7499    0.5731 H       1  UNL1        0.0517
     37 H          -7.6694   -0.6519    1.8903 H       1  UNL1        0.0517
     38 H          -8.4193    0.1907   -0.9275 H       1  UNL1        0.0398
     39 H          -8.8814    0.9102    0.7169 H       1  UNL1        0.0398
     40 H          -3.9011   -2.2945    0.1974 H       1  UNL1        0.0625
     41 H          -1.5674   -2.4289   -0.3464 H       1  UNL1        0.0654
@<TRIPOS>BOND
     1     1     2    1
     2     2     3   ar
     3     3     4   ar
     4     4     5   ar
     5     5     6   ar
     6     6     7   ar
     7     7     8    1
     8     8     9    1
     9     9    10   am
    10    10    11    2
    11    10    12    1
    12    12    13    1
    13    13    14   ar
    14    14    15   ar
    15    15    16   ar
    16    16    17    1
    17    17    18    2
    18    18    19    1
    19    19    20    1
    20    20    21    1
    21    16    22   ar
    22    22    23   ar
    23     7     2   ar
    24    23    13   ar
    25    21    17    1
    26     1    24    1
    27     1    25    1
    28     1    26    1
    29     3    27    1
    30     4    28    1
    31     5    29    1
    32     6    30    1
    33     8    31    1
    34     8    32    1
    35     9    33    1
    36    14    34    1
    37    15    35    1
    38    19    36    1
    39    19    37    1
    40    20    38    1
    41    20    39    1
    42    22    40    1
    43    23    41    1
