
     RDKit          3D

 32 32  0  0  0  0  0  0  0  0999 V2000
   -1.6738   -2.9959   -0.7123 C   0  0  0  0  0  0  0  0  0  0  0  0
   -2.4485   -1.8958   -0.3625 O   0  0  0  0  0  0  0  0  0  0  0  0
   -1.9881   -0.6174   -0.0695 C   0  0  0  0  0  0  0  0  0  0  0  0
   -2.9127    0.3544    0.2595 C   0  0  0  0  0  0  0  0  0  0  0  0
   -2.4531    1.6220    0.5499 C   0  0  0  0  0  0  0  0  0  0  0  0
   -3.3538    2.6294    0.8863 O   0  0  0  0  0  0  0  0  0  0  0  0
   -4.7264    2.2541    0.9036 C   0  0  0  0  0  0  0  0  0  0  0  0
   -1.1166    1.8487    0.4971 C   0  0  0  0  0  0  0  0  0  0  0  0
   -0.1386    0.9130    0.1727 C   0  0  0  0  0  0  0  0  0  0  0  0
    1.2252    1.3056    0.1765 N   0  0  0  0  0  0  0  0  0  0  0  0
    2.2666    0.5046   -0.3500 C   0  0  0  0  0  0  0  0  0  0  0  0
    2.1058   -0.0755   -1.4779 N   0  0  0  0  0  0  0  0  0  0  0  0
    3.4961    0.3596    0.3783 N   0  0  0  0  0  0  0  0  0  0  0  0
    4.4017   -0.7112    0.0921 C   0  0  0  0  0  0  0  0  0  0  0  0
    5.2648   -1.1920    1.1421 N   0  0  0  0  0  0  0  0  0  0  0  0
    4.3495   -1.1575   -1.1366 N   0  0  0  0  0  0  0  0  0  0  0  0
   -0.6377   -0.3354   -0.1089 C   0  0  0  0  0  0  0  0  0  0  0  0
   -1.4543   -3.0354   -1.8137 H   0  0  0  0  0  0  0  0  0  0  0  0
   -2.2671   -3.9004   -0.4071 H   0  0  0  0  0  0  0  0  0  0  0  0
   -0.7296   -2.9820   -0.1327 H   0  0  0  0  0  0  0  0  0  0  0  0
   -3.9638    0.1089    0.2834 H   0  0  0  0  0  0  0  0  0  0  0  0
   -4.9879    1.8958   -0.1320 H   0  0  0  0  0  0  0  0  0  0  0  0
   -4.8928    1.3885    1.5896 H   0  0  0  0  0  0  0  0  0  0  0  0
   -5.3265    3.1346    1.1935 H   0  0  0  0  0  0  0  0  0  0  0  0
   -0.7914    2.8676    0.7342 H   0  0  0  0  0  0  0  0  0  0  0  0
    1.4948    2.2418    0.6026 H   0  0  0  0  0  0  0  0  0  0  0  0
    1.2459    0.0086   -2.0371 H   0  0  0  0  0  0  0  0  0  0  0  0
    3.7189    1.0635    1.1305 H   0  0  0  0  0  0  0  0  0  0  0  0
    5.3603   -2.1278    1.6378 H   0  0  0  0  0  0  0  0  0  0  0  0
    5.9041   -0.4192    1.4344 H   0  0  0  0  0  0  0  0  0  0  0  0
    4.9673   -1.9410   -1.4617 H   0  0  0  0  0  0  0  0  0  0  0  0
    0.0618   -1.1143   -0.3589 H   0  0  0  0  0  0  0  0  0  0  0  0
  1  2  1  0
  2  3  1  0
  3  4  2  0
  4  5  1  0
  5  6  1  0
  6  7  1  0
  5  8  2  0
  8  9  1  0
  9 10  1  0
 10 11  1  0
 11 12  2  3
 11 13  1  0
 13 14  1  0
 14 15  1  0
 14 16  2  3
  9 17  2  0
 17  3  1  0
  1 18  1  0
  1 19  1  0
  1 20  1  0
  4 21  1  0
  7 22  1  0
  7 23  1  0
  7 24  1  0
  8 25  1  0
 10 26  1  0
 12 27  1  0
 13 28  1  0
 15 29  1  0
 15 30  1  0
 16 31  1  0
 17 32  1  0
M  END
$$$$
