@<TRIPOS>MOLECULE
*****
 32 32 0 0 0
SMALL
GASTEIGER

@<TRIPOS>ATOM
      1 C          -1.6738   -2.9959   -0.7123 C.3     1  UNL1        0.0788
      2 O          -2.4485   -1.8958   -0.3625 O.3     1  UNL1       -0.4949
      3 C          -1.9881   -0.6174   -0.0695 C.ar    1  UNL1        0.1268
      4 C          -2.9127    0.3544    0.2595 C.ar    1  UNL1        0.0220
      5 C          -2.4531    1.6220    0.5499 C.ar    1  UNL1        0.1268
      6 O          -3.3538    2.6294    0.8863 O.3     1  UNL1       -0.4949
      7 C          -4.7264    2.2541    0.9036 C.3     1  UNL1        0.0788
      8 C          -1.1166    1.8487    0.4971 C.ar    1  UNL1        0.0188
      9 C          -0.1386    0.9130    0.1727 C.ar    1  UNL1        0.1069
     10 N           1.2252    1.3056    0.1765 N.pl3   1  UNL1       -0.2430
     11 C           2.2666    0.5046   -0.3500 C.cat   1  UNL1        0.3926
     12 N           2.1058   -0.0755   -1.4779 N.pl3   1  UNL1       -0.1289
     13 N           3.4961    0.3596    0.3783 N.pl3   1  UNL1       -0.1859
     14 C           4.4017   -0.7112    0.0921 C.cat   1  UNL1        0.3855
     15 N           5.2648   -1.1920    1.1421 N.pl3   1  UNL1       -0.2888
     16 N           4.3495   -1.1575   -1.1366 N.pl3   1  UNL1       -0.1293
     17 C          -0.6377   -0.3354   -0.1089 C.ar    1  UNL1        0.0188
     18 H          -1.4543   -3.0354   -1.8137 H       1  UNL1        0.0660
     19 H          -2.2671   -3.9004   -0.4071 H       1  UNL1        0.0660
     20 H          -0.7296   -2.9820   -0.1327 H       1  UNL1        0.0660
     21 H          -3.9638    0.1089    0.2834 H       1  UNL1        0.0691
     22 H          -4.9879    1.8958   -0.1320 H       1  UNL1        0.0660
     23 H          -4.8928    1.3885    1.5896 H       1  UNL1        0.0660
     24 H          -5.3265    3.1346    1.1935 H       1  UNL1        0.0660
     25 H          -0.7914    2.8676    0.7342 H       1  UNL1        0.0689
     26 H           1.4948    2.2418    0.6026 H       1  UNL1        0.2648
     27 H           1.2459    0.0086   -2.0371 H       1  UNL1        0.3062
     28 H           3.7189    1.0635    1.1305 H       1  UNL1        0.2707
     29 H           5.3603   -2.1278    1.6378 H       1  UNL1        0.2547
     30 H           5.9041   -0.4192    1.4344 H       1  UNL1        0.2547
     31 H           4.9673   -1.9410   -1.4617 H       1  UNL1        0.3062
     32 H           0.0618   -1.1143   -0.3589 H       1  UNL1        0.0689
@<TRIPOS>BOND
     1     1     2    1
     2     2     3    1
     3     3     4   ar
     4     4     5   ar
     5     5     6    1
     6     6     7    1
     7     5     8   ar
     8     8     9   ar
     9     9    10    1
    10    10    11    1
    11    11    12    2
    12    11    13    1
    13    13    14    1
    14    14    15    1
    15    14    16    2
    16     9    17   ar
    17    17     3   ar
    18     1    18    1
    19     1    19    1
    20     1    20    1
    21     4    21    1
    22     7    22    1
    23     7    23    1
    24     7    24    1
    25     8    25    1
    26    10    26    1
    27    12    27    1
    28    13    28    1
    29    15    29    1
    30    15    30    1
    31    16    31    1
    32    17    32    1
