@<TRIPOS>MOLECULE
*****
 60 63 0 0 0
SMALL
GASTEIGER

@<TRIPOS>ATOM
      1 C          -5.7514   -0.7024    3.4144 C.3     1  UNL1       -0.0397
      2 C          -5.2535   -0.6974    1.9911 C.ar    1  UNL1       -0.0498
      3 C          -5.7758    0.1727    1.0610 C.ar    1  UNL1       -0.0540
      4 C          -5.3731    0.1994   -0.2423 C.ar    1  UNL1       -0.0236
      5 C          -5.9573    1.1785   -1.1801 C.3     1  UNL1       -0.0378
      6 C          -4.3737   -0.6862   -0.7145 C.ar    1  UNL1        0.1110
      7 S          -4.0057   -0.5826   -2.4086 S.O2    1  UNL1        0.0592
      8 O          -5.2444   -0.1838   -3.1998 O.2     1  UNL1       -0.1530
      9 O          -3.7860   -2.0309   -2.8746 O.2     1  UNL1       -0.1530
     10 N          -2.7122    0.3701   -2.8706 N.3     1  UNL1       -0.1857
     11 C          -1.4051    0.0874   -2.5232 C.3     1  UNL1        0.0414
     12 C          -0.4866    0.1186   -3.7339 C.3     1  UNL1       -0.0466
     13 C          -0.7605    0.8687   -1.3741 C.3     1  UNL1        0.0259
     14 N           0.6006    0.3468   -1.2854 N.pl3   1  UNL1       -0.3418
     15 C           1.5471    0.7543   -0.3095 C.ar    1  UNL1        0.0380
     16 C           1.2230    1.6626    0.6538 C.ar    1  UNL1       -0.0401
     17 C           2.1373    2.0715    1.6322 C.ar    1  UNL1       -0.0580
     18 C           3.4258    1.5340    1.6239 C.ar    1  UNL1       -0.0355
     19 C           3.7788    0.6112    0.6562 C.ar    1  UNL1        0.0764
     20 C           2.8235    0.2562   -0.2746 C.ar    1  UNL1        0.0410
     21 C           3.4362   -0.6696   -1.1060 C.ar    1  UNL1        0.0593
     22 N           4.6874   -0.8154   -0.6497 N.ar    1  UNL1       -0.1736
     23 N           4.9270   -0.0559    0.4147 N.ar    1  UNL1       -0.2320
     24 C           6.1647    0.0043    1.1185 C.ar    1  UNL1        0.0662
     25 C           6.5000   -0.9605    2.0650 C.ar    1  UNL1       -0.0335
     26 C           7.7148   -0.9042    2.7316 C.ar    1  UNL1       -0.0244
     27 C           8.6367    0.0895    2.4927 C.ar    1  UNL1        0.1235
     28 F           9.8416    0.1698    3.1316 F       1  UNL1       -0.2055
     29 C           8.3056    1.0539    1.5469 C.ar    1  UNL1       -0.0244
     30 C           7.0972    0.9903    0.8958 C.ar    1  UNL1       -0.0335
     31 C          -3.8498   -1.5449    0.1920 C.ar    1  UNL1       -0.0236
     32 C          -2.7704   -2.4840   -0.1784 C.3     1  UNL1       -0.0378
     33 C          -4.2860   -1.5538    1.5420 C.ar    1  UNL1       -0.0540
     34 H          -6.3504    0.2136    3.5843 H       1  UNL1        0.0278
     35 H          -4.8775   -0.6855    4.1020 H       1  UNL1        0.0278
     36 H          -6.3447   -1.6279    3.5702 H       1  UNL1        0.0278
     37 H          -6.5606    0.8769    1.3945 H       1  UNL1        0.0623
     38 H          -5.1158    1.6924   -1.6758 H       1  UNL1        0.0278
     39 H          -6.7334    0.7673   -1.8281 H       1  UNL1        0.0278
     40 H          -6.4630    1.9918   -0.5567 H       1  UNL1        0.0278
     41 H          -2.9253    1.3390   -3.1913 H       1  UNL1        0.1484
     42 H          -1.3686   -0.9672   -2.1181 H       1  UNL1        0.0490
     43 H           0.0923   -0.8174   -3.8126 H       1  UNL1        0.0246
     44 H           0.1477    1.0391   -3.7573 H       1  UNL1        0.0246
     45 H          -1.1147    0.1765   -4.6761 H       1  UNL1        0.0246
     46 H          -1.2774    0.6310   -0.4274 H       1  UNL1        0.0477
     47 H          -0.7388    1.9385   -1.5847 H       1  UNL1        0.0477
     48 H           0.9022   -0.3714   -1.9897 H       1  UNL1        0.1461
     49 H           0.2408    2.1208    0.7235 H       1  UNL1        0.0636
     50 H           1.8801    2.7833    2.3951 H       1  UNL1        0.0619
     51 H           4.1663    1.8347    2.3683 H       1  UNL1        0.0639
     52 H           2.9505   -1.1486   -1.9443 H       1  UNL1        0.0855
     53 H           5.8208   -1.7519    2.2836 H       1  UNL1        0.0640
     54 H           7.9886   -1.6532    3.4794 H       1  UNL1        0.0647
     55 H           9.0309    1.8344    1.3523 H       1  UNL1        0.0647
     56 H           6.8571    1.7524    0.1729 H       1  UNL1        0.0640
     57 H          -2.9873   -3.1221   -1.0477 H       1  UNL1        0.0278
     58 H          -1.7572   -2.0188   -0.1619 H       1  UNL1        0.0278
     59 H          -2.7004   -3.2278    0.6934 H       1  UNL1        0.0278
     60 H          -3.8179   -2.2677    2.2274 H       1  UNL1        0.0623
@<TRIPOS>BOND
     1     1     2    1
     2     2     3   ar
     3     3     4   ar
     4     4     5    1
     5     4     6   ar
     6     6     7    1
     7     7     8    2
     8     7     9    2
     9     7    10    1
    10    10    11    1
    11    11    12    1
    12    11    13    1
    13    13    14    1
    14    14    15    1
    15    15    16   ar
    16    16    17   ar
    17    17    18   ar
    18    18    19   ar
    19    19    20   ar
    20    20    21   ar
    21    21    22   ar
    22    22    23   ar
    23    23    24    1
    24    24    25   ar
    25    25    26   ar
    26    26    27   ar
    27    27    28    1
    28    27    29   ar
    29    29    30   ar
    30     6    31   ar
    31    31    32    1
    32    31    33   ar
    33    33     2   ar
    34    20    15   ar
    35    30    24   ar
    36    23    19   ar
    37     1    34    1
    38     1    35    1
    39     1    36    1
    40     3    37    1
    41     5    38    1
    42     5    39    1
    43     5    40    1
    44    10    41    1
    45    11    42    1
    46    12    43    1
    47    12    44    1
    48    12    45    1
    49    13    46    1
    50    13    47    1
    51    14    48    1
    52    16    49    1
    53    17    50    1
    54    18    51    1
    55    21    52    1
    56    25    53    1
    57    26    54    1
    58    29    55    1
    59    30    56    1
    60    32    57    1
    61    32    58    1
    62    32    59    1
    63    33    60    1
