@<TRIPOS>MOLECULE
*****
 53 57 0 0 0
SMALL
GASTEIGER

@<TRIPOS>ATOM
      1 C           0.6581   -3.3451   -0.8780 C.3     1  UNL1        0.0790
      2 O          -0.2351   -2.2552   -0.8302 O.3     1  UNL1       -0.4914
      3 C           0.2585   -0.9825   -0.6131 C.ar    1  UNL1        0.1623
      4 C           1.6339   -0.7972   -0.4447 C.ar    1  UNL1       -0.0038
      5 C           2.1379    0.4675   -0.2276 C.ar    1  UNL1        0.0441
      6 C           3.4741    0.7532   -0.0502 C.ar    1  UNL1        0.1340
      7 N           4.4116   -0.2988   -0.0882 N.pl3   1  UNL1       -0.2966
      8 C           5.7866    0.0711    0.1063 C.ar    1  UNL1        0.0696
      9 C           6.4995   -0.4525    1.1552 C.ar    1  UNL1       -0.0366
     10 C           7.8373   -0.1039    1.3599 C.ar    1  UNL1       -0.0444
     11 C           8.4212    0.7698    0.4933 C.ar    1  UNL1        0.0391
     12 BR         10.2508    1.2433    0.7778 Br      1  UNL1       -0.0487
     13 C           7.7232    1.3142   -0.5757 C.ar    1  UNL1        0.0918
     14 CL          8.4651    2.4295   -1.6838 Cl      1  UNL1       -0.0794
     15 C           6.3875    0.9481   -0.7562 C.ar    1  UNL1        0.1637
     16 F           5.7243    1.4758   -1.7858 F       1  UNL1       -0.2020
     17 N           3.8689    2.0456    0.1591 N.ar    1  UNL1       -0.2200
     18 C           3.0114    3.0714    0.2022 C.ar    1  UNL1        0.1187
     19 N           1.7078    2.8064    0.0309 N.ar    1  UNL1       -0.2352
     20 C           1.2586    1.5505   -0.1793 C.ar    1  UNL1        0.0797
     21 C          -0.0988    1.3136   -0.3526 C.ar    1  UNL1        0.0099
     22 C          -0.6250    0.0638   -0.5701 C.ar    1  UNL1        0.1646
     23 O          -1.9453   -0.1732   -0.7394 O.3     1  UNL1       -0.4801
     24 C          -3.0284    0.6701   -0.7434 C.3     1  UNL1        0.1519
     25 C          -3.8831    0.5843   -1.9878 C.3     1  UNL1        0.0877
     26 O          -4.9661   -0.2039   -1.7151 O.3     1  UNL1       -0.3675
     27 C          -4.9142   -0.6455   -0.4216 C.3     1  UNL1        0.1166
     28 C          -6.2394   -0.4206    0.3217 C.3     1  UNL1        0.1101
     29 O          -6.1801   -1.0654    1.5354 O.3     1  UNL1       -0.3748
     30 C          -7.2021   -1.9574    1.7519 C.3     1  UNL1        0.0370
     31 C          -6.1764    1.0948    0.4833 C.3     1  UNL1        0.0770
     32 O          -4.8656    1.4482    0.6009 O.3     1  UNL1       -0.3675
     33 C          -4.0562    0.3836    0.3256 C.3     1  UNL1        0.1262
     34 H           1.1519   -3.5449    0.0993 H       1  UNL1        0.0660
     35 H           0.1465   -4.2780   -1.1923 H       1  UNL1        0.0660
     36 H           1.4819   -3.1880   -1.6073 H       1  UNL1        0.0660
     37 H           2.3053   -1.6365   -0.4833 H       1  UNL1        0.0663
     38 H           4.1609   -1.2836   -0.2436 H       1  UNL1        0.1537
     39 H           6.0222   -1.1404    1.8288 H       1  UNL1        0.0637
     40 H           8.3833   -0.5264    2.1916 H       1  UNL1        0.0630
     41 H           3.3972    4.0653    0.3717 H       1  UNL1        0.1048
     42 H          -0.7303    2.2079   -0.3027 H       1  UNL1        0.0677
     43 H          -2.6862    1.7154   -0.5732 H       1  UNL1        0.0784
     44 H          -4.2630    1.6249   -2.1792 H       1  UNL1        0.0598
     45 H          -3.3177    0.3002   -2.8807 H       1  UNL1        0.0598
     46 H          -4.5379   -1.6603   -0.2771 H       1  UNL1        0.0650
     47 H          -7.1062   -0.7170   -0.3045 H       1  UNL1        0.0646
     48 H          -7.2397   -2.7708    0.9990 H       1  UNL1        0.0524
     49 H          -7.0018   -2.4446    2.7445 H       1  UNL1        0.0524
     50 H          -8.2031   -1.4685    1.8788 H       1  UNL1        0.0524
     51 H          -6.5778    1.5097   -0.4807 H       1  UNL1        0.0587
     52 H          -6.8410    1.4502    1.2809 H       1  UNL1        0.0587
     53 H          -3.6451   -0.0179    1.2470 H       1  UNL1        0.0661
@<TRIPOS>BOND
     1     1     2    1
     2     2     3    1
     3     3     4   ar
     4     4     5   ar
     5     5     6   ar
     6     6     7    1
     7     7     8    1
     8     8     9   ar
     9     9    10   ar
    10    10    11   ar
    11    11    12    1
    12    11    13   ar
    13    13    14    1
    14    13    15   ar
    15    15    16    1
    16     6    17   ar
    17    17    18   ar
    18    18    19   ar
    19    19    20   ar
    20    20    21   ar
    21    21    22   ar
    22    22    23    1
    23    23    24    1
    24    24    25    1
    25    25    26    1
    26    26    27    1
    27    27    28    1
    28    28    29    1
    29    29    30    1
    30    28    31    1
    31    31    32    1
    32    32    33    1
    33    22     3   ar
    34    33    24    1
    35    20     5   ar
    36    33    27    1
    37    15     8   ar
    38     1    34    1
    39     1    35    1
    40     1    36    1
    41     4    37    1
    42     7    38    1
    43     9    39    1
    44    10    40    1
    45    18    41    1
    46    21    42    1
    47    24    43    1
    48    25    44    1
    49    25    45    1
    50    27    46    1
    51    28    47    1
    52    30    48    1
    53    30    49    1
    54    30    50    1
    55    31    51    1
    56    31    52    1
    57    33    53    1
