@<TRIPOS>MOLECULE
*****
 51 54 0 0 0
SMALL
GASTEIGER

@<TRIPOS>ATOM
      1 O           1.8852   -1.4548    1.7405 O.2     1  UNL1       -0.2449
      2 C           2.0526   -0.5236    0.8800 C.2     1  UNL1        0.3398
      3 O           0.9133   -0.1096    0.2281 O.3     1  UNL1       -0.4534
      4 C          -0.3457   -0.6482    0.4681 C.3     1  UNL1        0.1483
      5 C          -0.8929   -1.4528   -0.7174 C.3     1  UNL1        0.0204
      6 C          -1.9361   -2.3542   -0.1074 C.ar    1  UNL1        0.0395
      7 C          -2.0620   -3.6346   -0.5755 C.ar    1  UNL1        0.1271
      8 O          -1.2657   -4.1510   -1.5989 O.3     1  UNL1       -0.5063
      9 C          -3.0367   -4.4280    0.0180 C.ar    1  UNL1        0.0218
     10 C          -3.8341   -3.9172    1.0401 C.ar    1  UNL1        0.1238
     11 O          -4.8197   -4.7149    1.6423 O.3     1  UNL1       -0.5065
     12 C          -3.6645   -2.6193    1.4732 C.ar    1  UNL1        0.0221
     13 C          -2.6967   -1.7986    0.8990 C.ar    1  UNL1        0.1318
     14 O          -2.5258   -0.4920    1.3349 O.3     1  UNL1       -0.4800
     15 C          -1.3620    0.2845    1.0212 C.3     1  UNL1        0.1624
     16 C          -1.8211    1.3452    0.1034 C.ar    1  UNL1        0.0034
     17 C          -3.0270    2.0135    0.3502 C.ar    1  UNL1       -0.0095
     18 C          -3.5033    3.0137   -0.4684 C.ar    1  UNL1        0.1623
     19 O          -4.7063    3.6689   -0.2081 O.3     1  UNL1       -0.5032
     20 C          -2.8001    3.4070   -1.5866 C.ar    1  UNL1        0.2006
     21 O          -3.2518    4.4108   -2.4317 O.3     1  UNL1       -0.5009
     22 C          -1.6117    2.7607   -1.8448 C.ar    1  UNL1        0.1623
     23 O          -0.8871    3.1333   -2.9564 O.3     1  UNL1       -0.5032
     24 C          -1.1257    1.7424   -1.0122 C.ar    1  UNL1       -0.0095
     25 C           3.3694    0.0267    0.6414 C.ar    1  UNL1        0.0661
     26 C           4.4389   -0.4621    1.3499 C.ar    1  UNL1       -0.0023
     27 C           5.7231    0.0556    1.1357 C.ar    1  UNL1        0.1628
     28 O           6.7814   -0.4465    1.8544 O.3     1  UNL1       -0.5032
     29 C           5.9084    1.0678    0.2008 C.ar    1  UNL1        0.2006
     30 O           7.1975    1.5878   -0.0146 O.3     1  UNL1       -0.5009
     31 C           4.8210    1.5458   -0.5011 C.ar    1  UNL1        0.1628
     32 O           5.0510    2.5591   -1.4271 O.3     1  UNL1       -0.5032
     33 C           3.5418    1.0267   -0.2844 C.ar    1  UNL1       -0.0023
     34 H          -0.2073   -1.4442    1.2661 H       1  UNL1        0.0778
     35 H          -0.0465   -2.0572   -1.1083 H       1  UNL1        0.0353
     36 H          -1.3304   -0.8034   -1.4824 H       1  UNL1        0.0353
     37 H          -0.8710   -3.6044   -2.3321 H       1  UNL1        0.2921
     38 H          -3.2034   -5.4434   -0.2872 H       1  UNL1        0.0691
     39 H          -5.0153   -4.6602    2.6362 H       1  UNL1        0.2921
     40 H          -4.2643   -2.1761    2.2692 H       1  UNL1        0.0691
     41 H          -0.9851    0.6896    1.9759 H       1  UNL1        0.0822
     42 H          -3.5791    1.7006    1.2332 H       1  UNL1        0.0659
     43 H          -5.5484    3.1851   -0.4800 H       1  UNL1        0.2923
     44 H          -3.0501    5.3952   -2.2317 H       1  UNL1        0.2924
     45 H          -0.2209    3.8860   -2.9386 H       1  UNL1        0.2923
     46 H          -0.1902    1.2690   -1.2540 H       1  UNL1        0.0659
     47 H           4.3573   -1.2471    2.0887 H       1  UNL1        0.0663
     48 H           7.0209   -0.0562    2.7713 H       1  UNL1        0.2923
     49 H           7.9508    0.9006    0.0135 H       1  UNL1        0.2924
     50 H           5.9415    2.5804   -1.9211 H       1  UNL1        0.2923
     51 H           2.7335    1.4435   -0.8655 H       1  UNL1        0.0663
@<TRIPOS>BOND
     1     1     2    2
     2     2     3    1
     3     3     4    1
     4     4     5    1
     5     5     6    1
     6     6     7   ar
     7     7     8    1
     8     7     9   ar
     9     9    10   ar
    10    10    11    1
    11    10    12   ar
    12    12    13   ar
    13    13    14    1
    14    14    15    1
    15    15    16    1
    16    16    17   ar
    17    17    18   ar
    18    18    19    1
    19    18    20   ar
    20    20    21    1
    21    20    22   ar
    22    22    23    1
    23    22    24   ar
    24     2    25    1
    25    25    26   ar
    26    26    27   ar
    27    27    28    1
    28    27    29   ar
    29    29    30    1
    30    29    31   ar
    31    31    32    1
    32    31    33   ar
    33    15     4    1
    34    24    16   ar
    35    33    25   ar
    36    13     6   ar
    37     4    34    1
    38     5    35    1
    39     5    36    1
    40     8    37    1
    41     9    38    1
    42    11    39    1
    43    12    40    1
    44    15    41    1
    45    17    42    1
    46    19    43    1
    47    21    44    1
    48    23    45    1
    49    24    46    1
    50    26    47    1
    51    28    48    1
    52    30    49    1
    53    32    50    1
    54    33    51    1
