
     RDKit          3D

 51 54  0  0  0  0  0  0  0  0999 V2000
    1.8852   -1.4548    1.7405 O   0  0  0  0  0  0  0  0  0  0  0  0
    2.0526   -0.5236    0.8800 C   0  0  0  0  0  0  0  0  0  0  0  0
    0.9133   -0.1096    0.2281 O   0  0  0  0  0  0  0  0  0  0  0  0
   -0.3457   -0.6482    0.4681 C   0  0  2  0  0  0  0  0  0  0  0  0
   -0.8929   -1.4528   -0.7174 C   0  0  0  0  0  0  0  0  0  0  0  0
   -1.9361   -2.3542   -0.1074 C   0  0  0  0  0  0  0  0  0  0  0  0
   -2.0620   -3.6346   -0.5755 C   0  0  0  0  0  0  0  0  0  0  0  0
   -1.2657   -4.1510   -1.5989 O   0  0  0  0  0  0  0  0  0  0  0  0
   -3.0367   -4.4280    0.0180 C   0  0  0  0  0  0  0  0  0  0  0  0
   -3.8341   -3.9172    1.0401 C   0  0  0  0  0  0  0  0  0  0  0  0
   -4.8197   -4.7149    1.6423 O   0  0  0  0  0  0  0  0  0  0  0  0
   -3.6645   -2.6193    1.4732 C   0  0  0  0  0  0  0  0  0  0  0  0
   -2.6967   -1.7986    0.8990 C   0  0  0  0  0  0  0  0  0  0  0  0
   -2.5258   -0.4920    1.3349 O   0  0  0  0  0  0  0  0  0  0  0  0
   -1.3620    0.2845    1.0212 C   0  0  2  0  0  0  0  0  0  0  0  0
   -1.8211    1.3452    0.1034 C   0  0  0  0  0  0  0  0  0  0  0  0
   -3.0270    2.0135    0.3502 C   0  0  0  0  0  0  0  0  0  0  0  0
   -3.5033    3.0137   -0.4684 C   0  0  0  0  0  0  0  0  0  0  0  0
   -4.7063    3.6689   -0.2081 O   0  0  0  0  0  0  0  0  0  0  0  0
   -2.8001    3.4070   -1.5866 C   0  0  0  0  0  0  0  0  0  0  0  0
   -3.2518    4.4108   -2.4317 O   0  0  0  0  0  0  0  0  0  0  0  0
   -1.6117    2.7607   -1.8448 C   0  0  0  0  0  0  0  0  0  0  0  0
   -0.8871    3.1333   -2.9564 O   0  0  0  0  0  0  0  0  0  0  0  0
   -1.1257    1.7424   -1.0122 C   0  0  0  0  0  0  0  0  0  0  0  0
    3.3694    0.0267    0.6414 C   0  0  0  0  0  0  0  0  0  0  0  0
    4.4389   -0.4621    1.3499 C   0  0  0  0  0  0  0  0  0  0  0  0
    5.7231    0.0556    1.1357 C   0  0  0  0  0  0  0  0  0  0  0  0
    6.7814   -0.4465    1.8544 O   0  0  0  0  0  0  0  0  0  0  0  0
    5.9084    1.0678    0.2008 C   0  0  0  0  0  0  0  0  0  0  0  0
    7.1975    1.5878   -0.0146 O   0  0  0  0  0  0  0  0  0  0  0  0
    4.8210    1.5458   -0.5011 C   0  0  0  0  0  0  0  0  0  0  0  0
    5.0510    2.5591   -1.4271 O   0  0  0  0  0  0  0  0  0  0  0  0
    3.5418    1.0267   -0.2844 C   0  0  0  0  0  0  0  0  0  0  0  0
   -0.2073   -1.4442    1.2661 H   0  0  0  0  0  0  0  0  0  0  0  0
   -0.0465   -2.0572   -1.1083 H   0  0  0  0  0  0  0  0  0  0  0  0
   -1.3304   -0.8034   -1.4824 H   0  0  0  0  0  0  0  0  0  0  0  0
   -0.8710   -3.6044   -2.3321 H   0  0  0  0  0  0  0  0  0  0  0  0
   -3.2034   -5.4434   -0.2872 H   0  0  0  0  0  0  0  0  0  0  0  0
   -5.0153   -4.6602    2.6362 H   0  0  0  0  0  0  0  0  0  0  0  0
   -4.2643   -2.1761    2.2692 H   0  0  0  0  0  0  0  0  0  0  0  0
   -0.9851    0.6896    1.9759 H   0  0  0  0  0  0  0  0  0  0  0  0
   -3.5791    1.7006    1.2332 H   0  0  0  0  0  0  0  0  0  0  0  0
   -5.5484    3.1851   -0.4800 H   0  0  0  0  0  0  0  0  0  0  0  0
   -3.0501    5.3952   -2.2317 H   0  0  0  0  0  0  0  0  0  0  0  0
   -0.2209    3.8860   -2.9386 H   0  0  0  0  0  0  0  0  0  0  0  0
   -0.1902    1.2690   -1.2540 H   0  0  0  0  0  0  0  0  0  0  0  0
    4.3573   -1.2471    2.0887 H   0  0  0  0  0  0  0  0  0  0  0  0
    7.0209   -0.0562    2.7713 H   0  0  0  0  0  0  0  0  0  0  0  0
    7.9508    0.9006    0.0135 H   0  0  0  0  0  0  0  0  0  0  0  0
    5.9415    2.5804   -1.9211 H   0  0  0  0  0  0  0  0  0  0  0  0
    2.7335    1.4435   -0.8655 H   0  0  0  0  0  0  0  0  0  0  0  0
  1  2  2  0
  2  3  1  0
  3  4  1  0
  4  5  1  0
  5  6  1  0
  6  7  2  0
  7  8  1  0
  7  9  1  0
  9 10  2  0
 10 11  1  0
 10 12  1  0
 12 13  2  0
 13 14  1  0
 14 15  1  0
 15 16  1  0
 16 17  2  0
 17 18  1  0
 18 19  1  0
 18 20  2  0
 20 21  1  0
 20 22  1  0
 22 23  1  0
 22 24  2  0
  2 25  1  0
 25 26  2  0
 26 27  1  0
 27 28  1  0
 27 29  2  0
 29 30  1  0
 29 31  1  0
 31 32  1  0
 31 33  2  0
 15  4  1  0
 24 16  1  0
 33 25  1  0
 13  6  1  0
  4 34  1  1
  5 35  1  0
  5 36  1  0
  8 37  1  0
  9 38  1  0
 11 39  1  0
 12 40  1  0
 15 41  1  1
 17 42  1  0
 19 43  1  0
 21 44  1  0
 23 45  1  0
 24 46  1  0
 26 47  1  0
 28 48  1  0
 30 49  1  0
 32 50  1  0
 33 51  1  0
M  END
$$$$
