@<TRIPOS>MOLECULE
*****
 29 31 0 0 0
SMALL
GASTEIGER

@<TRIPOS>ATOM
      1 C          -0.9450   -0.3759    0.8335 C.3     1  UNL1        0.0370
      2 C          -0.4205   -1.7483    0.9610 C.2     1  UNL1       -0.0419
      3 C          -1.2301   -2.6238    0.3378 C.2     1  UNL1        0.1035
      4 BR         -1.2719   -4.5114    0.0433 Br      1  UNL1       -0.0290
      5 N          -2.3335   -1.8935   -0.2378 N.2     1  UNL1       -0.2394
      6 C          -2.1764   -0.6201    0.0402 C.2     1  UNL1        0.1115
      7 C          -3.1398    0.4123   -0.4068 C.2     1  UNL1        0.2589
      8 O          -4.3116    0.0181   -0.6408 O.2     1  UNL1       -0.2689
      9 N          -2.8129    1.8085   -0.5830 N.am    1  UNL1       -0.3103
     10 C          -1.4822    2.4373   -0.5301 C.3     1  UNL1        0.0126
     11 C          -0.5041    1.3278   -0.9477 C.3     1  UNL1       -0.0267
     12 C          -0.0087    0.6290    0.2776 C.3     1  UNL1        0.0371
     13 C           1.3762    0.1106    0.1300 C.2     1  UNL1        0.2034
     14 N           2.0553   -0.9686    0.3295 N.2     1  UNL1       -0.0713
     15 C           3.4187   -0.8146   -0.0347 C.2     1  UNL1        0.4098
     16 N           4.2529   -1.9758    0.1561 N.pl3   1  UNL1       -0.2485
     17 N           3.6212    0.3662   -0.4703 N.am    1  UNL1        0.0037
     18 C           2.3730    1.0592   -0.4117 C.2     1  UNL1        0.3713
     19 O           2.4058    2.2614   -0.8153 O.2     1  UNL1       -0.2454
     20 H          -1.3132   -0.1054    1.8677 H       1  UNL1        0.0416
     21 H           0.4053   -2.3002    1.3921 H       1  UNL1        0.0605
     22 H          -3.6640    2.4177   -0.7709 H       1  UNL1        0.1490
     23 H          -1.2769    2.7076    0.5300 H       1  UNL1        0.0462
     24 H          -1.4350    3.3036   -1.2122 H       1  UNL1        0.0462
     25 H          -1.0356    0.5440   -1.5565 H       1  UNL1        0.0287
     26 H           0.2478    1.7974   -1.5671 H       1  UNL1        0.0287
     27 H           0.0864    1.4552    1.0454 H       1  UNL1        0.0390
     28 H           4.9782   -1.8839    0.9146 H       1  UNL1        0.2413
     29 H           4.1407   -2.8345   -0.4155 H       1  UNL1        0.2413
@<TRIPOS>BOND
     1     1     2    1
     2     2     3    2
     3     3     4    1
     4     3     5    1
     5     5     6    2
     6     6     7    1
     7     7     8    2
     8     7     9   am
     9     9    10    1
    10    10    11    1
    11    11    12    1
    12    12    13    1
    13    13    14    2
    14    14    15    1
    15    15    16    1
    16    15    17    2
    17    17    18    1
    18    18    19    2
    19     6     1    1
    20    18    13    1
    21    12     1    1
    22     1    20    1
    23     2    21    1
    24     9    22    1
    25    10    23    1
    26    10    24    1
    27    11    25    1
    28    11    26    1
    29    12    27    1
    30    16    28    1
    31    16    29    1
