@<TRIPOS>MOLECULE
*****
 48 51 0 0 0
SMALL
GASTEIGER

@<TRIPOS>ATOM
      1 C           4.8604   -1.3643   -2.0298 C.3     1  UNL1        0.0736
      2 S           5.9241   -0.6897   -0.7899 S.O2    1  UNL1        0.0403
      3 O           6.6383    0.4899   -1.4037 O.2     1  UNL1       -0.1555
      4 O           6.9922   -1.7066   -0.4685 O.2     1  UNL1       -0.1555
      5 N           5.0452   -0.2465    0.6236 N.pl3   1  UNL1       -0.2209
      6 C           4.0329    0.7457    0.5405 C.ar    1  UNL1        0.0482
      7 C           4.1985    1.9247   -0.1333 C.ar    1  UNL1       -0.0393
      8 C           3.2362    2.9072   -0.2321 C.ar    1  UNL1       -0.0594
      9 C           2.0130    2.6768    0.4007 C.ar    1  UNL1       -0.0538
     10 C           1.7914    1.5055    1.0942 C.ar    1  UNL1       -0.0120
     11 C           0.5135    1.2720    1.7511 C.ar    1  UNL1        0.0313
     12 C           0.3339    1.6722    3.0515 C.ar    1  UNL1        0.1251
     13 O           1.3840    2.2903    3.7011 O.3     1  UNL1       -0.5061
     14 C          -0.8720    1.4750    3.7358 C.ar    1  UNL1       -0.0190
     15 C          -1.9091    0.8564    3.0713 C.ar    1  UNL1       -0.0505
     16 C          -1.7583    0.4461    1.7721 C.ar    1  UNL1       -0.0165
     17 C          -2.7880   -0.1755    1.0919 C.ar    1  UNL1       -0.0463
     18 C          -2.6260   -0.5833   -0.2121 C.ar    1  UNL1       -0.0172
     19 C          -3.7472   -1.2317   -0.8746 C.ar    1  UNL1       -0.0144
     20 C          -3.5328   -2.1896   -1.8435 C.ar    1  UNL1       -0.0538
     21 C          -4.5874   -2.8300   -2.4978 C.ar    1  UNL1       -0.0577
     22 C          -5.8750   -2.4832   -2.1537 C.ar    1  UNL1       -0.0201
     23 C          -6.1189   -1.5264   -1.1861 C.ar    1  UNL1        0.1174
     24 O          -7.4314   -1.2048   -0.8676 O.3     1  UNL1       -0.5067
     25 C          -5.0613   -0.9080   -0.5540 C.ar    1  UNL1       -0.0125
     26 C          -1.4239   -0.3686   -0.8434 C.ar    1  UNL1       -0.0534
     27 C          -0.3785    0.2454   -0.2005 C.ar    1  UNL1       -0.0528
     28 C          -0.5520    0.6500    1.1062 C.ar    1  UNL1       -0.0067
     29 C           2.7910    0.5576    1.1594 C.ar    1  UNL1       -0.0315
     30 H           4.6590   -2.4295   -1.7917 H       1  UNL1        0.0482
     31 H           3.9091   -0.8350   -2.1317 H       1  UNL1        0.0482
     32 H           5.4442   -1.3756   -2.9934 H       1  UNL1        0.0482
     33 H           5.2610   -0.7087    1.5316 H       1  UNL1        0.1733
     34 H           5.1510    2.1178   -0.6329 H       1  UNL1        0.0636
     35 H           3.4394    3.8158   -0.7832 H       1  UNL1        0.0618
     36 H           1.2698    3.4433    0.3205 H       1  UNL1        0.0624
     37 H           1.9755    1.8148    4.3663 H       1  UNL1        0.2922
     38 H          -0.9581    1.8052    4.7450 H       1  UNL1        0.0654
     39 H          -2.8328    0.7108    3.6111 H       1  UNL1        0.0625
     40 H          -3.7416   -0.3549    1.5678 H       1  UNL1        0.0630
     41 H          -2.5304   -2.4863   -2.1386 H       1  UNL1        0.0624
     42 H          -4.4142   -3.5773   -3.2537 H       1  UNL1        0.0619
     43 H          -6.7019   -2.9603   -2.6414 H       1  UNL1        0.0654
     44 H          -7.6753   -0.4278   -0.2865 H       1  UNL1        0.2921
     45 H          -5.2449   -0.1598    0.2028 H       1  UNL1        0.0660
     46 H          -1.2741   -0.6836   -1.8754 H       1  UNL1        0.0624
     47 H           0.5870    0.4269   -0.6822 H       1  UNL1        0.0624
     48 H           2.5846   -0.3427    1.7076 H       1  UNL1        0.0642
@<TRIPOS>BOND
     1     1     2    1
     2     2     3    2
     3     2     4    2
     4     2     5    1
     5     5     6    1
     6     6     7   ar
     7     7     8   ar
     8     8     9   ar
     9     9    10   ar
    10    10    11    1
    11    11    12   ar
    12    12    13    1
    13    12    14   ar
    14    14    15   ar
    15    15    16   ar
    16    16    17   ar
    17    17    18   ar
    18    18    19    1
    19    19    20   ar
    20    20    21   ar
    21    21    22   ar
    22    22    23   ar
    23    23    24    1
    24    23    25   ar
    25    18    26   ar
    26    26    27   ar
    27    27    28   ar
    28    10    29   ar
    29    29     6   ar
    30    28    11   ar
    31    28    16   ar
    32    25    19   ar
    33     1    30    1
    34     1    31    1
    35     1    32    1
    36     5    33    1
    37     7    34    1
    38     8    35    1
    39     9    36    1
    40    13    37    1
    41    14    38    1
    42    15    39    1
    43    17    40    1
    44    20    41    1
    45    21    42    1
    46    22    43    1
    47    24    44    1
    48    25    45    1
    49    26    46    1
    50    27    47    1
    51    29    48    1
