@<TRIPOS>MOLECULE
*****
 69 71 0 0 0
SMALL
GASTEIGER

@<TRIPOS>ATOM
      1 C          -5.0488    7.0646   -1.0791 C.3     1  UNL1       -0.0650
      2 C          -3.9616    6.0899   -0.7407 C.3     1  UNL1       -0.0519
      3 C          -3.4466    5.3749   -1.9794 C.3     1  UNL1       -0.0279
      4 C          -2.3804    4.4273   -1.5841 C.ar    1  UNL1       -0.0466
      5 C          -1.0482    4.7778   -1.5409 C.ar    1  UNL1       -0.0580
      6 C          -0.0829    3.8651   -1.1703 C.ar    1  UNL1       -0.0530
      7 C          -0.4089    2.5562   -0.8252 C.ar    1  UNL1       -0.0050
      8 C           0.5478    1.5515   -0.4394 C.ar    1  UNL1       -0.0032
      9 C           0.9306    1.3343    0.8629 C.ar    1  UNL1       -0.0525
     10 C           1.8591    0.3473    1.1871 C.ar    1  UNL1       -0.0490
     11 C           2.4256   -0.4464    0.2029 C.ar    1  UNL1        0.0375
     12 C           3.4160   -1.4795    0.5689 C.2     1  UNL1        0.2441
     13 O           3.7740   -1.4912    1.7700 O.2     1  UNL1       -0.2702
     14 N           3.9245   -2.3918   -0.3702 N.am    1  UNL1       -0.3111
     15 C           4.9000   -3.3986   -0.1002 C.3     1  UNL1        0.0142
     16 C           6.2697   -2.9550    0.2404 C.3     1  UNL1       -0.0311
     17 C           7.1052   -4.2518    0.4570 C.3     1  UNL1       -0.0612
     18 C           6.5079   -2.1341    1.4530 C.3     1  UNL1       -0.0612
     19 C           2.0428   -0.2288   -1.1002 C.ar    1  UNL1       -0.0351
     20 C           1.1141    0.7617   -1.4023 C.ar    1  UNL1        0.0672
     21 C           0.7342    0.9665   -2.7760 C.2     1  UNL1        0.3374
     22 O          -0.0944    1.8435   -3.1068 O.2     1  UNL1       -0.2451
     23 O           1.2919    0.1798   -3.7611 O.3     1  UNL1       -0.4771
     24 C          -1.7381    2.2072   -0.8681 C.ar    1  UNL1        0.0450
     25 C          -2.0910    0.8479   -0.5049 C.2     1  UNL1        0.2489
     26 O          -2.3695    0.0553   -1.4346 O.2     1  UNL1       -0.2698
     27 N          -2.1390    0.3659    0.8267 N.am    1  UNL1       -0.2815
     28 C          -2.4917   -0.9740    1.1111 C.ar    1  UNL1        0.0337
     29 C          -3.8096   -1.2984    1.3211 C.ar    1  UNL1       -0.0397
     30 C          -4.2098   -2.6013    1.6112 C.ar    1  UNL1       -0.0451
     31 C          -3.2696   -3.6159    1.6953 C.ar    1  UNL1        0.0648
     32 C          -3.6843   -4.9850    2.0018 C.2     1  UNL1        0.3081
     33 N          -4.7237   -5.2075    2.7268 N.2     1  UNL1       -0.0994
     34 N          -2.9839   -6.1315    1.5323 N.pl3   1  UNL1       -0.2466
     35 C          -1.9585   -3.2753    1.4826 C.ar    1  UNL1       -0.0451
     36 C          -1.5528   -1.9757    1.1925 C.ar    1  UNL1       -0.0397
     37 C          -2.7151    3.1149   -1.2386 C.ar    1  UNL1       -0.0459
     38 H          -4.7327    8.0872   -0.8374 H       1  UNL1        0.0230
     39 H          -5.9352    6.8344   -0.4358 H       1  UNL1        0.0230
     40 H          -5.3597    6.9781   -2.1463 H       1  UNL1        0.0230
     41 H          -3.1182    6.6254   -0.3035 H       1  UNL1        0.0266
     42 H          -4.3171    5.3273   -0.0056 H       1  UNL1        0.0266
     43 H          -4.2913    4.8373   -2.4373 H       1  UNL1        0.0313
     44 H          -3.0937    6.1126   -2.7331 H       1  UNL1        0.0313
     45 H          -0.7551    5.7871   -1.8024 H       1  UNL1        0.0620
     46 H           0.9668    4.1295   -1.1314 H       1  UNL1        0.0624
     47 H           0.5084    1.9347    1.6556 H       1  UNL1        0.0624
     48 H           2.1616    0.1728    2.2038 H       1  UNL1        0.0625
     49 H           3.5470   -2.3342   -1.3815 H       1  UNL1        0.1490
     50 H           4.9805   -4.1273   -0.9541 H       1  UNL1        0.0465
     51 H           4.5147   -4.0453    0.7701 H       1  UNL1        0.0465
     52 H           6.7216   -2.3967   -0.6211 H       1  UNL1        0.0311
     53 H           8.1537   -3.9826    0.2913 H       1  UNL1        0.0233
     54 H           6.9758   -4.4939    1.5295 H       1  UNL1        0.0233
     55 H           6.7297   -5.0293   -0.2146 H       1  UNL1        0.0233
     56 H           6.0877   -2.5264    2.3967 H       1  UNL1        0.0233
     57 H           6.2968   -1.0539    1.2755 H       1  UNL1        0.0233
     58 H           7.6540   -2.2174    1.6237 H       1  UNL1        0.0233
     59 H           2.4661   -0.8310   -1.9211 H       1  UNL1        0.0633
     60 H           1.2232    0.3313   -4.7376 H       1  UNL1        0.2954
     61 H          -1.9008    1.0528    1.5803 H       1  UNL1        0.1551
     62 H          -4.6054   -0.5735    1.2749 H       1  UNL1        0.0636
     63 H          -5.2592   -2.8534    1.7775 H       1  UNL1        0.0627
     64 H          -5.3303   -4.4852    3.1382 H       1  UNL1        0.3633
     65 H          -2.3426   -6.7035    2.1074 H       1  UNL1        0.2884
     66 H          -3.1235   -6.4212    0.5365 H       1  UNL1        0.2884
     67 H          -1.2050   -4.0575    1.5440 H       1  UNL1        0.0627
     68 H          -0.4932   -1.8026    1.0390 H       1  UNL1        0.0636
     69 H          -3.7600    2.8348   -1.2717 H       1  UNL1        0.0628
@<TRIPOS>BOND
     1     1     2    1
     2     2     3    1
     3     3     4    1
     4     4     5   ar
     5     5     6   ar
     6     6     7   ar
     7     7     8    1
     8     8     9   ar
     9     9    10   ar
    10    10    11   ar
    11    11    12    1
    12    12    13    2
    13    12    14   am
    14    14    15    1
    15    15    16    1
    16    16    17    1
    17    16    18    1
    18    11    19   ar
    19    19    20   ar
    20    20    21    1
    21    21    22    2
    22    21    23    1
    23     7    24   ar
    24    24    25    1
    25    25    26    2
    26    25    27   am
    27    27    28    1
    28    28    29   ar
    29    29    30   ar
    30    30    31   ar
    31    31    32    1
    32    32    33    2
    33    32    34    1
    34    31    35   ar
    35    35    36   ar
    36    24    37   ar
    37    37     4   ar
    38    20     8   ar
    39    36    28   ar
    40     1    38    1
    41     1    39    1
    42     1    40    1
    43     2    41    1
    44     2    42    1
    45     3    43    1
    46     3    44    1
    47     5    45    1
    48     6    46    1
    49     9    47    1
    50    10    48    1
    51    14    49    1
    52    15    50    1
    53    15    51    1
    54    16    52    1
    55    17    53    1
    56    17    54    1
    57    17    55    1
    58    18    56    1
    59    18    57    1
    60    18    58    1
    61    19    59    1
    62    23    60    1
    63    27    61    1
    64    29    62    1
    65    30    63    1
    66    33    64    1
    67    34    65    1
    68    34    66    1
    69    35    67    1
    70    36    68    1
    71    37    69    1
