
     RDKit          3D

 48 50  0  0  0  0  0  0  0  0999 V2000
    4.7987    3.4651   -0.6646 C   0  0  0  0  0  0  0  0  0  0  0  0
    4.3233    2.2279    0.1085 C   0  0  0  0  0  0  0  0  0  0  0  0
    4.2471    1.1709   -0.7696 O   0  0  0  0  0  0  0  0  0  0  0  0
    3.8314   -0.0268   -0.1982 C   0  0  0  0  0  0  0  0  0  0  0  0
    2.4707    0.0962    0.4009 C   0  0  0  0  0  0  0  0  0  0  0  0
    2.0019   -1.2148    1.0282 C   0  0  0  0  0  0  0  0  0  0  0  0
    0.7028   -0.9326    1.5488 O   0  0  0  0  0  0  0  0  0  0  0  0
   -0.3522   -0.5096    0.7609 C   0  0  0  0  0  0  0  0  0  0  0  0
   -0.6259    0.8228    0.5015 C   0  0  0  0  0  0  0  0  0  0  0  0
   -1.6853    1.1999   -0.2875 C   0  0  0  0  0  0  0  0  0  0  0  0
   -2.5216    0.2613   -0.8548 C   0  0  0  0  0  0  0  0  0  0  0  0
   -3.6149    0.4894   -1.6618 O   0  0  0  0  0  0  0  0  0  0  0  0
   -4.8549    0.6422   -1.0572 C   0  0  0  0  0  0  0  0  0  0  0  0
   -6.0177    0.8750   -1.7751 C   0  0  0  0  0  0  0  0  0  0  0  0
   -7.2425    1.0226   -1.1300 C   0  0  0  0  0  0  0  0  0  0  0  0
   -7.3380    0.9413    0.2520 C   0  0  0  0  0  0  0  0  0  0  0  0
   -8.5180    1.0808    0.9129 F   0  0  0  0  0  0  0  0  0  0  0  0
   -6.1988    0.7104    0.9957 C   0  0  0  0  0  0  0  0  0  0  0  0
   -5.0137    0.5710    0.3225 C   0  0  0  0  0  0  0  0  0  0  0  0
   -2.2597   -1.0866   -0.6033 C   0  0  0  0  0  0  0  0  0  0  0  0
   -1.1895   -1.4633    0.1936 C   0  0  0  0  0  0  0  0  0  0  0  0
    1.9746   -2.2892    0.0168 C   0  0  0  0  0  0  0  0  0  0  0  0
    1.3235   -2.0861   -1.0197 O   0  0  0  0  0  0  0  0  0  0  0  0
    2.6528   -3.5300    0.1764 N   0  0  0  0  0  0  0  0  0  0  0  0
    3.4192   -3.7538    1.3521 C   0  0  0  0  0  0  0  0  0  0  0  0
    3.9981   -4.8892    1.4239 O   0  0  0  0  0  0  0  0  0  0  0  0
    3.5369   -2.7783    2.3857 N   0  0  0  0  0  0  0  0  0  0  0  0
    2.8514   -1.5507    2.2020 C   0  0  0  0  0  0  0  0  0  0  0  0
    2.9232   -0.6305    3.0583 O   0  0  0  0  0  0  0  0  0  0  0  0
    4.5743    3.3122   -1.7465 H   0  0  0  0  0  0  0  0  0  0  0  0
    4.3393    4.3905   -0.2949 H   0  0  0  0  0  0  0  0  0  0  0  0
    5.8929    3.4964   -0.5505 H   0  0  0  0  0  0  0  0  0  0  0  0
    5.0009    2.0350    0.9446 H   0  0  0  0  0  0  0  0  0  0  0  0
    3.3228    2.5497    0.5183 H   0  0  0  0  0  0  0  0  0  0  0  0
    3.8707   -0.7854   -1.0141 H   0  0  0  0  0  0  0  0  0  0  0  0
    4.5889   -0.3832    0.5577 H   0  0  0  0  0  0  0  0  0  0  0  0
    1.7725    0.3504   -0.4161 H   0  0  0  0  0  0  0  0  0  0  0  0
    2.4324    0.8559    1.1815 H   0  0  0  0  0  0  0  0  0  0  0  0
    0.0189    1.5927    0.9368 H   0  0  0  0  0  0  0  0  0  0  0  0
   -1.9317    2.2381   -0.5138 H   0  0  0  0  0  0  0  0  0  0  0  0
   -5.9274    0.9361   -2.8556 H   0  0  0  0  0  0  0  0  0  0  0  0
   -8.1208    1.2016   -1.7178 H   0  0  0  0  0  0  0  0  0  0  0  0
   -6.1637    0.6294    2.0792 H   0  0  0  0  0  0  0  0  0  0  0  0
   -4.0942    0.3879    0.8763 H   0  0  0  0  0  0  0  0  0  0  0  0
   -2.8752   -1.8916   -1.0157 H   0  0  0  0  0  0  0  0  0  0  0  0
   -1.0122   -2.5189    0.3703 H   0  0  0  0  0  0  0  0  0  0  0  0
    2.5791   -4.2554   -0.5677 H   0  0  0  0  0  0  0  0  0  0  0  0
    4.1097   -2.9768    3.2381 H   0  0  0  0  0  0  0  0  0  0  0  0
  1  2  1  0
  2  3  1  0
  3  4  1  0
  4  5  1  0
  5  6  1  0
  6  7  1  0
  7  8  1  0
  8  9  2  0
  9 10  1  0
 10 11  2  0
 11 12  1  0
 12 13  1  0
 13 14  2  0
 14 15  1  0
 15 16  2  0
 16 17  1  0
 16 18  1  0
 18 19  2  0
 11 20  1  0
 20 21  2  0
  6 22  1  0
 22 23  2  0
 22 24  1  0
 24 25  1  0
 25 26  2  0
 25 27  1  0
 27 28  1  0
 28 29  2  0
 28  6  1  0
 21  8  1  0
 19 13  1  0
  1 30  1  0
  1 31  1  0
  1 32  1  0
  2 33  1  0
  2 34  1  0
  4 35  1  0
  4 36  1  0
  5 37  1  0
  5 38  1  0
  9 39  1  0
 10 40  1  0
 14 41  1  0
 15 42  1  0
 18 43  1  0
 19 44  1  0
 20 45  1  0
 21 46  1  0
 24 47  1  0
 27 48  1  0
M  END
$$$$
