@<TRIPOS>MOLECULE
*****
 48 50 0 0 0
SMALL
GASTEIGER

@<TRIPOS>ATOM
      1 C           4.7987    3.4651   -0.6646 C.3     1  UNL1       -0.0416
      2 C           4.3233    2.2279    0.1085 C.3     1  UNL1        0.0448
      3 O           4.2471    1.1709   -0.7696 O.3     1  UNL1       -0.3799
      4 C           3.8314   -0.0268   -0.1982 C.3     1  UNL1        0.0522
      5 C           2.4707    0.0962    0.4009 C.3     1  UNL1        0.0282
      6 C           2.0019   -1.2148    1.0282 C.3     1  UNL1        0.2626
      7 O           0.7028   -0.9326    1.5488 O.3     1  UNL1       -0.4670
      8 C          -0.3522   -0.5096    0.7609 C.ar    1  UNL1        0.1230
      9 C          -0.6259    0.8228    0.5015 C.ar    1  UNL1       -0.0164
     10 C          -1.6853    1.1999   -0.2875 C.ar    1  UNL1       -0.0159
     11 C          -2.5216    0.2613   -0.8548 C.ar    1  UNL1        0.1287
     12 O          -3.6149    0.4894   -1.6618 O.3     1  UNL1       -0.4560
     13 C          -4.8549    0.6422   -1.0572 C.ar    1  UNL1        0.1286
     14 C          -6.0177    0.8750   -1.7751 C.ar    1  UNL1       -0.0166
     15 C          -7.2425    1.0226   -1.1300 C.ar    1  UNL1       -0.0230
     16 C          -7.3380    0.9413    0.2520 C.ar    1  UNL1        0.1236
     17 F          -8.5180    1.0808    0.9129 F       1  UNL1       -0.2055
     18 C          -6.1988    0.7104    0.9957 C.ar    1  UNL1       -0.0230
     19 C          -5.0137    0.5710    0.3225 C.ar    1  UNL1       -0.0166
     20 C          -2.2597   -1.0866   -0.6033 C.ar    1  UNL1       -0.0159
     21 C          -1.1895   -1.4633    0.1936 C.ar    1  UNL1       -0.0164
     22 C           1.9746   -2.2892    0.0168 C.2     1  UNL1        0.2737
     23 O           1.3235   -2.0861   -1.0197 O.2     1  UNL1       -0.2704
     24 N           2.6528   -3.5300    0.1764 N.am    1  UNL1       -0.2361
     25 C           3.4192   -3.7538    1.3521 C.2     1  UNL1        0.3124
     26 O           3.9981   -4.8892    1.4239 O.2     1  UNL1       -0.2520
     27 N           3.5369   -2.7783    2.3857 N.am    1  UNL1       -0.2361
     28 C           2.8514   -1.5507    2.2020 C.2     1  UNL1        0.2737
     29 O           2.9232   -0.6305    3.0583 O.2     1  UNL1       -0.2704
     30 H           4.5743    3.3122   -1.7465 H       1  UNL1        0.0252
     31 H           4.3393    4.3905   -0.2949 H       1  UNL1        0.0252
     32 H           5.8929    3.4964   -0.5505 H       1  UNL1        0.0252
     33 H           5.0009    2.0350    0.9446 H       1  UNL1        0.0557
     34 H           3.3228    2.5497    0.5183 H       1  UNL1        0.0557
     35 H           3.8707   -0.7854   -1.0141 H       1  UNL1        0.0561
     36 H           4.5889   -0.3832    0.5577 H       1  UNL1        0.0561
     37 H           1.7725    0.3504   -0.4161 H       1  UNL1        0.0336
     38 H           2.4324    0.8559    1.1815 H       1  UNL1        0.0336
     39 H           0.0189    1.5927    0.9368 H       1  UNL1        0.0655
     40 H          -1.9317    2.2381   -0.5138 H       1  UNL1        0.0655
     41 H          -5.9274    0.9361   -2.8556 H       1  UNL1        0.0655
     42 H          -8.1208    1.2016   -1.7178 H       1  UNL1        0.0647
     43 H          -6.1637    0.6294    2.0792 H       1  UNL1        0.0647
     44 H          -4.0942    0.3879    0.8763 H       1  UNL1        0.0655
     45 H          -2.8752   -1.8916   -1.0157 H       1  UNL1        0.0655
     46 H          -1.0122   -2.5189    0.3703 H       1  UNL1        0.0655
     47 H           2.5791   -4.2554   -0.5677 H       1  UNL1        0.1592
     48 H           4.1097   -2.9768    3.2381 H       1  UNL1        0.1592
@<TRIPOS>BOND
     1     1     2    1
     2     2     3    1
     3     3     4    1
     4     4     5    1
     5     5     6    1
     6     6     7    1
     7     7     8    1
     8     8     9   ar
     9     9    10   ar
    10    10    11   ar
    11    11    12    1
    12    12    13    1
    13    13    14   ar
    14    14    15   ar
    15    15    16   ar
    16    16    17    1
    17    16    18   ar
    18    18    19   ar
    19    11    20   ar
    20    20    21   ar
    21     6    22    1
    22    22    23    2
    23    22    24   am
    24    24    25   am
    25    25    26    2
    26    25    27   am
    27    27    28   am
    28    28    29    2
    29    28     6    1
    30    21     8   ar
    31    19    13   ar
    32     1    30    1
    33     1    31    1
    34     1    32    1
    35     2    33    1
    36     2    34    1
    37     4    35    1
    38     4    36    1
    39     5    37    1
    40     5    38    1
    41     9    39    1
    42    10    40    1
    43    14    41    1
    44    15    42    1
    45    18    43    1
    46    19    44    1
    47    20    45    1
    48    21    46    1
    49    24    47    1
    50    27    48    1
