@<TRIPOS>MOLECULE
*****
 55 59 0 0 0
SMALL
GASTEIGER

@<TRIPOS>ATOM
      1 N          -3.7687   -3.1050   -1.0432 N.pl3   1  UNL1       -0.3134
      2 C          -4.3257   -2.2565   -0.0616 C.2     1  UNL1        0.2764
      3 N          -4.6669   -1.0719   -0.4127 N.2     1  UNL1       -0.2194
      4 C          -5.2494   -0.0653    0.4433 C.3     1  UNL1        0.1603
      5 C          -4.2203    0.9038    0.8779 C.ar    1  UNL1        0.0228
      6 C          -2.9011    0.7064    0.4528 C.ar    1  UNL1       -0.0321
      7 C          -1.8884    1.5355    0.8109 C.ar    1  UNL1        0.0342
      8 N          -0.5716    1.2920    0.3569 N.am    1  UNL1       -0.2802
      9 C          -0.0849    1.8538   -0.8777 C.2     1  UNL1        0.2666
     10 O          -0.8696    2.5553   -1.5207 O.2     1  UNL1       -0.2682
     11 C           1.2805    1.5426   -1.2479 C.ar    1  UNL1        0.1259
     12 C           1.8670    2.0072   -2.4053 C.ar    1  UNL1       -0.0277
     13 C           3.1466    1.7214   -2.7646 C.ar    1  UNL1       -0.0162
     14 C           3.9614    0.9084   -1.9420 C.ar    1  UNL1        0.1399
     15 O           5.1615    0.6162   -2.2398 O.3     1  UNL1       -0.4780
     16 C           6.3658    0.3256   -2.5432 C.3     1  UNL1        0.1500
     17 C           7.0098   -0.5543   -1.4985 C.1     1  UNL1       -0.0612
     18 C           7.5413   -1.2473   -0.6719 C.1     1  UNL1       -0.0955
     19 C           8.1713   -2.0986    0.3365 C.3     1  UNL1        0.0208
     20 C           9.4968   -1.7031    0.8734 C.3     1  UNL1       -0.0382
     21 C           8.3016   -1.5430    1.7509 C.3     1  UNL1       -0.0382
     22 C           3.3071    0.4582   -0.7643 C.ar    1  UNL1        0.0701
     23 N           2.0599    0.7719   -0.4726 N.ar    1  UNL1       -0.2467
     24 C          -2.1769    2.6085    1.6225 C.ar    1  UNL1       -0.0377
     25 C          -3.4639    2.8603    2.0780 C.ar    1  UNL1       -0.0243
     26 C          -4.4725    1.9724    1.6779 C.ar    1  UNL1        0.1292
     27 F          -5.7154    2.2257    2.1097 F       1  UNL1       -0.2051
     28 C          -6.3387    0.6391   -0.3761 C.3     1  UNL1        0.2686
     29 F          -7.2910   -0.2671   -0.7705 F       1  UNL1       -0.2062
     30 F          -5.8150    1.2555   -1.4882 F       1  UNL1       -0.2062
     31 C          -5.8885   -0.6669    1.6667 C.3     1  UNL1        0.0344
     32 C          -6.8647   -1.7777    1.5437 C.3     1  UNL1       -0.0064
     33 C          -5.4329   -1.9992    2.0604 C.3     1  UNL1        0.1091
     34 O          -4.5146   -2.6454    1.2419 O.2     1  UNL1       -0.4622
     35 H          -4.3223   -3.3976   -1.8766 H       1  UNL1        0.1466
     36 H          -2.7904   -3.4228   -0.9019 H       1  UNL1        0.1466
     37 H          -2.6702   -0.1354   -0.1851 H       1  UNL1        0.0640
     38 H           0.0752    0.6803    0.9382 H       1  UNL1        0.1552
     39 H           1.2395    2.6319   -3.0361 H       1  UNL1        0.0641
     40 H           3.6092    2.0766   -3.6597 H       1  UNL1        0.0655
     41 H           6.4665   -0.3318   -3.4834 H       1  UNL1        0.0837
     42 H           7.1053    1.1665   -2.7475 H       1  UNL1        0.0837
     43 H           7.9721   -3.1764    0.2196 H       1  UNL1        0.0433
     44 H           9.9506   -0.7721    0.4303 H       1  UNL1        0.0277
     45 H          10.2374   -2.4608    1.1748 H       1  UNL1        0.0277
     46 H           7.9033   -0.4933    1.8666 H       1  UNL1        0.0277
     47 H           8.1366   -2.2383    2.6023 H       1  UNL1        0.0277
     48 H           3.9283   -0.1729   -0.1182 H       1  UNL1        0.0867
     49 H          -1.3590    3.2643    1.9032 H       1  UNL1        0.0637
     50 H          -3.6654    3.7027    2.7085 H       1  UNL1        0.0647
     51 H          -6.7979    1.4508    0.2437 H       1  UNL1        0.1047
     52 H          -6.0268    0.0511    2.5061 H       1  UNL1        0.0366
     53 H          -7.6684   -1.7964    2.3108 H       1  UNL1        0.0306
     54 H          -7.0971   -2.1331    0.5395 H       1  UNL1        0.0306
     55 H          -5.3762   -2.2518    3.1603 H       1  UNL1        0.0737
@<TRIPOS>BOND
     1     1     2    1
     2     2     3    2
     3     3     4    1
     4     4     5    1
     5     5     6   ar
     6     6     7   ar
     7     7     8    1
     8     8     9   am
     9     9    10    2
    10     9    11    1
    11    11    12   ar
    12    12    13   ar
    13    13    14   ar
    14    14    15    1
    15    15    16    1
    16    16    17    1
    17    17    18    3
    18    18    19    1
    19    19    20    1
    20    20    21    1
    21    14    22   ar
    22    22    23   ar
    23     7    24   ar
    24    24    25   ar
    25    25    26   ar
    26    26    27    1
    27     4    28    1
    28    28    29    1
    29    28    30    1
    30     4    31    1
    31    31    32    1
    32    32    33    1
    33    33    34    1
    34    34     2    1
    35    26     5   ar
    36    33    31    1
    37    23    11   ar
    38    21    19    1
    39     1    35    1
    40     1    36    1
    41     6    37    1
    42     8    38    1
    43    12    39    1
    44    13    40    1
    45    16    41    1
    46    16    42    1
    47    19    43    1
    48    20    44    1
    49    20    45    1
    50    21    46    1
    51    21    47    1
    52    22    48    1
    53    24    49    1
    54    25    50    1
    55    28    51    1
    56    31    52    1
    57    32    53    1
    58    32    54    1
    59    33    55    1
