
     RDKit          3D

 55 59  0  0  0  0  0  0  0  0999 V2000
   -3.7687   -3.1050   -1.0432 N   0  0  0  0  0  0  0  0  0  0  0  0
   -4.3257   -2.2565   -0.0616 C   0  0  0  0  0  0  0  0  0  0  0  0
   -4.6669   -1.0719   -0.4127 N   0  0  0  0  0  0  0  0  0  0  0  0
   -5.2494   -0.0653    0.4433 C   0  0  1  0  0  0  0  0  0  0  0  0
   -4.2203    0.9038    0.8779 C   0  0  0  0  0  0  0  0  0  0  0  0
   -2.9011    0.7064    0.4528 C   0  0  0  0  0  0  0  0  0  0  0  0
   -1.8884    1.5355    0.8109 C   0  0  0  0  0  0  0  0  0  0  0  0
   -0.5716    1.2920    0.3569 N   0  0  0  0  0  0  0  0  0  0  0  0
   -0.0849    1.8538   -0.8777 C   0  0  0  0  0  0  0  0  0  0  0  0
   -0.8696    2.5553   -1.5207 O   0  0  0  0  0  0  0  0  0  0  0  0
    1.2805    1.5426   -1.2479 C   0  0  0  0  0  0  0  0  0  0  0  0
    1.8670    2.0072   -2.4053 C   0  0  0  0  0  0  0  0  0  0  0  0
    3.1466    1.7214   -2.7646 C   0  0  0  0  0  0  0  0  0  0  0  0
    3.9614    0.9084   -1.9420 C   0  0  0  0  0  0  0  0  0  0  0  0
    5.1615    0.6162   -2.2398 O   0  0  0  0  0  0  0  0  0  0  0  0
    6.3658    0.3256   -2.5432 C   0  0  0  0  0  0  0  0  0  0  0  0
    7.0098   -0.5543   -1.4985 C   0  0  0  0  0  0  0  0  0  0  0  0
    7.5413   -1.2473   -0.6719 C   0  0  0  0  0  0  0  0  0  0  0  0
    8.1713   -2.0986    0.3365 C   0  0  0  0  0  0  0  0  0  0  0  0
    9.4968   -1.7031    0.8734 C   0  0  0  0  0  0  0  0  0  0  0  0
    8.3016   -1.5430    1.7509 C   0  0  0  0  0  0  0  0  0  0  0  0
    3.3071    0.4582   -0.7643 C   0  0  0  0  0  0  0  0  0  0  0  0
    2.0599    0.7719   -0.4726 N   0  0  0  0  0  0  0  0  0  0  0  0
   -2.1769    2.6085    1.6225 C   0  0  0  0  0  0  0  0  0  0  0  0
   -3.4639    2.8603    2.0780 C   0  0  0  0  0  0  0  0  0  0  0  0
   -4.4725    1.9724    1.6779 C   0  0  0  0  0  0  0  0  0  0  0  0
   -5.7154    2.2257    2.1097 F   0  0  0  0  0  0  0  0  0  0  0  0
   -6.3387    0.6391   -0.3761 C   0  0  0  0  0  0  0  0  0  0  0  0
   -7.2910   -0.2671   -0.7705 F   0  0  0  0  0  0  0  0  0  0  0  0
   -5.8150    1.2555   -1.4882 F   0  0  0  0  0  0  0  0  0  0  0  0
   -5.8885   -0.6669    1.6667 C   0  0  1  0  0  0  0  0  0  0  0  0
   -6.8647   -1.7777    1.5437 C   0  0  0  0  0  0  0  0  0  0  0  0
   -5.4329   -1.9992    2.0604 C   0  0  1  0  0  0  0  0  0  0  0  0
   -4.5146   -2.6454    1.2419 O   0  0  0  0  0  0  0  0  0  0  0  0
   -4.3223   -3.3976   -1.8766 H   0  0  0  0  0  0  0  0  0  0  0  0
   -2.7904   -3.4228   -0.9019 H   0  0  0  0  0  0  0  0  0  0  0  0
   -2.6702   -0.1354   -0.1851 H   0  0  0  0  0  0  0  0  0  0  0  0
    0.0752    0.6803    0.9382 H   0  0  0  0  0  0  0  0  0  0  0  0
    1.2395    2.6319   -3.0361 H   0  0  0  0  0  0  0  0  0  0  0  0
    3.6092    2.0766   -3.6597 H   0  0  0  0  0  0  0  0  0  0  0  0
    6.4665   -0.3318   -3.4834 H   0  0  0  0  0  0  0  0  0  0  0  0
    7.1053    1.1665   -2.7475 H   0  0  0  0  0  0  0  0  0  0  0  0
    7.9721   -3.1764    0.2196 H   0  0  0  0  0  0  0  0  0  0  0  0
    9.9506   -0.7721    0.4303 H   0  0  0  0  0  0  0  0  0  0  0  0
   10.2374   -2.4608    1.1748 H   0  0  0  0  0  0  0  0  0  0  0  0
    7.9033   -0.4933    1.8666 H   0  0  0  0  0  0  0  0  0  0  0  0
    8.1366   -2.2383    2.6023 H   0  0  0  0  0  0  0  0  0  0  0  0
    3.9283   -0.1729   -0.1182 H   0  0  0  0  0  0  0  0  0  0  0  0
   -1.3590    3.2643    1.9032 H   0  0  0  0  0  0  0  0  0  0  0  0
   -3.6654    3.7027    2.7085 H   0  0  0  0  0  0  0  0  0  0  0  0
   -6.7979    1.4508    0.2437 H   0  0  0  0  0  0  0  0  0  0  0  0
   -6.0268    0.0511    2.5061 H   0  0  0  0  0  0  0  0  0  0  0  0
   -7.6684   -1.7964    2.3108 H   0  0  0  0  0  0  0  0  0  0  0  0
   -7.0971   -2.1331    0.5395 H   0  0  0  0  0  0  0  0  0  0  0  0
   -5.3762   -2.2518    3.1603 H   0  0  0  0  0  0  0  0  0  0  0  0
  1  2  1  0
  2  3  2  0
  3  4  1  0
  4  5  1  0
  5  6  2  0
  6  7  1  0
  7  8  1  0
  8  9  1  0
  9 10  2  0
  9 11  1  0
 11 12  2  0
 12 13  1  0
 13 14  2  0
 14 15  1  0
 15 16  1  0
 16 17  1  0
 17 18  3  0
 18 19  1  0
 19 20  1  0
 20 21  1  0
 14 22  1  0
 22 23  2  0
  7 24  2  0
 24 25  1  0
 25 26  2  0
 26 27  1  0
  4 28  1  6
 28 29  1  0
 28 30  1  0
  4 31  1  0
 31 32  1  0
 32 33  1  0
 33 34  1  0
 34  2  1  0
 26  5  1  0
 33 31  1  0
 23 11  1  0
 21 19  1  0
  1 35  1  0
  1 36  1  0
  6 37  1  0
  8 38  1  0
 12 39  1  0
 13 40  1  0
 16 41  1  0
 16 42  1  0
 19 43  1  0
 20 44  1  0
 20 45  1  0
 21 46  1  0
 21 47  1  0
 22 48  1  0
 24 49  1  0
 25 50  1  0
 28 51  1  0
 31 52  1  1
 32 53  1  0
 32 54  1  0
 33 55  1  1
M  END
$$$$
