@<TRIPOS>MOLECULE
*****
 52 56 0 0 0
SMALL
GASTEIGER

@<TRIPOS>ATOM
      1 C           6.2518    2.5528    2.1043 C.3     1  UNL1        0.0132
      2 N           5.4215    1.6501    1.3039 N.ar    1  UNL1       -0.3342
      3 C           4.0820    1.7146    1.1941 C.ar    1  UNL1        0.0147
      4 C           3.6499    0.6988    0.3524 C.ar    1  UNL1        0.0150
      5 C           2.2756    0.3947   -0.0513 C.ar    1  UNL1        0.0199
      6 C           1.5149   -0.4741    0.6803 C.ar    1  UNL1       -0.0494
      7 C           0.2047   -0.7492    0.2777 C.ar    1  UNL1       -0.0393
      8 C          -0.3110   -0.1455   -0.8500 C.ar    1  UNL1        0.0422
      9 C           0.4800    0.7264   -1.5678 C.ar    1  UNL1        0.0113
     10 C           1.7640    0.9910   -1.1668 C.ar    1  UNL1        0.1361
     11 F           2.5131    1.8699   -1.9191 F       1  UNL1       -0.2045
     12 C          -0.3453    1.2213   -2.7300 C.3     1  UNL1       -0.0069
     13 C          -1.3439    0.0954   -2.9133 C.3     1  UNL1        0.0239
     14 N          -1.5838   -0.2288   -1.4874 N.am    1  UNL1       -0.2704
     15 C          -2.8251   -0.5476   -0.9177 C.2     1  UNL1        0.2256
     16 O          -3.8309   -0.4772   -1.7322 O.2     1  UNL1       -0.2748
     17 C          -3.0941   -0.9411    0.4718 C.3     1  UNL1        0.0668
     18 C          -4.5721   -1.0804    0.7157 C.ar    1  UNL1        0.0507
     19 C          -5.2468   -2.2554    0.5138 C.ar    1  UNL1       -0.0399
     20 C          -6.5924   -2.3176    0.7559 C.ar    1  UNL1       -0.0581
     21 C          -7.2726   -1.1966    1.2041 C.ar    1  UNL1       -0.0316
     22 C          -6.5905   -0.0284    1.4026 C.ar    1  UNL1        0.1438
     23 C          -7.2336    1.2220    1.8815 C.3     1  UNL1        0.4342
     24 F          -8.6038    1.0997    1.9320 F       1  UNL1       -0.1644
     25 F          -6.9225    2.3030    1.0926 F       1  UNL1       -0.1644
     26 F          -6.7165    1.5020    3.1492 F       1  UNL1       -0.1644
     27 N          -5.2716   -0.0187    1.1508 N.ar    1  UNL1       -0.2471
     28 C           4.8072    0.0413   -0.0208 C.ar    1  UNL1        0.0661
     29 C           4.9936   -1.0443   -0.8429 C.ar    1  UNL1        0.1292
     30 N           3.8535   -1.6483   -1.4494 N.pl3   1  UNL1       -0.3425
     31 N           6.2280   -1.5347   -1.0768 N.ar    1  UNL1       -0.2204
     32 C           7.2956   -0.9562   -0.4992 C.ar    1  UNL1        0.1204
     33 N           7.1032    0.1058    0.3038 N.ar    1  UNL1       -0.2176
     34 C           5.9003    0.6380    0.5740 C.ar    1  UNL1        0.1461
     35 H           5.6758    2.7961    3.0428 H       1  UNL1        0.0456
     36 H           7.2281    2.0953    2.3535 H       1  UNL1        0.0456
     37 H           6.3750    3.5275    1.5768 H       1  UNL1        0.0456
     38 H           3.4062    2.4189    1.6614 H       1  UNL1        0.0816
     39 H           1.8704   -0.9754    1.5737 H       1  UNL1        0.0625
     40 H          -0.4181   -1.4235    0.8240 H       1  UNL1        0.0636
     41 H           0.2653    1.4120   -3.6162 H       1  UNL1        0.0330
     42 H          -0.9329    2.1058   -2.3965 H       1  UNL1        0.0330
     43 H          -2.2762    0.4061   -3.3923 H       1  UNL1        0.0472
     44 H          -0.8432   -0.7703   -3.3913 H       1  UNL1        0.0472
     45 H          -2.6131   -1.9471    0.6418 H       1  UNL1        0.0422
     46 H          -2.6962   -0.2155    1.1859 H       1  UNL1        0.0422
     47 H          -4.7085   -3.1150    0.1668 H       1  UNL1        0.0636
     48 H          -7.1606   -3.2481    0.6022 H       1  UNL1        0.0619
     49 H          -8.3375   -1.2043    1.4077 H       1  UNL1        0.0638
     50 H           3.2866   -2.3667   -0.9935 H       1  UNL1        0.1437
     51 H           3.5808   -1.3430   -2.4099 H       1  UNL1        0.1437
     52 H           8.3159   -1.3354   -0.6727 H       1  UNL1        0.1048
@<TRIPOS>BOND
     1     1     2    1
     2     2     3   ar
     3     3     4   ar
     4     4     5    1
     5     5     6   ar
     6     6     7   ar
     7     7     8   ar
     8     8     9   ar
     9     9    10   ar
    10    10    11    1
    11     9    12    1
    12    12    13    1
    13    13    14    1
    14    14    15   am
    15    15    16    2
    16    15    17    1
    17    17    18    1
    18    18    19   ar
    19    19    20   ar
    20    20    21   ar
    21    21    22   ar
    22    22    23    1
    23    23    24    1
    24    23    25    1
    25    23    26    1
    26    22    27   ar
    27     4    28   ar
    28    28    29   ar
    29    29    30    1
    30    29    31   ar
    31    31    32   ar
    32    32    33   ar
    33    33    34   ar
    34    34     2   ar
    35    10     5   ar
    36    27    18   ar
    37    34    28   ar
    38    14     8    1
    39     1    35    1
    40     1    36    1
    41     1    37    1
    42     3    38    1
    43     6    39    1
    44     7    40    1
    45    12    41    1
    46    12    42    1
    47    13    43    1
    48    13    44    1
    49    17    45    1
    50    17    46    1
    51    19    47    1
    52    20    48    1
    53    21    49    1
    54    30    50    1
    55    30    51    1
    56    32    52    1
