
     RDKit          3D

 52 56  0  0  0  0  0  0  0  0999 V2000
    6.2518    2.5528    2.1043 C   0  0  0  0  0  0  0  0  0  0  0  0
    5.4215    1.6501    1.3039 N   0  0  0  0  0  0  0  0  0  0  0  0
    4.0820    1.7146    1.1941 C   0  0  0  0  0  0  0  0  0  0  0  0
    3.6499    0.6988    0.3524 C   0  0  0  0  0  0  0  0  0  0  0  0
    2.2756    0.3947   -0.0513 C   0  0  0  0  0  0  0  0  0  0  0  0
    1.5149   -0.4741    0.6803 C   0  0  0  0  0  0  0  0  0  0  0  0
    0.2047   -0.7492    0.2777 C   0  0  0  0  0  0  0  0  0  0  0  0
   -0.3110   -0.1455   -0.8500 C   0  0  0  0  0  0  0  0  0  0  0  0
    0.4800    0.7264   -1.5678 C   0  0  0  0  0  0  0  0  0  0  0  0
    1.7640    0.9910   -1.1668 C   0  0  0  0  0  0  0  0  0  0  0  0
    2.5131    1.8699   -1.9191 F   0  0  0  0  0  0  0  0  0  0  0  0
   -0.3453    1.2213   -2.7300 C   0  0  0  0  0  0  0  0  0  0  0  0
   -1.3439    0.0954   -2.9133 C   0  0  0  0  0  0  0  0  0  0  0  0
   -1.5838   -0.2288   -1.4874 N   0  0  0  0  0  0  0  0  0  0  0  0
   -2.8251   -0.5476   -0.9177 C   0  0  0  0  0  0  0  0  0  0  0  0
   -3.8309   -0.4772   -1.7322 O   0  0  0  0  0  0  0  0  0  0  0  0
   -3.0941   -0.9411    0.4718 C   0  0  0  0  0  0  0  0  0  0  0  0
   -4.5721   -1.0804    0.7157 C   0  0  0  0  0  0  0  0  0  0  0  0
   -5.2468   -2.2554    0.5138 C   0  0  0  0  0  0  0  0  0  0  0  0
   -6.5924   -2.3176    0.7559 C   0  0  0  0  0  0  0  0  0  0  0  0
   -7.2726   -1.1966    1.2041 C   0  0  0  0  0  0  0  0  0  0  0  0
   -6.5905   -0.0284    1.4026 C   0  0  0  0  0  0  0  0  0  0  0  0
   -7.2336    1.2220    1.8815 C   0  0  0  0  0  0  0  0  0  0  0  0
   -8.6038    1.0997    1.9320 F   0  0  0  0  0  0  0  0  0  0  0  0
   -6.9225    2.3030    1.0926 F   0  0  0  0  0  0  0  0  0  0  0  0
   -6.7165    1.5020    3.1492 F   0  0  0  0  0  0  0  0  0  0  0  0
   -5.2716   -0.0187    1.1508 N   0  0  0  0  0  0  0  0  0  0  0  0
    4.8072    0.0413   -0.0208 C   0  0  0  0  0  0  0  0  0  0  0  0
    4.9936   -1.0443   -0.8429 C   0  0  0  0  0  0  0  0  0  0  0  0
    3.8535   -1.6483   -1.4494 N   0  0  0  0  0  0  0  0  0  0  0  0
    6.2280   -1.5347   -1.0768 N   0  0  0  0  0  0  0  0  0  0  0  0
    7.2956   -0.9562   -0.4992 C   0  0  0  0  0  0  0  0  0  0  0  0
    7.1032    0.1058    0.3038 N   0  0  0  0  0  0  0  0  0  0  0  0
    5.9003    0.6380    0.5740 C   0  0  0  0  0  0  0  0  0  0  0  0
    5.6758    2.7961    3.0428 H   0  0  0  0  0  0  0  0  0  0  0  0
    7.2281    2.0953    2.3535 H   0  0  0  0  0  0  0  0  0  0  0  0
    6.3750    3.5275    1.5768 H   0  0  0  0  0  0  0  0  0  0  0  0
    3.4062    2.4189    1.6614 H   0  0  0  0  0  0  0  0  0  0  0  0
    1.8704   -0.9754    1.5737 H   0  0  0  0  0  0  0  0  0  0  0  0
   -0.4181   -1.4235    0.8240 H   0  0  0  0  0  0  0  0  0  0  0  0
    0.2653    1.4120   -3.6162 H   0  0  0  0  0  0  0  0  0  0  0  0
   -0.9329    2.1058   -2.3965 H   0  0  0  0  0  0  0  0  0  0  0  0
   -2.2762    0.4061   -3.3923 H   0  0  0  0  0  0  0  0  0  0  0  0
   -0.8432   -0.7703   -3.3913 H   0  0  0  0  0  0  0  0  0  0  0  0
   -2.6131   -1.9471    0.6418 H   0  0  0  0  0  0  0  0  0  0  0  0
   -2.6962   -0.2155    1.1859 H   0  0  0  0  0  0  0  0  0  0  0  0
   -4.7085   -3.1150    0.1668 H   0  0  0  0  0  0  0  0  0  0  0  0
   -7.1606   -3.2481    0.6022 H   0  0  0  0  0  0  0  0  0  0  0  0
   -8.3375   -1.2043    1.4077 H   0  0  0  0  0  0  0  0  0  0  0  0
    3.2866   -2.3667   -0.9935 H   0  0  0  0  0  0  0  0  0  0  0  0
    3.5808   -1.3430   -2.4099 H   0  0  0  0  0  0  0  0  0  0  0  0
    8.3159   -1.3354   -0.6727 H   0  0  0  0  0  0  0  0  0  0  0  0
  1  2  1  0
  2  3  1  0
  3  4  2  0
  4  5  1  0
  5  6  2  0
  6  7  1  0
  7  8  2  0
  8  9  1  0
  9 10  2  0
 10 11  1  0
  9 12  1  0
 12 13  1  0
 13 14  1  0
 14 15  1  0
 15 16  2  0
 15 17  1  0
 17 18  1  0
 18 19  2  0
 19 20  1  0
 20 21  2  0
 21 22  1  0
 22 23  1  0
 23 24  1  0
 23 25  1  0
 23 26  1  0
 22 27  2  0
  4 28  1  0
 28 29  2  0
 29 30  1  0
 29 31  1  0
 31 32  2  0
 32 33  1  0
 33 34  2  0
 34  2  1  0
 10  5  1  0
 27 18  1  0
 34 28  1  0
 14  8  1  0
  1 35  1  0
  1 36  1  0
  1 37  1  0
  3 38  1  0
  6 39  1  0
  7 40  1  0
 12 41  1  0
 12 42  1  0
 13 43  1  0
 13 44  1  0
 17 45  1  0
 17 46  1  0
 19 47  1  0
 20 48  1  0
 21 49  1  0
 30 50  1  0
 30 51  1  0
 32 52  1  0
M  END
$$$$
