@<TRIPOS>MOLECULE
*****
 86 87 0 0 0
SMALL
GASTEIGER

@<TRIPOS>ATOM
      1 C           0.8290   -4.3970   -2.6110 C.3     1  UNL1       -0.0626
      2 C           1.8967   -3.2951   -2.7155 C.3     1  UNL1       -0.0446
      3 C           3.1909   -3.9280   -2.2592 C.3     1  UNL1       -0.0626
      4 C           1.4769   -2.1263   -1.8357 C.3     1  UNL1       -0.0236
      5 C           2.4220   -0.9852   -1.8469 C.3     1  UNL1        0.1010
      6 N           3.7456   -1.2379   -1.4059 N.am    1  UNL1       -0.2881
      7 C           4.2086   -1.1425   -0.0799 C.2     1  UNL1        0.3007
      8 O           3.4405   -0.8468    0.8369 O.2     1  UNL1       -0.2528
      9 N           5.5750   -1.3774    0.2804 N.am    1  UNL1       -0.2928
     10 C           5.9802   -1.2630    1.6657 C.3     1  UNL1        0.0470
     11 C           6.6886   -2.5420    2.0444 C.3     1  UNL1       -0.0424
     12 C           6.9813   -0.1507    1.8459 C.ar    1  UNL1       -0.0274
     13 C           8.0419    0.0251    0.9909 C.ar    1  UNL1       -0.0558
     14 C           8.9578    1.0570    1.1656 C.ar    1  UNL1       -0.0474
     15 C           8.8166    1.9395    2.2185 C.ar    1  UNL1        0.0179
     16 BR         10.0214    3.3817    2.5354 Br      1  UNL1       -0.0503
     17 C           7.7498    1.7534    3.0684 C.ar    1  UNL1       -0.0474
     18 C           6.8491    0.7410    2.8997 C.ar    1  UNL1       -0.0558
     19 C           1.8272    0.2632   -1.2583 C.2     1  UNL1        0.2340
     20 O           2.4241    1.0218   -0.4582 O.2     1  UNL1       -0.2738
     21 N           0.5077    0.6665   -1.5909 N.am    1  UNL1       -0.3022
     22 C          -0.0844    1.8985   -1.0076 C.3     1  UNL1        0.1017
     23 C          -1.4534    1.4860   -0.5950 C.2     1  UNL1        0.2342
     24 O          -1.8499    0.3097   -0.9402 O.2     1  UNL1       -0.2738
     25 N          -2.3604    2.2418    0.1343 N.am    1  UNL1       -0.3037
     26 C          -3.6959    1.6563    0.4518 C.3     1  UNL1        0.0882
     27 C          -3.7743    1.5879    1.9673 C.3     1  UNL1       -0.0242
     28 C          -5.0037    1.0114    2.5405 C.3     1  UNL1       -0.0166
     29 C          -5.2521   -0.4225    2.1262 C.3     1  UNL1        0.1048
     30 N          -6.4909   -0.8599    2.7352 N.pl3   1  UNL1       -0.1138
     31 C          -7.1773   -1.8271    2.2467 C.cat   1  UNL1        0.3765
     32 N          -8.3885   -2.2404    2.8587 N.pl3   1  UNL1       -0.2893
     33 N          -6.7235   -2.4919    1.0841 N.pl3   1  UNL1       -0.2893
     34 C          -4.6607    2.5925   -0.1516 C.2     1  UNL1        0.2079
     35 O          -4.3122    3.7443   -0.5695 O.2     1  UNL1       -0.2879
     36 C          -6.0602    2.2187   -0.2942 C.ar    1  UNL1        0.1453
     37 N          -6.8477    1.3553   -0.1226 N.ar    1  UNL1       -0.2443
     38 C          -8.0920    1.2385   -0.3530 C.ar    1  UNL1        0.0355
     39 C          -8.6558    2.3871   -0.9404 C.ar    1  UNL1       -0.0041
     40 S          -7.2468    3.4850   -1.0678 S.2     1  UNL1       -0.0728
     41 C          -0.2393    2.9247   -2.1111 C.3     1  UNL1       -0.0197
     42 C          -1.1672    2.4282   -3.1700 C.3     1  UNL1       -0.0605
     43 C          -0.7356    4.2171   -1.5509 C.3     1  UNL1       -0.0605
     44 H          -0.1523   -3.9938   -2.9270 H       1  UNL1        0.0232
     45 H           1.1674   -5.2258   -3.2628 H       1  UNL1        0.0232
     46 H           0.7956   -4.7945   -1.5672 H       1  UNL1        0.0232
     47 H           1.9319   -3.0300   -3.7932 H       1  UNL1        0.0296
     48 H           3.4320   -3.6858   -1.2030 H       1  UNL1        0.0232
     49 H           3.1118   -5.0552   -2.2682 H       1  UNL1        0.0232
     50 H           4.0332   -3.7235   -2.9586 H       1  UNL1        0.0232
     51 H           1.3239   -2.5755   -0.8296 H       1  UNL1        0.0290
     52 H           0.4650   -1.8461   -2.1877 H       1  UNL1        0.0290
     53 H           2.5399   -0.6736   -2.9482 H       1  UNL1        0.0595
     54 H           4.5020   -1.5336   -2.1130 H       1  UNL1        0.1510
     55 H           6.2640   -1.6253   -0.4388 H       1  UNL1        0.1508
     56 H           5.0954   -1.0773    2.3187 H       1  UNL1        0.0546
     57 H           7.3594   -2.8558    1.2201 H       1  UNL1        0.0251
     58 H           5.9773   -3.3768    2.2151 H       1  UNL1        0.0251
     59 H           7.2803   -2.4231    2.9828 H       1  UNL1        0.0251
     60 H           8.1889   -0.6402    0.1574 H       1  UNL1        0.0621
     61 H           9.7973    1.2201    0.5142 H       1  UNL1        0.0629
     62 H           7.6153    2.4361    3.9071 H       1  UNL1        0.0629
     63 H           6.0019    0.5803    3.5616 H       1  UNL1        0.0621
     64 H          -0.0523    0.0976   -2.2481 H       1  UNL1        0.1495
     65 H           0.5229    2.3255   -0.2223 H       1  UNL1        0.0597
     66 H          -2.1414    3.1936    0.4759 H       1  UNL1        0.1495
     67 H          -3.7489    0.6854   -0.0346 H       1  UNL1        0.0582
     68 H          -2.8777    1.0599    2.3568 H       1  UNL1        0.0288
     69 H          -3.6800    2.6618    2.3013 H       1  UNL1        0.0288
     70 H          -5.9240    1.5950    2.3872 H       1  UNL1        0.0298
     71 H          -4.9052    0.9660    3.6707 H       1  UNL1        0.0298
     72 H          -5.3077   -0.5852    1.0534 H       1  UNL1        0.0693
     73 H          -4.4475   -1.0974    2.5253 H       1  UNL1        0.0693
     74 H          -9.2428   -1.6681    2.8433 H       1  UNL1        0.2546
     75 H          -8.4155   -3.1626    3.3453 H       1  UNL1        0.2546
     76 H          -6.4477   -2.0334    0.1962 H       1  UNL1        0.2546
     77 H          -6.6424   -3.5444    1.0704 H       1  UNL1        0.2546
     78 H          -8.7226    0.3305   -0.1289 H       1  UNL1        0.0835
     79 H          -9.7259    2.5916   -1.2604 H       1  UNL1        0.0709
     80 H           0.7761    3.1776   -2.5444 H       1  UNL1        0.0318
     81 H          -0.9917    2.9283   -4.1506 H       1  UNL1        0.0233
     82 H          -1.2244    1.3527   -3.3060 H       1  UNL1        0.0233
     83 H          -2.2148    2.7438   -2.8791 H       1  UNL1        0.0233
     84 H          -0.4050    5.0959   -2.1990 H       1  UNL1        0.0233
     85 H          -1.8386    4.2825   -1.5972 H       1  UNL1        0.0233
     86 H          -0.4321    4.4040   -0.5004 H       1  UNL1        0.0233
@<TRIPOS>BOND
     1     1     2    1
     2     2     3    1
     3     2     4    1
     4     4     5    1
     5     5     6    1
     6     6     7   am
     7     7     8    2
     8     7     9   am
     9     9    10    1
    10    10    11    1
    11    10    12    1
    12    12    13   ar
    13    13    14   ar
    14    14    15   ar
    15    15    16    1
    16    15    17   ar
    17    17    18   ar
    18     5    19    1
    19    19    20    2
    20    19    21   am
    21    21    22    1
    22    22    23    1
    23    23    24    2
    24    23    25   am
    25    25    26    1
    26    26    27    1
    27    27    28    1
    28    28    29    1
    29    29    30    1
    30    30    31    2
    31    31    32    1
    32    31    33    1
    33    26    34    1
    34    34    35    2
    35    34    36    1
    36    36    37   ar
    37    37    38   ar
    38    38    39   ar
    39    39    40   ar
    40    22    41    1
    41    41    42    1
    42    41    43    1
    43    18    12   ar
    44    40    36   ar
    45     1    44    1
    46     1    45    1
    47     1    46    1
    48     2    47    1
    49     3    48    1
    50     3    49    1
    51     3    50    1
    52     4    51    1
    53     4    52    1
    54     5    53    1
    55     6    54    1
    56     9    55    1
    57    10    56    1
    58    11    57    1
    59    11    58    1
    60    11    59    1
    61    13    60    1
    62    14    61    1
    63    17    62    1
    64    18    63    1
    65    21    64    1
    66    22    65    1
    67    25    66    1
    68    26    67    1
    69    27    68    1
    70    27    69    1
    71    28    70    1
    72    28    71    1
    73    29    72    1
    74    29    73    1
    75    32    74    1
    76    32    75    1
    77    33    76    1
    78    33    77    1
    79    38    78    1
    80    39    79    1
    81    41    80    1
    82    42    81    1
    83    42    82    1
    84    42    83    1
    85    43    84    1
    86    43    85    1
    87    43    86    1
