
     RDKit          3D

 86 87  0  0  0  0  0  0  0  0999 V2000
    0.8290   -4.3970   -2.6110 C   0  0  0  0  0  0  0  0  0  0  0  0
    1.8967   -3.2951   -2.7155 C   0  0  0  0  0  0  0  0  0  0  0  0
    3.1909   -3.9280   -2.2592 C   0  0  0  0  0  0  0  0  0  0  0  0
    1.4769   -2.1263   -1.8357 C   0  0  0  0  0  0  0  0  0  0  0  0
    2.4220   -0.9852   -1.8469 C   0  0  2  0  0  0  0  0  0  0  0  0
    3.7456   -1.2379   -1.4059 N   0  0  0  0  0  0  0  0  0  0  0  0
    4.2086   -1.1425   -0.0799 C   0  0  0  0  0  0  0  0  0  0  0  0
    3.4405   -0.8468    0.8369 O   0  0  0  0  0  0  0  0  0  0  0  0
    5.5750   -1.3774    0.2804 N   0  0  0  0  0  0  0  0  0  0  0  0
    5.9802   -1.2630    1.6657 C   0  0  0  0  0  0  0  0  0  0  0  0
    6.6886   -2.5420    2.0444 C   0  0  0  0  0  0  0  0  0  0  0  0
    6.9813   -0.1507    1.8459 C   0  0  0  0  0  0  0  0  0  0  0  0
    8.0419    0.0251    0.9909 C   0  0  0  0  0  0  0  0  0  0  0  0
    8.9578    1.0570    1.1656 C   0  0  0  0  0  0  0  0  0  0  0  0
    8.8166    1.9395    2.2185 C   0  0  0  0  0  0  0  0  0  0  0  0
   10.0214    3.3817    2.5354 Br  0  0  0  0  0  0  0  0  0  0  0  0
    7.7498    1.7534    3.0684 C   0  0  0  0  0  0  0  0  0  0  0  0
    6.8491    0.7410    2.8997 C   0  0  0  0  0  0  0  0  0  0  0  0
    1.8272    0.2632   -1.2583 C   0  0  0  0  0  0  0  0  0  0  0  0
    2.4241    1.0218   -0.4582 O   0  0  0  0  0  0  0  0  0  0  0  0
    0.5077    0.6665   -1.5909 N   0  0  0  0  0  0  0  0  0  0  0  0
   -0.0844    1.8985   -1.0076 C   0  0  2  0  0  0  0  0  0  0  0  0
   -1.4534    1.4860   -0.5950 C   0  0  0  0  0  0  0  0  0  0  0  0
   -1.8499    0.3097   -0.9402 O   0  0  0  0  0  0  0  0  0  0  0  0
   -2.3604    2.2418    0.1343 N   0  0  0  0  0  0  0  0  0  0  0  0
   -3.6959    1.6563    0.4518 C   0  0  1  0  0  0  0  0  0  0  0  0
   -3.7743    1.5879    1.9673 C   0  0  0  0  0  0  0  0  0  0  0  0
   -5.0037    1.0114    2.5405 C   0  0  0  0  0  0  0  0  0  0  0  0
   -5.2521   -0.4225    2.1262 C   0  0  0  0  0  0  0  0  0  0  0  0
   -6.4909   -0.8599    2.7352 N   0  0  0  0  0  0  0  0  0  0  0  0
   -7.1773   -1.8271    2.2467 C   0  0  0  0  0  0  0  0  0  0  0  0
   -8.3885   -2.2404    2.8587 N   0  0  0  0  0  0  0  0  0  0  0  0
   -6.7235   -2.4919    1.0841 N   0  0  0  0  0  0  0  0  0  0  0  0
   -4.6607    2.5925   -0.1516 C   0  0  0  0  0  0  0  0  0  0  0  0
   -4.3122    3.7443   -0.5695 O   0  0  0  0  0  0  0  0  0  0  0  0
   -6.0602    2.2187   -0.2942 C   0  0  0  0  0  0  0  0  0  0  0  0
   -6.8477    1.3553   -0.1226 N   0  0  0  0  0  0  0  0  0  0  0  0
   -8.0920    1.2385   -0.3530 C   0  0  0  0  0  0  0  0  0  0  0  0
   -8.6558    2.3871   -0.9404 C   0  0  0  0  0  0  0  0  0  0  0  0
   -7.2468    3.4850   -1.0678 S   0  0  0  0  0  0  0  0  0  0  0  0
   -0.2393    2.9247   -2.1111 C   0  0  0  0  0  0  0  0  0  0  0  0
   -1.1672    2.4282   -3.1700 C   0  0  0  0  0  0  0  0  0  0  0  0
   -0.7356    4.2171   -1.5509 C   0  0  0  0  0  0  0  0  0  0  0  0
   -0.1523   -3.9938   -2.9270 H   0  0  0  0  0  0  0  0  0  0  0  0
    1.1674   -5.2258   -3.2628 H   0  0  0  0  0  0  0  0  0  0  0  0
    0.7956   -4.7945   -1.5672 H   0  0  0  0  0  0  0  0  0  0  0  0
    1.9319   -3.0300   -3.7932 H   0  0  0  0  0  0  0  0  0  0  0  0
    3.4320   -3.6858   -1.2030 H   0  0  0  0  0  0  0  0  0  0  0  0
    3.1118   -5.0552   -2.2682 H   0  0  0  0  0  0  0  0  0  0  0  0
    4.0332   -3.7235   -2.9586 H   0  0  0  0  0  0  0  0  0  0  0  0
    1.3239   -2.5755   -0.8296 H   0  0  0  0  0  0  0  0  0  0  0  0
    0.4650   -1.8461   -2.1877 H   0  0  0  0  0  0  0  0  0  0  0  0
    2.5399   -0.6736   -2.9482 H   0  0  0  0  0  0  0  0  0  0  0  0
    4.5020   -1.5336   -2.1130 H   0  0  0  0  0  0  0  0  0  0  0  0
    6.2640   -1.6253   -0.4388 H   0  0  0  0  0  0  0  0  0  0  0  0
    5.0954   -1.0773    2.3187 H   0  0  0  0  0  0  0  0  0  0  0  0
    7.3594   -2.8558    1.2201 H   0  0  0  0  0  0  0  0  0  0  0  0
    5.9773   -3.3768    2.2151 H   0  0  0  0  0  0  0  0  0  0  0  0
    7.2803   -2.4231    2.9828 H   0  0  0  0  0  0  0  0  0  0  0  0
    8.1889   -0.6402    0.1574 H   0  0  0  0  0  0  0  0  0  0  0  0
    9.7973    1.2201    0.5142 H   0  0  0  0  0  0  0  0  0  0  0  0
    7.6153    2.4361    3.9071 H   0  0  0  0  0  0  0  0  0  0  0  0
    6.0019    0.5803    3.5616 H   0  0  0  0  0  0  0  0  0  0  0  0
   -0.0523    0.0976   -2.2481 H   0  0  0  0  0  0  0  0  0  0  0  0
    0.5229    2.3255   -0.2223 H   0  0  0  0  0  0  0  0  0  0  0  0
   -2.1414    3.1936    0.4759 H   0  0  0  0  0  0  0  0  0  0  0  0
   -3.7489    0.6854   -0.0346 H   0  0  0  0  0  0  0  0  0  0  0  0
   -2.8777    1.0599    2.3568 H   0  0  0  0  0  0  0  0  0  0  0  0
   -3.6800    2.6618    2.3013 H   0  0  0  0  0  0  0  0  0  0  0  0
   -5.9240    1.5950    2.3872 H   0  0  0  0  0  0  0  0  0  0  0  0
   -4.9052    0.9660    3.6707 H   0  0  0  0  0  0  0  0  0  0  0  0
   -5.3077   -0.5852    1.0534 H   0  0  0  0  0  0  0  0  0  0  0  0
   -4.4475   -1.0974    2.5253 H   0  0  0  0  0  0  0  0  0  0  0  0
   -9.2428   -1.6681    2.8433 H   0  0  0  0  0  0  0  0  0  0  0  0
   -8.4155   -3.1626    3.3453 H   0  0  0  0  0  0  0  0  0  0  0  0
   -6.4477   -2.0334    0.1962 H   0  0  0  0  0  0  0  0  0  0  0  0
   -6.6424   -3.5444    1.0704 H   0  0  0  0  0  0  0  0  0  0  0  0
   -8.7226    0.3305   -0.1289 H   0  0  0  0  0  0  0  0  0  0  0  0
   -9.7259    2.5916   -1.2604 H   0  0  0  0  0  0  0  0  0  0  0  0
    0.7761    3.1776   -2.5444 H   0  0  0  0  0  0  0  0  0  0  0  0
   -0.9917    2.9283   -4.1506 H   0  0  0  0  0  0  0  0  0  0  0  0
   -1.2244    1.3527   -3.3060 H   0  0  0  0  0  0  0  0  0  0  0  0
   -2.2148    2.7438   -2.8791 H   0  0  0  0  0  0  0  0  0  0  0  0
   -0.4050    5.0959   -2.1990 H   0  0  0  0  0  0  0  0  0  0  0  0
   -1.8386    4.2825   -1.5972 H   0  0  0  0  0  0  0  0  0  0  0  0
   -0.4321    4.4040   -0.5004 H   0  0  0  0  0  0  0  0  0  0  0  0
  1  2  1  0
  2  3  1  0
  2  4  1  0
  4  5  1  0
  5  6  1  0
  6  7  1  0
  7  8  2  0
  7  9  1  0
  9 10  1  0
 10 11  1  0
 10 12  1  0
 12 13  2  0
 13 14  1  0
 14 15  2  0
 15 16  1  0
 15 17  1  0
 17 18  2  0
  5 19  1  0
 19 20  2  0
 19 21  1  0
 21 22  1  0
 22 23  1  0
 23 24  2  0
 23 25  1  0
 25 26  1  0
 26 27  1  0
 27 28  1  0
 28 29  1  0
 29 30  1  0
 30 31  2  3
 31 32  1  0
 31 33  1  0
 26 34  1  0
 34 35  2  0
 34 36  1  0
 36 37  2  0
 37 38  1  0
 38 39  2  0
 39 40  1  0
 22 41  1  0
 41 42  1  0
 41 43  1  0
 18 12  1  0
 40 36  1  0
  1 44  1  0
  1 45  1  0
  1 46  1  0
  2 47  1  0
  3 48  1  0
  3 49  1  0
  3 50  1  0
  4 51  1  0
  4 52  1  0
  5 53  1  6
  6 54  1  0
  9 55  1  0
 10 56  1  0
 11 57  1  0
 11 58  1  0
 11 59  1  0
 13 60  1  0
 14 61  1  0
 17 62  1  0
 18 63  1  0
 21 64  1  0
 22 65  1  1
 25 66  1  0
 26 67  1  6
 27 68  1  0
 27 69  1  0
 28 70  1  0
 28 71  1  0
 29 72  1  0
 29 73  1  0
 32 74  1  0
 32 75  1  0
 33 76  1  0
 33 77  1  0
 38 78  1  0
 39 79  1  0
 41 80  1  0
 42 81  1  0
 42 82  1  0
 42 83  1  0
 43 84  1  0
 43 85  1  0
 43 86  1  0
M  END
$$$$
