
     RDKit          3D

 34 35  0  0  0  0  0  0  0  0999 V2000
   -4.4458   -0.5636   -2.4453 C   0  0  0  0  0  0  0  0  0  0  0  0
   -4.7100    0.2915   -1.2309 C   0  0  0  0  0  0  0  0  0  0  0  0
   -3.5783    0.4619   -0.4165 O   0  0  0  0  0  0  0  0  0  0  0  0
   -2.8956   -0.5774    0.1899 C   0  0  0  0  0  0  0  0  0  0  0  0
   -3.3217   -1.7425   -0.0058 O   0  0  0  0  0  0  0  0  0  0  0  0
   -1.7147   -0.3968    1.0394 C   0  0  0  0  0  0  0  0  0  0  0  0
   -0.5668    0.2719    0.3073 C   0  0  0  0  0  0  0  0  0  0  0  0
    0.5450   -0.0260    1.2087 N   0  0  0  0  0  0  0  0  0  0  0  0
    1.6143    0.8917    1.5046 C   0  0  0  0  0  0  0  0  0  0  0  0
    2.7568    0.7419    0.5537 C   0  0  0  0  0  0  0  0  0  0  0  0
    3.8010   -0.1265    0.7985 C   0  0  0  0  0  0  0  0  0  0  0  0
    4.8495   -0.2539   -0.0893 C   0  0  0  0  0  0  0  0  0  0  0  0
    4.8994    0.4797   -1.2577 C   0  0  0  0  0  0  0  0  0  0  0  0
    3.8606    1.3508   -1.5122 C   0  0  0  0  0  0  0  0  0  0  0  0
    2.8067    1.4773   -0.6175 C   0  0  0  0  0  0  0  0  0  0  0  0
    0.3244   -1.3497    1.6853 C   0  0  0  0  0  0  0  0  0  0  0  0
    1.2046   -2.0729    2.2195 O   0  0  0  0  0  0  0  0  0  0  0  0
   -1.0939   -1.6879    1.4346 C   0  0  0  0  0  0  0  0  0  0  0  0
   -1.6026   -2.8229    1.5457 O   0  0  0  0  0  0  0  0  0  0  0  0
   -5.2461   -0.3090   -3.1992 H   0  0  0  0  0  0  0  0  0  0  0  0
   -3.4696   -0.3281   -2.9060 H   0  0  0  0  0  0  0  0  0  0  0  0
   -4.5751   -1.6398   -2.2358 H   0  0  0  0  0  0  0  0  0  0  0  0
   -5.0555    1.3131   -1.5318 H   0  0  0  0  0  0  0  0  0  0  0  0
   -5.5653   -0.1659   -0.6883 H   0  0  0  0  0  0  0  0  0  0  0  0
   -1.9853    0.2140    1.9260 H   0  0  0  0  0  0  0  0  0  0  0  0
   -0.7167    1.3532    0.1686 H   0  0  0  0  0  0  0  0  0  0  0  0
   -0.4089   -0.2819   -0.6387 H   0  0  0  0  0  0  0  0  0  0  0  0
    1.9850    0.7692    2.5616 H   0  0  0  0  0  0  0  0  0  0  0  0
    1.1913    1.9253    1.4773 H   0  0  0  0  0  0  0  0  0  0  0  0
    3.8138   -0.7312    1.7060 H   0  0  0  0  0  0  0  0  0  0  0  0
    5.6742   -0.9438    0.1100 H   0  0  0  0  0  0  0  0  0  0  0  0
    5.7208    0.3890   -1.9671 H   0  0  0  0  0  0  0  0  0  0  0  0
    3.9090    1.9233   -2.4338 H   0  0  0  0  0  0  0  0  0  0  0  0
    1.9956    2.1660   -0.8290 H   0  0  0  0  0  0  0  0  0  0  0  0
  1  2  1  0
  2  3  1  0
  3  4  1  0
  4  5  2  0
  4  6  1  0
  6  7  1  0
  7  8  1  0
  8  9  1  0
  9 10  1  0
 10 11  2  0
 11 12  1  0
 12 13  2  0
 13 14  1  0
 14 15  2  0
  8 16  1  0
 16 17  2  0
 16 18  1  0
 18 19  2  0
 18  6  1  0
 15 10  1  0
  1 20  1  0
  1 21  1  0
  1 22  1  0
  2 23  1  0
  2 24  1  0
  6 25  1  0
  7 26  1  0
  7 27  1  0
  9 28  1  0
  9 29  1  0
 11 30  1  0
 12 31  1  0
 13 32  1  0
 14 33  1  0
 15 34  1  0
M  END
$$$$
