@<TRIPOS>MOLECULE
*****
 34 35 0 0 0
SMALL
GASTEIGER

@<TRIPOS>ATOM
      1 C          -4.4458   -0.5636   -2.4453 C.3     1  UNL1       -0.0306
      2 C          -4.7100    0.2915   -1.2309 C.3     1  UNL1        0.0897
      3 O          -3.5783    0.4619   -0.4165 O.3     1  UNL1       -0.4644
      4 C          -2.8956   -0.5774    0.1899 C.2     1  UNL1        0.3195
      5 O          -3.3217   -1.7425   -0.0058 O.2     1  UNL1       -0.2500
      6 C          -1.7147   -0.3968    1.0394 C.3     1  UNL1        0.1391
      7 C          -0.5668    0.2719    0.3073 C.3     1  UNL1        0.0357
      8 N           0.5450   -0.0260    1.2087 N.am    1  UNL1       -0.2896
      9 C           1.6143    0.8917    1.5046 C.3     1  UNL1        0.0401
     10 C           2.7568    0.7419    0.5537 C.ar    1  UNL1       -0.0301
     11 C           3.8010   -0.1265    0.7985 C.ar    1  UNL1       -0.0571
     12 C           4.8495   -0.2539   -0.0893 C.ar    1  UNL1       -0.0615
     13 C           4.8994    0.4797   -1.2577 C.ar    1  UNL1       -0.0617
     14 C           3.8606    1.3508   -1.5122 C.ar    1  UNL1       -0.0615
     15 C           2.8067    1.4773   -0.6175 C.ar    1  UNL1       -0.0571
     16 C           0.3244   -1.3497    1.6853 C.2     1  UNL1        0.2833
     17 O           1.2046   -2.0729    2.2195 O.2     1  UNL1       -0.2668
     18 C          -1.0939   -1.6879    1.4346 C.2     1  UNL1        0.2326
     19 O          -1.6026   -2.8229    1.5457 O.2     1  UNL1       -0.2862
     20 H          -5.2461   -0.3090   -3.1992 H       1  UNL1        0.0262
     21 H          -3.4696   -0.3281   -2.9060 H       1  UNL1        0.0262
     22 H          -4.5751   -1.6398   -2.2358 H       1  UNL1        0.0262
     23 H          -5.0555    1.3131   -1.5318 H       1  UNL1        0.0694
     24 H          -5.5653   -0.1659   -0.6883 H       1  UNL1        0.0694
     25 H          -1.9853    0.2140    1.9260 H       1  UNL1        0.0513
     26 H          -0.7167    1.3532    0.1686 H       1  UNL1        0.0477
     27 H          -0.4089   -0.2819   -0.6387 H       1  UNL1        0.0477
     28 H           1.9850    0.7692    2.5616 H       1  UNL1        0.0514
     29 H           1.1913    1.9253    1.4773 H       1  UNL1        0.0514
     30 H           3.8138   -0.7312    1.7060 H       1  UNL1        0.0621
     31 H           5.6742   -0.9438    0.1100 H       1  UNL1        0.0618
     32 H           5.7208    0.3890   -1.9671 H       1  UNL1        0.0618
     33 H           3.9090    1.9233   -2.4338 H       1  UNL1        0.0618
     34 H           1.9956    2.1660   -0.8290 H       1  UNL1        0.0621
@<TRIPOS>BOND
     1     1     2    1
     2     2     3    1
     3     3     4    1
     4     4     5    2
     5     4     6    1
     6     6     7    1
     7     7     8    1
     8     8     9    1
     9     9    10    1
    10    10    11   ar
    11    11    12   ar
    12    12    13   ar
    13    13    14   ar
    14    14    15   ar
    15     8    16   am
    16    16    17    2
    17    16    18    1
    18    18    19    2
    19    18     6    1
    20    15    10   ar
    21     1    20    1
    22     1    21    1
    23     1    22    1
    24     2    23    1
    25     2    24    1
    26     6    25    1
    27     7    26    1
    28     7    27    1
    29     9    28    1
    30     9    29    1
    31    11    30    1
    32    12    31    1
    33    13    32    1
    34    14    33    1
    35    15    34    1
