@<TRIPOS>MOLECULE
*****
 76 80 0 0 0
SMALL
GASTEIGER

@<TRIPOS>ATOM
      1 C          -2.0728    0.8781   -0.1192 C.3     1  UNL1       -0.0249
      2 C          -3.4505    1.0116    0.3557 C.3     1  UNL1       -0.0450
      3 C          -4.1045   -0.1625   -0.3494 C.3     1  UNL1       -0.0048
      4 C          -3.0384   -1.1950   -0.3656 C.3     1  UNL1        0.1785
      5 O          -2.9743   -2.0383   -1.4365 O.3     1  UNL1       -0.4499
      6 C          -2.8435   -1.9054   -2.7585 C.2     1  UNL1        0.3049
      7 C          -2.8096   -3.1506   -3.5520 C.3     1  UNL1        0.0333
      8 O          -2.7708   -0.7291   -3.1001 O.2     1  UNL1       -0.2511
      9 C          -3.4112   -2.1919    0.7444 C.2     1  UNL1        0.2024
     10 O          -3.2798   -2.6931   -0.3607 O.2     1  UNL1       -0.2907
     11 C          -3.7601   -3.1221    1.7857 C.3     1  UNL1        0.1094
     12 O          -3.8747   -2.5848    3.0321 O.3     1  UNL1       -0.3754
     13 C          -4.8930   -1.6514    3.0654 C.3     1  UNL1        0.0370
     14 C          -1.7649   -0.5797    0.1373 C.3     1  UNL1        0.0191
     15 C          -1.5428   -0.8615    1.6092 C.3     1  UNL1       -0.0552
     16 C          -0.5211   -0.9402   -0.5710 C.3     1  UNL1       -0.0327
     17 C           0.4985    0.1265   -0.7876 C.3     1  UNL1        0.0067
     18 C           1.8105   -0.2798   -0.1739 C.ar    1  UNL1       -0.0401
     19 C           2.1519    0.0022    1.1094 C.ar    1  UNL1       -0.0563
     20 C           3.3466   -0.3865    1.6804 C.ar    1  UNL1       -0.0404
     21 C           4.2803   -1.1061    0.9404 C.ar    1  UNL1        0.0292
     22 C           3.9803   -1.4166   -0.3675 C.ar    1  UNL1       -0.0404
     23 C           2.7832   -1.0048   -0.8755 C.ar    1  UNL1       -0.0563
     24 N           5.5425   -1.5655    1.4096 N.pl3   1  UNL1       -0.3360
     25 C           6.4734   -2.3165    0.5801 C.3     1  UNL1        0.0004
     26 C           5.8707   -1.2502    2.7773 C.3     1  UNL1        0.0004
     27 C           0.1246    1.5122   -0.5031 C.2     1  UNL1       -0.0553
     28 C           0.8150    2.4884   -1.0979 C.2     1  UNL1       -0.0436
     29 C           1.9544    2.3818   -2.0440 C.3     1  UNL1       -0.0204
     30 C           3.1296    3.0623   -1.3268 C.3     1  UNL1        0.0139
     31 C           2.7041    4.4803   -1.0474 C.2     1  UNL1        0.1567
     32 O           3.5751    5.3895   -1.0662 O.2     1  UNL1       -0.2927
     33 C           1.2967    4.8202   -0.7548 C.2     1  UNL1       -0.0158
     34 C           0.3776    3.8651   -0.7769 C.2     1  UNL1       -0.0409
     35 C          -1.0853    4.1183   -0.4956 C.3     1  UNL1       -0.0268
     36 C          -1.4602    3.1524    0.5742 C.3     1  UNL1       -0.0422
     37 C          -1.0026    1.7621    0.4372 C.3     1  UNL1       -0.0150
     38 H          -2.0579    1.0307   -1.2146 H       1  UNL1        0.0313
     39 H          -3.9875    1.9234   -0.0076 H       1  UNL1        0.0270
     40 H          -3.5260    0.9650    1.4556 H       1  UNL1        0.0270
     41 H          -5.0755   -0.4591    0.0651 H       1  UNL1        0.0308
     42 H          -4.3592    0.2301   -1.3666 H       1  UNL1        0.0308
     43 H          -2.6861   -3.0013   -4.6228 H       1  UNL1        0.0342
     44 H          -3.7477   -3.7209   -3.2980 H       1  UNL1        0.0342
     45 H          -1.9782   -3.7874   -3.1456 H       1  UNL1        0.0342
     46 H          -4.8009   -3.5131    1.5329 H       1  UNL1        0.0640
     47 H          -3.1561   -4.0670    1.7661 H       1  UNL1        0.0640
     48 H          -5.8504   -2.1775    2.7661 H       1  UNL1        0.0524
     49 H          -4.7706   -0.8160    2.3643 H       1  UNL1        0.0524
     50 H          -5.1033   -1.2960    4.1055 H       1  UNL1        0.0524
     51 H          -1.5518   -1.9911    1.6961 H       1  UNL1        0.0237
     52 H          -2.3295   -0.4255    2.2508 H       1  UNL1        0.0237
     53 H          -0.5777   -0.5580    1.9823 H       1  UNL1        0.0237
     54 H          -0.7410   -1.5323   -1.5158 H       1  UNL1        0.0281
     55 H          -0.0214   -1.7579    0.0479 H       1  UNL1        0.0281
     56 H           0.7462    0.0316   -1.8993 H       1  UNL1        0.0394
     57 H           1.5097    0.5463    1.7472 H       1  UNL1        0.0621
     58 H           3.6429   -0.1762    2.6951 H       1  UNL1        0.0636
     59 H           4.6724   -1.9757   -0.9940 H       1  UNL1        0.0636
     60 H           2.5651   -1.2630   -1.9233 H       1  UNL1        0.0621
     61 H           6.8075   -1.7276   -0.3176 H       1  UNL1        0.0428
     62 H           7.3849   -2.5234    1.1667 H       1  UNL1        0.0428
     63 H           6.0411   -3.2811    0.2393 H       1  UNL1        0.0428
     64 H           6.8509   -1.7364    3.0378 H       1  UNL1        0.0428
     65 H           5.1183   -1.7163    3.4485 H       1  UNL1        0.0428
     66 H           5.9754   -0.1718    2.8942 H       1  UNL1        0.0428
     67 H           1.7820    3.0072   -2.9671 H       1  UNL1        0.0317
     68 H           2.1951    1.3730   -2.3684 H       1  UNL1        0.0317
     69 H           4.0568    3.0281   -1.8948 H       1  UNL1        0.0348
     70 H           3.1720    2.5895   -0.3250 H       1  UNL1        0.0348
     71 H           0.9913    5.8361   -0.5208 H       1  UNL1        0.0655
     72 H          -1.2319    5.1353   -0.1149 H       1  UNL1        0.0313
     73 H          -1.6762    3.8949   -1.4029 H       1  UNL1        0.0313
     74 H          -1.0529    3.6063    1.5325 H       1  UNL1        0.0274
     75 H          -2.5641    3.1452    0.7703 H       1  UNL1        0.0274
     76 H          -0.7207    1.4127    1.4819 H       1  UNL1        0.0349
@<TRIPOS>BOND
     1     1     2    1
     2     2     3    1
     3     3     4    1
     4     4     5    1
     5     5     6    1
     6     6     7    1
     7     6     8    2
     8     4     9    1
     9     9    10    2
    10     9    11    1
    11    11    12    1
    12    12    13    1
    13     4    14    1
    14    14    15    1
    15    14    16    1
    16    16    17    1
    17    17    18    1
    18    18    19   ar
    19    19    20   ar
    20    20    21   ar
    21    21    22   ar
    22    22    23   ar
    23    21    24    1
    24    24    25    1
    25    24    26    1
    26    17    27    1
    27    27    28    2
    28    28    29    1
    29    29    30    1
    30    30    31    1
    31    31    32    2
    32    31    33    1
    33    33    34    2
    34    34    35    1
    35    35    36    1
    36    36    37    1
    37    14     1    1
    38    23    18   ar
    39    37    27    1
    40    37     1    1
    41    34    28    1
    42     1    38    1
    43     2    39    1
    44     2    40    1
    45     3    41    1
    46     3    42    1
    47     7    43    1
    48     7    44    1
    49     7    45    1
    50    11    46    1
    51    11    47    1
    52    13    48    1
    53    13    49    1
    54    13    50    1
    55    15    51    1
    56    15    52    1
    57    15    53    1
    58    16    54    1
    59    16    55    1
    60    17    56    1
    61    19    57    1
    62    20    58    1
    63    22    59    1
    64    23    60    1
    65    25    61    1
    66    25    62    1
    67    25    63    1
    68    26    64    1
    69    26    65    1
    70    26    66    1
    71    29    67    1
    72    29    68    1
    73    30    69    1
    74    30    70    1
    75    33    71    1
    76    35    72    1
    77    35    73    1
    78    36    74    1
    79    36    75    1
    80    37    76    1
