
     RDKit          3D

 36 38  0  0  0  0  0  0  0  0999 V2000
    2.7976   -3.0691    0.1976 C   0  0  0  0  0  0  0  0  0  0  0  0
    2.2117   -2.0105   -0.5270 O   0  0  0  0  0  0  0  0  0  0  0  0
    1.3086   -1.1915    0.1422 C   0  0  0  0  0  0  0  0  0  0  0  0
    1.0473   -1.4131    1.3436 O   0  0  0  0  0  0  0  0  0  0  0  0
    0.6719   -0.0547   -0.6154 C   0  0  2  0  0  0  0  0  0  0  0  0
    1.8025    0.8281   -1.0758 C   0  0  0  0  0  0  0  0  0  0  0  0
    2.2879    1.6137    0.0793 C   0  0  0  0  0  0  0  0  0  0  0  0
    1.5301    2.8351    0.3138 C   0  0  0  0  0  0  0  0  0  0  0  0
    0.2969    2.9022   -0.5340 C   0  0  0  0  0  0  0  0  0  0  0  0
   -0.7545    1.9583   -0.0397 C   0  0  0  0  0  0  0  0  0  0  0  0
   -0.3149    0.5913    0.2601 C   0  0  1  0  0  0  0  0  0  0  0  0
   -1.5390   -0.2796    0.2648 C   0  0  0  0  0  0  0  0  0  0  0  0
   -1.9995   -0.9298    1.3618 C   0  0  0  0  0  0  0  0  0  0  0  0
   -3.1378   -1.7008    1.2338 C   0  0  0  0  0  0  0  0  0  0  0  0
   -3.8140   -1.8282    0.0353 C   0  0  0  0  0  0  0  0  0  0  0  0
   -4.9417   -2.6100   -0.0304 F   0  0  0  0  0  0  0  0  0  0  0  0
   -3.3420   -1.1650   -1.0777 C   0  0  0  0  0  0  0  0  0  0  0  0
   -2.2073   -0.3998   -0.9391 C   0  0  0  0  0  0  0  0  0  0  0  0
    0.9739    2.1401   -2.0713 S   0  0  0  0  0  0  0  0  0  0  0  0
    1.9763   -3.7398    0.5640 H   0  0  0  0  0  0  0  0  0  0  0  0
    3.3823   -2.6991    1.0709 H   0  0  0  0  0  0  0  0  0  0  0  0
    3.4758   -3.6793   -0.4206 H   0  0  0  0  0  0  0  0  0  0  0  0
    0.2236   -0.5179   -1.5221 H   0  0  0  0  0  0  0  0  0  0  0  0
    2.5303    0.2768   -1.6486 H   0  0  0  0  0  0  0  0  0  0  0  0
    2.2373    0.9634    1.0010 H   0  0  0  0  0  0  0  0  0  0  0  0
    3.3850    1.8250   -0.0410 H   0  0  0  0  0  0  0  0  0  0  0  0
    2.1627    3.7265    0.0309 H   0  0  0  0  0  0  0  0  0  0  0  0
    1.2217    2.9622    1.3673 H   0  0  0  0  0  0  0  0  0  0  0  0
   -0.0902    3.8910   -0.7013 H   0  0  0  0  0  0  0  0  0  0  0  0
   -1.5974    1.9843   -0.7795 H   0  0  0  0  0  0  0  0  0  0  0  0
   -1.1853    2.4122    0.8954 H   0  0  0  0  0  0  0  0  0  0  0  0
    0.0738    0.5531    1.3199 H   0  0  0  0  0  0  0  0  0  0  0  0
   -1.4649   -0.8249    2.2947 H   0  0  0  0  0  0  0  0  0  0  0  0
   -3.5159   -2.2245    2.0998 H   0  0  0  0  0  0  0  0  0  0  0  0
   -3.8520   -1.2470   -2.0296 H   0  0  0  0  0  0  0  0  0  0  0  0
   -1.8407    0.1210   -1.8229 H   0  0  0  0  0  0  0  0  0  0  0  0
  1  2  1  0
  2  3  1  0
  3  4  2  0
  3  5  1  0
  5  6  1  0
  6  7  1  0
  7  8  1  0
  8  9  1  0
  9 10  1  0
 10 11  1  0
 11 12  1  0
 12 13  2  0
 13 14  1  0
 14 15  2  0
 15 16  1  0
 15 17  1  0
 17 18  2  0
  9 19  1  0
 11  5  1  0
 18 12  1  0
 19  6  1  0
  1 20  1  0
  1 21  1  0
  1 22  1  0
  5 23  1  6
  6 24  1  0
  7 25  1  0
  7 26  1  0
  8 27  1  0
  8 28  1  0
  9 29  1  0
 10 30  1  0
 10 31  1  0
 11 32  1  1
 13 33  1  0
 14 34  1  0
 17 35  1  0
 18 36  1  0
M  END
$$$$
