@<TRIPOS>MOLECULE
*****
 36 38 0 0 0
SMALL
GASTEIGER

@<TRIPOS>ATOM
      1 C           2.7976   -3.0691    0.1976 C.3     1  UNL1        0.0817
      2 O           2.2117   -2.0105   -0.5270 O.3     1  UNL1       -0.4677
      3 C           1.3086   -1.1915    0.1422 C.2     1  UNL1        0.3116
      4 O           1.0473   -1.4131    1.3436 O.2     1  UNL1       -0.2505
      5 C           0.6719   -0.0547   -0.6154 C.3     1  UNL1        0.0750
      6 C           1.8025    0.8281   -1.0758 C.3     1  UNL1        0.0190
      7 C           2.2879    1.6137    0.0793 C.3     1  UNL1       -0.0394
      8 C           1.5301    2.8351    0.3138 C.3     1  UNL1       -0.0401
      9 C           0.2969    2.9022   -0.5340 C.3     1  UNL1        0.0062
     10 C          -0.7545    1.9583   -0.0397 C.3     1  UNL1       -0.0335
     11 C          -0.3149    0.5913    0.2601 C.3     1  UNL1       -0.0009
     12 C          -1.5390   -0.2796    0.2648 C.ar    1  UNL1       -0.0433
     13 C          -1.9995   -0.9298    1.3618 C.ar    1  UNL1       -0.0556
     14 C          -3.1378   -1.7008    1.2338 C.ar    1  UNL1       -0.0262
     15 C          -3.8140   -1.8282    0.0353 C.ar    1  UNL1        0.1234
     16 F          -4.9417   -2.6100   -0.0304 F       1  UNL1       -0.2055
     17 C          -3.3420   -1.1650   -1.0777 C.ar    1  UNL1       -0.0262
     18 C          -2.2073   -0.3998   -0.9391 C.ar    1  UNL1       -0.0556
     19 S           0.9739    2.1401   -2.0713 S.3     1  UNL1       -0.1531
     20 H           1.9763   -3.7398    0.5640 H       1  UNL1        0.0661
     21 H           3.3823   -2.6991    1.0709 H       1  UNL1        0.0661
     22 H           3.4758   -3.6793   -0.4206 H       1  UNL1        0.0661
     23 H           0.2236   -0.5179   -1.5221 H       1  UNL1        0.0430
     24 H           2.5303    0.2768   -1.6486 H       1  UNL1        0.0420
     25 H           2.2373    0.9634    1.0010 H       1  UNL1        0.0276
     26 H           3.3850    1.8250   -0.0410 H       1  UNL1        0.0276
     27 H           2.1627    3.7265    0.0309 H       1  UNL1        0.0276
     28 H           1.2217    2.9622    1.3673 H       1  UNL1        0.0276
     29 H          -0.0902    3.8910   -0.7013 H       1  UNL1        0.0412
     30 H          -1.5974    1.9843   -0.7795 H       1  UNL1        0.0282
     31 H          -1.1853    2.4122    0.8954 H       1  UNL1        0.0282
     32 H           0.0738    0.5531    1.3199 H       1  UNL1        0.0357
     33 H          -1.4649   -0.8249    2.2947 H       1  UNL1        0.0621
     34 H          -3.5159   -2.2245    2.0998 H       1  UNL1        0.0646
     35 H          -3.8520   -1.2470   -2.0296 H       1  UNL1        0.0646
     36 H          -1.8407    0.1210   -1.8229 H       1  UNL1        0.0621
@<TRIPOS>BOND
     1     1     2    1
     2     2     3    1
     3     3     4    2
     4     3     5    1
     5     5     6    1
     6     6     7    1
     7     7     8    1
     8     8     9    1
     9     9    10    1
    10    10    11    1
    11    11    12    1
    12    12    13   ar
    13    13    14   ar
    14    14    15   ar
    15    15    16    1
    16    15    17   ar
    17    17    18   ar
    18     9    19    1
    19    11     5    1
    20    18    12   ar
    21    19     6    1
    22     1    20    1
    23     1    21    1
    24     1    22    1
    25     5    23    1
    26     6    24    1
    27     7    25    1
    28     7    26    1
    29     8    27    1
    30     8    28    1
    31     9    29    1
    32    10    30    1
    33    10    31    1
    34    11    32    1
    35    13    33    1
    36    14    34    1
    37    17    35    1
    38    18    36    1
