@<TRIPOS>MOLECULE
*****
 53 56 0 0 0
SMALL
GASTEIGER

@<TRIPOS>ATOM
      1 C          -3.7214    1.3549   -2.1506 C.3     1  UNL1       -0.0024
      2 N          -4.2500    0.2707   -1.3492 N.pl3   1  UNL1       -0.3463
      3 C          -3.3007   -0.5857   -0.6885 C.ar    1  UNL1        0.0395
      4 C          -1.9542   -0.3113   -0.8259 C.ar    1  UNL1       -0.0001
      5 C          -1.0032   -1.0996   -0.1786 C.ar    1  UNL1        0.1257
      6 N           0.3629   -0.7380   -0.3663 N.pl3   1  UNL1       -0.2830
      7 C           0.9564    0.2312    0.4834 C.ar    1  UNL1        0.1461
      8 C           0.1806    0.7839    1.5103 C.ar    1  UNL1        0.0693
      9 N           0.7211    1.7082    2.3105 N.ar    1  UNL1       -0.2364
     10 C           2.0133    2.1187    2.1412 C.ar    1  UNL1        0.2019
     11 C           2.5388    3.1065    3.0239 C.1     1  UNL1        0.1246
     12 N           2.9826    3.9416    3.7435 N.1     1  UNL1       -0.1891
     13 C           2.7509    1.5581    1.1242 C.ar    1  UNL1        0.2539
     14 O           4.0679    1.9645    0.9367 O.3     1  UNL1       -0.4698
     15 C           4.8219    1.3902   -0.0909 C.3     1  UNL1        0.1157
     16 C           5.1292    2.3800   -1.2158 C.3     1  UNL1       -0.0017
     17 C           6.2198    1.5806   -1.9426 C.3     1  UNL1        0.0021
     18 N           7.0389    1.1103   -0.8705 N.3     1  UNL1       -0.3017
     19 C           7.6457   -0.1678   -1.1570 C.3     1  UNL1       -0.0126
     20 C           6.1902    0.9340    0.3064 C.3     1  UNL1        0.0358
     21 N           2.2262    0.6246    0.3055 N.ar    1  UNL1       -0.1938
     22 N          -1.3919   -2.1280    0.5791 N.ar    1  UNL1       -0.2394
     23 C          -2.6955   -2.4035    0.7185 C.ar    1  UNL1        0.0393
     24 C          -3.6953   -1.6470    0.0929 C.ar    1  UNL1        0.0241
     25 C          -5.0869   -1.9799    0.2440 C.ar    1  UNL1        0.0228
     26 C          -6.0045   -2.1353   -0.7690 C.ar    1  UNL1        0.0572
     27 N          -7.2016   -2.4433   -0.2076 N.ar    1  UNL1       -0.1793
     28 N          -7.0787   -2.4884    1.1032 N.ar    1  UNL1       -0.2739
     29 C          -8.1771   -2.7954    2.0235 C.3     1  UNL1        0.0302
     30 C          -5.8077   -2.2115    1.4056 C.ar    1  UNL1        0.0330
     31 H          -4.5138    1.8539   -2.7447 H       1  UNL1        0.0425
     32 H          -3.0188    0.8896   -2.9008 H       1  UNL1        0.0425
     33 H          -3.1521    2.1007   -1.5744 H       1  UNL1        0.0425
     34 H          -5.2659    0.1423   -1.2628 H       1  UNL1        0.1458
     35 H          -1.6454    0.5164   -1.4400 H       1  UNL1        0.0671
     36 H           0.8969   -1.1906   -1.1227 H       1  UNL1        0.1550
     37 H          -0.8376    0.4298    1.6092 H       1  UNL1        0.0865
     38 H           4.2443    0.5686   -0.5689 H       1  UNL1        0.0747
     39 H           5.5347    3.2852   -0.7690 H       1  UNL1        0.0314
     40 H           4.2542    2.5601   -1.8512 H       1  UNL1        0.0314
     41 H           6.7938    2.1892   -2.6423 H       1  UNL1        0.0428
     42 H           5.6938    0.7535   -2.4976 H       1  UNL1        0.0428
     43 H           8.7074   -0.1275   -0.8907 H       1  UNL1        0.0391
     44 H           7.4981   -0.3758   -2.2422 H       1  UNL1        0.0391
     45 H           7.1728   -0.9661   -0.5787 H       1  UNL1        0.0391
     46 H           6.5690    1.6520    1.0930 H       1  UNL1        0.0463
     47 H           6.1893   -0.1042    0.6824 H       1  UNL1        0.0463
     48 H          -3.0604   -3.2289    1.3257 H       1  UNL1        0.0837
     49 H          -5.8746   -2.0522   -1.8294 H       1  UNL1        0.0854
     50 H          -8.6328   -3.7423    1.6372 H       1  UNL1        0.0473
     51 H          -8.9033   -1.9600    2.0046 H       1  UNL1        0.0473
     52 H          -7.7411   -2.9487    3.0437 H       1  UNL1        0.0473
     53 H          -5.3861   -2.1679    2.3832 H       1  UNL1        0.0832
@<TRIPOS>BOND
     1     1     2    1
     2     2     3    1
     3     3     4   ar
     4     4     5   ar
     5     5     6    1
     6     6     7    1
     7     7     8   ar
     8     8     9   ar
     9     9    10   ar
    10    10    11    1
    11    11    12    3
    12    10    13   ar
    13    13    14    1
    14    14    15    1
    15    15    16    1
    16    16    17    1
    17    17    18    1
    18    18    19    1
    19    18    20    1
    20    13    21   ar
    21     5    22   ar
    22    22    23   ar
    23    23    24   ar
    24    24    25    1
    25    25    26   ar
    26    26    27   ar
    27    27    28   ar
    28    28    29    1
    29    28    30   ar
    30    24     3   ar
    31    30    25   ar
    32    21     7   ar
    33    20    15    1
    34     1    31    1
    35     1    32    1
    36     1    33    1
    37     2    34    1
    38     4    35    1
    39     6    36    1
    40     8    37    1
    41    15    38    1
    42    16    39    1
    43    16    40    1
    44    17    41    1
    45    17    42    1
    46    19    43    1
    47    19    44    1
    48    19    45    1
    49    20    46    1
    50    20    47    1
    51    23    48    1
    52    26    49    1
    53    29    50    1
    54    29    51    1
    55    29    52    1
    56    30    53    1
