@<TRIPOS>MOLECULE
*****
 70 73 0 0 0
SMALL
GASTEIGER

@<TRIPOS>ATOM
      1 C           6.6221   -0.0076   -3.1752 C.3     1  UNL1       -0.0397
      2 C           5.3706    0.3153   -2.4249 C.ar    1  UNL1       -0.0504
      3 C           4.1805   -0.1790   -2.8997 C.ar    1  UNL1       -0.0581
      4 C           2.9966    0.0827   -2.2514 C.ar    1  UNL1       -0.0494
      5 C           2.9330    0.8575   -1.0847 C.ar    1  UNL1        0.0369
      6 C           1.6755    1.1371   -0.4530 C.2     1  UNL1        0.2472
      7 O           1.1458    2.2692   -0.5728 O.2     1  UNL1       -0.2700
      8 N           0.9119    0.1663    0.3582 N.am    1  UNL1       -0.2872
      9 C           1.5841   -1.0683    0.5111 C.3     1  UNL1        0.0169
     10 C           2.7014   -1.2611    1.4574 C.3     1  UNL1       -0.0247
     11 C           2.4609   -1.0329    2.9018 C.3     1  UNL1       -0.0055
     12 N           3.7085   -1.2756    3.6592 N.3     1  UNL1       -0.3299
     13 C          -0.4447    0.5593    0.6796 C.3     1  UNL1        0.0867
     14 C          -1.3838   -0.3640   -0.0549 C.ar    1  UNL1        0.1342
     15 N          -1.3679   -1.6784    0.2714 N.ar    1  UNL1       -0.2315
     16 C          -2.1110   -2.6050   -0.3400 C.ar    1  UNL1        0.0796
     17 C          -2.0569   -3.9318    0.0324 C.ar    1  UNL1       -0.0172
     18 C          -2.8394   -4.8629   -0.6229 C.ar    1  UNL1        0.0430
     19 CL         -2.8105   -6.5642   -0.1857 Cl      1  UNL1       -0.0835
     20 C          -3.6528   -4.4113   -1.6379 C.ar    1  UNL1       -0.0425
     21 C          -3.6996   -3.0705   -2.0056 C.ar    1  UNL1       -0.0460
     22 C          -2.9185   -2.1359   -1.3522 C.ar    1  UNL1        0.0650
     23 C          -2.9283   -0.8002   -1.6762 C.ar    1  UNL1        0.2621
     24 O          -3.6856   -0.4403   -2.6115 O.2     1  UNL1       -0.2669
     25 N          -2.1541    0.1211   -1.0258 N.ar    1  UNL1       -0.2903
     26 C          -2.2587    1.4632   -1.4880 C.3     1  UNL1        0.0528
     27 C          -3.3271    2.2847   -0.8692 C.ar    1  UNL1       -0.0276
     28 C          -4.5843    2.4179   -1.4809 C.ar    1  UNL1       -0.0569
     29 C          -5.6104    3.1634   -0.9801 C.ar    1  UNL1       -0.0614
     30 C          -5.4376    3.8427    0.1982 C.ar    1  UNL1       -0.0617
     31 C          -4.2314    3.7595    0.8542 C.ar    1  UNL1       -0.0614
     32 C          -3.1975    2.9840    0.3114 C.ar    1  UNL1       -0.0569
     33 C          -0.8031    0.7122    2.0800 C.3     1  UNL1       -0.0210
     34 C          -0.7398   -0.4347    3.0142 C.3     1  UNL1       -0.0606
     35 C           0.0470    1.8537    2.6736 C.3     1  UNL1       -0.0606
     36 C           4.1669    1.3384   -0.6396 C.ar    1  UNL1       -0.0494
     37 C           5.3527    1.0773   -1.2880 C.ar    1  UNL1       -0.0581
     38 H           6.3808   -0.5035   -4.1372 H       1  UNL1        0.0278
     39 H           7.0956    0.9788   -3.4118 H       1  UNL1        0.0278
     40 H           7.3241   -0.5794   -2.5671 H       1  UNL1        0.0278
     41 H           4.2050   -0.7923   -3.8171 H       1  UNL1        0.0620
     42 H           2.0687   -0.3060   -2.6440 H       1  UNL1        0.0625
     43 H           0.8384   -1.9213    0.6927 H       1  UNL1        0.0465
     44 H           2.0454   -1.3124   -0.5206 H       1  UNL1        0.0465
     45 H           3.6335   -0.7024    1.1392 H       1  UNL1        0.0293
     46 H           3.0667   -2.3544    1.4050 H       1  UNL1        0.0293
     47 H           1.7145   -1.7716    3.2511 H       1  UNL1        0.0422
     48 H           2.0865   -0.0239    3.1325 H       1  UNL1        0.0422
     49 H           3.8685   -2.3108    3.6220 H       1  UNL1        0.1182
     50 H           3.4850   -1.0224    4.6473 H       1  UNL1        0.1182
     51 H          -0.5735    1.5770    0.1885 H       1  UNL1        0.0584
     52 H          -1.4140   -4.2871    0.8324 H       1  UNL1        0.0653
     53 H          -4.2561   -5.1525   -2.1415 H       1  UNL1        0.0632
     54 H          -4.3364   -2.7178   -2.8023 H       1  UNL1        0.0626
     55 H          -2.5680    1.4052   -2.5958 H       1  UNL1        0.0543
     56 H          -1.3079    2.0283   -1.5715 H       1  UNL1        0.0543
     57 H          -4.7595    1.9155   -2.4214 H       1  UNL1        0.0621
     58 H          -6.5789    3.2378   -1.4949 H       1  UNL1        0.0618
     59 H          -6.2460    4.4445    0.6133 H       1  UNL1        0.0618
     60 H          -4.0717    4.2944    1.7963 H       1  UNL1        0.0618
     61 H          -2.2676    2.9496    0.8327 H       1  UNL1        0.0621
     62 H          -1.8639    1.1206    2.2043 H       1  UNL1        0.0318
     63 H          -0.1234   -0.2294    3.9187 H       1  UNL1        0.0233
     64 H          -1.7740   -0.5929    3.4582 H       1  UNL1        0.0233
     65 H          -0.5263   -1.4251    2.5478 H       1  UNL1        0.0233
     66 H           0.2965    1.6226    3.7502 H       1  UNL1        0.0233
     67 H           1.0224    1.9267    2.1533 H       1  UNL1        0.0233
     68 H          -0.4867    2.8078    2.6968 H       1  UNL1        0.0233
     69 H           4.1282    1.9430    0.2660 H       1  UNL1        0.0625
     70 H           6.2796    1.4721   -0.9058 H       1  UNL1        0.0620
@<TRIPOS>BOND
     1     1     2    1
     2     2     3   ar
     3     3     4   ar
     4     4     5   ar
     5     5     6    1
     6     6     7    2
     7     6     8   am
     8     8     9    1
     9     9    10    1
    10    10    11    1
    11    11    12    1
    12     8    13    1
    13    13    14    1
    14    14    15   ar
    15    15    16   ar
    16    16    17   ar
    17    17    18   ar
    18    18    19    1
    19    18    20   ar
    20    20    21   ar
    21    21    22   ar
    22    22    23   ar
    23    23    24    2
    24    23    25   ar
    25    25    26    1
    26    26    27    1
    27    27    28   ar
    28    28    29   ar
    29    29    30   ar
    30    30    31   ar
    31    31    32   ar
    32    13    33    1
    33    33    34    1
    34    33    35    1
    35     5    36   ar
    36    36    37   ar
    37    37     2   ar
    38    25    14   ar
    39    32    27   ar
    40    22    16   ar
    41     1    38    1
    42     1    39    1
    43     1    40    1
    44     3    41    1
    45     4    42    1
    46     9    43    1
    47     9    44    1
    48    10    45    1
    49    10    46    1
    50    11    47    1
    51    11    48    1
    52    12    49    1
    53    12    50    1
    54    13    51    1
    55    17    52    1
    56    20    53    1
    57    21    54    1
    58    26    55    1
    59    26    56    1
    60    28    57    1
    61    29    58    1
    62    30    59    1
    63    31    60    1
    64    32    61    1
    65    33    62    1
    66    34    63    1
    67    34    64    1
    68    34    65    1
    69    35    66    1
    70    35    67    1
    71    35    68    1
    72    36    69    1
    73    37    70    1
