@<TRIPOS>MOLECULE
*****
 71 76 0 0 0
SMALL
GASTEIGER

@<TRIPOS>ATOM
      1 C          -8.2859    2.7584    0.4921 C.3     1  UNL1        0.0032
      2 N          -7.0504    2.2563   -0.0543 N.am    1  UNL1       -0.3024
      3 C          -7.1316    1.5646   -1.3307 C.3     1  UNL1        0.0032
      4 C          -5.8483    2.4538    0.6637 C.2     1  UNL1        0.2627
      5 O          -5.9525    3.0820    1.7828 O.2     1  UNL1       -0.2684
      6 C          -4.5313    1.9984    0.2231 C.ar    1  UNL1        0.1070
      7 C          -3.5072    2.8701   -0.1391 C.ar    1  UNL1       -0.0209
      8 C          -2.3921    2.1471   -0.4985 C.ar    1  UNL1        0.0378
      9 C          -1.0999    2.4291   -0.9346 C.ar    1  UNL1        0.0419
     10 N          -0.2465    1.4300   -1.1981 N.ar    1  UNL1       -0.2219
     11 C          -0.5785    0.1387   -1.0615 C.ar    1  UNL1        0.2224
     12 N           0.3250   -0.9242   -1.3137 N.pl3   1  UNL1       -0.2684
     13 C           1.7124   -0.8441   -1.0466 C.ar    1  UNL1        0.1251
     14 C           2.3239    0.2193   -0.4525 C.ar    1  UNL1       -0.0197
     15 C           3.6806    0.1898   -0.2318 C.ar    1  UNL1       -0.0355
     16 C           4.4542   -0.8982   -0.5978 C.ar    1  UNL1        0.0545
     17 N           5.8498   -0.8809   -0.3089 N.am    1  UNL1       -0.2685
     18 C           6.6489   -0.2102   -1.3216 C.3     1  UNL1        0.0352
     19 C           7.6179    0.7365   -0.6090 C.3     1  UNL1        0.0241
     20 C           8.9032    0.0170   -0.3790 C.3     1  UNL1       -0.0347
     21 C           9.1751    0.2462    1.0866 C.3     1  UNL1       -0.0356
     22 C           7.7806    0.2771    1.6779 C.3     1  UNL1        0.0162
     23 C           7.3093   -1.1548    1.8082 C.3     1  UNL1        0.0399
     24 C           6.1959   -1.4927    0.9023 C.2     1  UNL1        0.2213
     25 O           5.4848   -2.4538    1.2872 O.2     1  UNL1       -0.2752
     26 N           7.0510    1.0289    0.6947 N.3     1  UNL1       -0.3086
     27 C           3.8023   -1.9507   -1.1954 C.ar    1  UNL1        0.0511
     28 N           2.4877   -1.9044   -1.4011 N.ar    1  UNL1       -0.2383
     29 N          -1.8405   -0.1116   -0.6357 N.ar    1  UNL1       -0.1962
     30 C          -2.7514    0.8253   -0.3509 C.ar    1  UNL1        0.1466
     31 N          -4.0484    0.7666    0.0869 N.ar    1  UNL1       -0.3180
     32 C          -4.7119   -0.4862    0.3586 C.3     1  UNL1        0.0366
     33 C          -4.0314   -1.6245   -0.4150 C.3     1  UNL1       -0.0320
     34 C          -4.9653   -2.8357   -0.3032 C.3     1  UNL1       -0.0512
     35 C          -5.8167   -2.7637    0.9268 C.3     1  UNL1       -0.0529
     36 C          -5.1481   -2.1659    2.1246 C.3     1  UNL1       -0.0512
     37 C          -4.4718   -0.8436    1.8321 C.3     1  UNL1       -0.0320
     38 H          -8.5194    2.3161    1.4880 H       1  UNL1        0.0428
     39 H          -8.1692    3.8512    0.6303 H       1  UNL1        0.0428
     40 H          -9.1048    2.5689   -0.2132 H       1  UNL1        0.0428
     41 H          -6.1264    1.5629   -1.7792 H       1  UNL1        0.0428
     42 H          -7.8942    2.0418   -1.9840 H       1  UNL1        0.0428
     43 H          -7.4498    0.4982   -1.2062 H       1  UNL1        0.0428
     44 H          -3.5548    3.9679   -0.1465 H       1  UNL1        0.0647
     45 H          -0.8110    3.4575   -1.0530 H       1  UNL1        0.0838
     46 H          -0.0470   -1.8135   -1.7181 H       1  UNL1        0.1564
     47 H           1.7365    1.0821   -0.1503 H       1  UNL1        0.0652
     48 H           4.1751    1.0290    0.2384 H       1  UNL1        0.0638
     49 H           6.0054    0.3199   -2.0446 H       1  UNL1        0.0484
     50 H           7.2528   -0.9374   -1.8743 H       1  UNL1        0.0484
     51 H           7.7194    1.6733   -1.2041 H       1  UNL1        0.0476
     52 H           8.7787   -1.0688   -0.5710 H       1  UNL1        0.0281
     53 H           9.7501    0.4071   -0.9598 H       1  UNL1        0.0281
     54 H           9.7100    1.2024    1.2216 H       1  UNL1        0.0281
     55 H           9.7172   -0.6044    1.5626 H       1  UNL1        0.0281
     56 H           7.7758    0.7996    2.6651 H       1  UNL1        0.0465
     57 H           6.9660   -1.2908    2.8553 H       1  UNL1        0.0374
     58 H           8.1270   -1.8822    1.6366 H       1  UNL1        0.0374
     59 H           7.1991    2.0368    0.8910 H       1  UNL1        0.1225
     60 H           4.3987   -2.8322   -1.4961 H       1  UNL1        0.0849
     61 H          -5.7619   -0.5360    0.0982 H       1  UNL1        0.0528
     62 H          -3.8171   -1.3495   -1.4516 H       1  UNL1        0.0285
     63 H          -3.1284   -1.9116    0.1682 H       1  UNL1        0.0285
     64 H          -4.3406   -3.7523   -0.3193 H       1  UNL1        0.0266
     65 H          -5.6313   -2.8865   -1.2035 H       1  UNL1        0.0266
     66 H          -6.7503   -2.2260    0.6730 H       1  UNL1        0.0265
     67 H          -6.0921   -3.8092    1.1874 H       1  UNL1        0.0265
     68 H          -5.9382   -1.9369    2.8792 H       1  UNL1        0.0266
     69 H          -4.4392   -2.8518    2.6042 H       1  UNL1        0.0266
     70 H          -4.7617   -0.0389    2.5105 H       1  UNL1        0.0285
     71 H          -3.3675   -0.9763    1.9153 H       1  UNL1        0.0285
@<TRIPOS>BOND
     1     1     2    1
     2     2     3    1
     3     2     4   am
     4     4     5    2
     5     4     6    1
     6     6     7   ar
     7     7     8   ar
     8     8     9   ar
     9     9    10   ar
    10    10    11   ar
    11    11    12    1
    12    12    13    1
    13    13    14   ar
    14    14    15   ar
    15    15    16   ar
    16    16    17    1
    17    17    18    1
    18    18    19    1
    19    19    20    1
    20    20    21    1
    21    21    22    1
    22    22    23    1
    23    23    24    1
    24    24    25    2
    25    22    26    1
    26    16    27   ar
    27    27    28   ar
    28    11    29   ar
    29    29    30   ar
    30    30    31   ar
    31    31    32    1
    32    32    33    1
    33    33    34    1
    34    34    35    1
    35    35    36    1
    36    36    37    1
    37    31     6   ar
    38    37    32    1
    39    30     8   ar
    40    28    13   ar
    41    24    17   am
    42    26    19    1
    43     1    38    1
    44     1    39    1
    45     1    40    1
    46     3    41    1
    47     3    42    1
    48     3    43    1
    49     7    44    1
    50     9    45    1
    51    12    46    1
    52    14    47    1
    53    15    48    1
    54    18    49    1
    55    18    50    1
    56    19    51    1
    57    20    52    1
    58    20    53    1
    59    21    54    1
    60    21    55    1
    61    22    56    1
    62    23    57    1
    63    23    58    1
    64    26    59    1
    65    27    60    1
    66    32    61    1
    67    33    62    1
    68    33    63    1
    69    34    64    1
    70    34    65    1
    71    35    66    1
    72    35    67    1
    73    36    68    1
    74    36    69    1
    75    37    70    1
    76    37    71    1
