@<TRIPOS>MOLECULE
*****
 43 46 0 0 0
SMALL
GASTEIGER

@<TRIPOS>ATOM
      1 C          -1.7770   -2.9213    2.3401 C.3     1  UNL1       -0.0372
      2 C          -0.8302   -2.5466    1.2477 C.3     1  UNL1        0.0716
      3 C          -0.4138   -1.0711    1.3608 C.3     1  UNL1        0.0402
      4 N          -0.3246   -0.6009    0.0005 N.pl3   1  UNL1       -0.3034
      5 C           0.9152   -0.1875   -0.5223 C.ar    1  UNL1        0.1242
      6 C           1.1124    0.2485   -1.8157 C.ar    1  UNL1       -0.0181
      7 C           2.3674    0.6304   -2.2322 C.ar    1  UNL1       -0.0132
      8 C           3.4255    0.5763   -1.3549 C.ar    1  UNL1        0.1612
      9 C           3.2083    0.1354   -0.0586 C.ar    1  UNL1        0.1692
     10 N           1.9923   -0.2234    0.3080 N.ar    1  UNL1       -0.2134
     11 N           4.2836    0.0626    0.8914 N.am    1  UNL1       -0.2646
     12 C           5.5656    0.4644    0.4280 C.2     1  UNL1        0.2560
     13 O           6.5942    0.0535    0.9900 O.2     1  UNL1       -0.2717
     14 C           5.6137    1.3826   -0.7395 C.3     1  UNL1        0.1657
     15 O           4.7031    0.9465   -1.7185 O.3     1  UNL1       -0.4793
     16 C          -1.5325   -0.5793   -0.7857 C.3     1  UNL1        0.0734
     17 C          -2.3681    0.6307   -0.5489 C.ar    1  UNL1       -0.0249
     18 C          -3.7569    0.5462   -0.4246 C.ar    1  UNL1       -0.0567
     19 C          -4.5307    1.6658   -0.2007 C.ar    1  UNL1       -0.0614
     20 C          -3.9481    2.9103   -0.0927 C.ar    1  UNL1       -0.0617
     21 C          -2.5915    3.0305   -0.2092 C.ar    1  UNL1       -0.0614
     22 C          -1.8174    1.8863   -0.4363 C.ar    1  UNL1       -0.0567
     23 C          -2.3056   -1.8365   -0.3706 C.3     1  UNL1        0.0707
     24 O          -1.3743   -2.7917   -0.0141 O.3     1  UNL1       -0.3731
     25 H          -1.3383   -3.7181    2.9826 H       1  UNL1        0.0255
     26 H          -1.9824   -2.0538    2.9792 H       1  UNL1        0.0255
     27 H          -2.7357   -3.2666    1.9074 H       1  UNL1        0.0255
     28 H           0.1105   -3.1334    1.3265 H       1  UNL1        0.0609
     29 H          -1.1706   -0.5092    1.9462 H       1  UNL1        0.0490
     30 H           0.5344   -0.9937    1.9046 H       1  UNL1        0.0490
     31 H           0.2711    0.2854   -2.4877 H       1  UNL1        0.0653
     32 H           2.4965    0.9677   -3.2483 H       1  UNL1        0.0656
     33 H           4.1252   -0.2684    1.8675 H       1  UNL1        0.1564
     34 H           6.6513    1.4319   -1.1025 H       1  UNL1        0.0795
     35 H           5.2875    2.3879   -0.3423 H       1  UNL1        0.0795
     36 H          -1.3623   -0.6984   -1.8742 H       1  UNL1        0.0573
     37 H          -4.2385   -0.4069   -0.5054 H       1  UNL1        0.0621
     38 H          -5.6143    1.5687   -0.1078 H       1  UNL1        0.0618
     39 H          -4.5248    3.8037    0.0819 H       1  UNL1        0.0618
     40 H          -2.1067    3.9778   -0.1311 H       1  UNL1        0.0618
     41 H          -0.7518    2.0107   -0.5221 H       1  UNL1        0.0621
     42 H          -2.9621   -1.6220    0.4981 H       1  UNL1        0.0582
     43 H          -2.8997   -2.1747   -1.2146 H       1  UNL1        0.0582
@<TRIPOS>BOND
     1     1     2    1
     2     2     3    1
     3     3     4    1
     4     4     5    1
     5     5     6   ar
     6     6     7   ar
     7     7     8   ar
     8     8     9   ar
     9     9    10   ar
    10     9    11    1
    11    11    12   am
    12    12    13    2
    13    12    14    1
    14    14    15    1
    15     4    16    1
    16    16    17    1
    17    17    18   ar
    18    18    19   ar
    19    19    20   ar
    20    20    21   ar
    21    21    22   ar
    22    16    23    1
    23    23    24    1
    24    24     2    1
    25    10     5   ar
    26    22    17   ar
    27    15     8    1
    28     1    25    1
    29     1    26    1
    30     1    27    1
    31     2    28    1
    32     3    29    1
    33     3    30    1
    34     6    31    1
    35     7    32    1
    36    11    33    1
    37    14    34    1
    38    14    35    1
    39    16    36    1
    40    18    37    1
    41    19    38    1
    42    20    39    1
    43    21    40    1
    44    22    41    1
    45    23    42    1
    46    23    43    1
