
     RDKit          3D

 43 46  0  0  0  0  0  0  0  0999 V2000
   -1.7770   -2.9213    2.3401 C   0  0  0  0  0  0  0  0  0  0  0  0
   -0.8302   -2.5466    1.2477 C   0  0  2  0  0  0  0  0  0  0  0  0
   -0.4138   -1.0711    1.3608 C   0  0  0  0  0  0  0  0  0  0  0  0
   -0.3246   -0.6009    0.0005 N   0  0  0  0  0  0  0  0  0  0  0  0
    0.9152   -0.1875   -0.5223 C   0  0  0  0  0  0  0  0  0  0  0  0
    1.1124    0.2485   -1.8157 C   0  0  0  0  0  0  0  0  0  0  0  0
    2.3674    0.6304   -2.2322 C   0  0  0  0  0  0  0  0  0  0  0  0
    3.4255    0.5763   -1.3549 C   0  0  0  0  0  0  0  0  0  0  0  0
    3.2083    0.1354   -0.0586 C   0  0  0  0  0  0  0  0  0  0  0  0
    1.9923   -0.2234    0.3080 N   0  0  0  0  0  0  0  0  0  0  0  0
    4.2836    0.0626    0.8914 N   0  0  0  0  0  0  0  0  0  0  0  0
    5.5656    0.4644    0.4280 C   0  0  0  0  0  0  0  0  0  0  0  0
    6.5942    0.0535    0.9900 O   0  0  0  0  0  0  0  0  0  0  0  0
    5.6137    1.3826   -0.7395 C   0  0  0  0  0  0  0  0  0  0  0  0
    4.7031    0.9465   -1.7185 O   0  0  0  0  0  0  0  0  0  0  0  0
   -1.5325   -0.5793   -0.7857 C   0  0  2  0  0  0  0  0  0  0  0  0
   -2.3681    0.6307   -0.5489 C   0  0  0  0  0  0  0  0  0  0  0  0
   -3.7569    0.5462   -0.4246 C   0  0  0  0  0  0  0  0  0  0  0  0
   -4.5307    1.6658   -0.2007 C   0  0  0  0  0  0  0  0  0  0  0  0
   -3.9481    2.9103   -0.0927 C   0  0  0  0  0  0  0  0  0  0  0  0
   -2.5915    3.0305   -0.2092 C   0  0  0  0  0  0  0  0  0  0  0  0
   -1.8174    1.8863   -0.4363 C   0  0  0  0  0  0  0  0  0  0  0  0
   -2.3056   -1.8365   -0.3706 C   0  0  0  0  0  0  0  0  0  0  0  0
   -1.3743   -2.7917   -0.0141 O   0  0  0  0  0  0  0  0  0  0  0  0
   -1.3383   -3.7181    2.9826 H   0  0  0  0  0  0  0  0  0  0  0  0
   -1.9824   -2.0538    2.9792 H   0  0  0  0  0  0  0  0  0  0  0  0
   -2.7357   -3.2666    1.9074 H   0  0  0  0  0  0  0  0  0  0  0  0
    0.1105   -3.1334    1.3265 H   0  0  0  0  0  0  0  0  0  0  0  0
   -1.1706   -0.5092    1.9462 H   0  0  0  0  0  0  0  0  0  0  0  0
    0.5344   -0.9937    1.9046 H   0  0  0  0  0  0  0  0  0  0  0  0
    0.2711    0.2854   -2.4877 H   0  0  0  0  0  0  0  0  0  0  0  0
    2.4965    0.9677   -3.2483 H   0  0  0  0  0  0  0  0  0  0  0  0
    4.1252   -0.2684    1.8675 H   0  0  0  0  0  0  0  0  0  0  0  0
    6.6513    1.4319   -1.1025 H   0  0  0  0  0  0  0  0  0  0  0  0
    5.2875    2.3879   -0.3423 H   0  0  0  0  0  0  0  0  0  0  0  0
   -1.3623   -0.6984   -1.8742 H   0  0  0  0  0  0  0  0  0  0  0  0
   -4.2385   -0.4069   -0.5054 H   0  0  0  0  0  0  0  0  0  0  0  0
   -5.6143    1.5687   -0.1078 H   0  0  0  0  0  0  0  0  0  0  0  0
   -4.5248    3.8037    0.0819 H   0  0  0  0  0  0  0  0  0  0  0  0
   -2.1067    3.9778   -0.1311 H   0  0  0  0  0  0  0  0  0  0  0  0
   -0.7518    2.0107   -0.5221 H   0  0  0  0  0  0  0  0  0  0  0  0
   -2.9621   -1.6220    0.4981 H   0  0  0  0  0  0  0  0  0  0  0  0
   -2.8997   -2.1747   -1.2146 H   0  0  0  0  0  0  0  0  0  0  0  0
  1  2  1  0
  2  3  1  0
  3  4  1  0
  4  5  1  0
  5  6  2  0
  6  7  1  0
  7  8  2  0
  8  9  1  0
  9 10  2  0
  9 11  1  0
 11 12  1  0
 12 13  2  0
 12 14  1  0
 14 15  1  0
  4 16  1  0
 16 17  1  0
 17 18  2  0
 18 19  1  0
 19 20  2  0
 20 21  1  0
 21 22  2  0
 16 23  1  0
 23 24  1  0
 24  2  1  0
 10  5  1  0
 22 17  1  0
 15  8  1  0
  1 25  1  0
  1 26  1  0
  1 27  1  0
  2 28  1  1
  3 29  1  0
  3 30  1  0
  6 31  1  0
  7 32  1  0
 11 33  1  0
 14 34  1  0
 14 35  1  0
 16 36  1  6
 18 37  1  0
 19 38  1  0
 20 39  1  0
 21 40  1  0
 22 41  1  0
 23 42  1  0
 23 43  1  0
M  END
$$$$
