
     RDKit          3D

 25 25  0  0  0  0  0  0  0  0999 V2000
   -4.9155    0.3247   -0.0180 C   0  0  0  0  0  0  0  0  0  0  0  0
   -3.9669   -0.7011    0.0733 O   0  0  0  0  0  0  0  0  0  0  0  0
   -2.5988   -0.4607    0.0103 C   0  0  0  0  0  0  0  0  0  0  0  0
   -1.7194   -1.5151    0.1067 C   0  0  0  0  0  0  0  0  0  0  0  0
   -0.3293   -1.3071    0.0468 C   0  0  0  0  0  0  0  0  0  0  0  0
    0.1500   -0.0443   -0.1087 C   0  0  0  0  0  0  0  0  0  0  0  0
    1.5825    0.2093   -0.1749 C   0  0  0  0  0  0  0  0  0  0  0  0
    2.4517   -0.7451   -0.0895 C   0  0  0  0  0  0  0  0  0  0  0  0
    3.8893   -0.4379   -0.1619 C   0  0  0  0  0  0  0  0  0  0  0  0
    4.7414   -1.3718   -0.0784 O   0  0  0  0  0  0  0  0  0  0  0  0
    4.3561    0.8781   -0.3231 N   0  0  0  0  0  0  0  0  0  0  0  0
    5.7061    1.0835   -0.3816 O   0  0  0  0  0  0  0  0  0  0  0  0
   -0.7518    1.0135   -0.2049 C   0  0  0  0  0  0  0  0  0  0  0  0
   -2.0984    0.8154   -0.1473 C   0  0  0  0  0  0  0  0  0  0  0  0
   -4.8829    0.8957   -0.9557 H   0  0  0  0  0  0  0  0  0  0  0  0
   -4.7598    0.9967    0.8589 H   0  0  0  0  0  0  0  0  0  0  0  0
   -5.9262   -0.1448    0.1109 H   0  0  0  0  0  0  0  0  0  0  0  0
   -2.0145   -2.5451    0.2311 H   0  0  0  0  0  0  0  0  0  0  0  0
    0.3284   -2.1735    0.1277 H   0  0  0  0  0  0  0  0  0  0  0  0
    1.8890    1.2434   -0.3000 H   0  0  0  0  0  0  0  0  0  0  0  0
    2.1660   -1.8041    0.0378 H   0  0  0  0  0  0  0  0  0  0  0  0
    3.7435    1.7147   -0.4018 H   0  0  0  0  0  0  0  0  0  0  0  0
    6.1361    0.4223    0.2036 H   0  0  0  0  0  0  0  0  0  0  0  0
   -0.3530    2.0084   -0.3280 H   0  0  0  0  0  0  0  0  0  0  0  0
   -2.8235    1.6447   -0.2222 H   0  0  0  0  0  0  0  0  0  0  0  0
  1  2  1  0
  2  3  1  0
  3  4  2  0
  4  5  1  0
  5  6  2  0
  6  7  1  0
  7  8  2  0
  8  9  1  0
  9 10  2  0
  9 11  1  0
 11 12  1  0
  6 13  1  0
 13 14  2  0
 14  3  1  0
  1 15  1  0
  1 16  1  0
  1 17  1  0
  4 18  1  0
  5 19  1  0
  7 20  1  0
  8 21  1  0
 11 22  1  0
 12 23  1  0
 13 24  1  0
 14 25  1  0
M  END
$$$$
