@<TRIPOS>MOLECULE
*****
 25 25 0 0 0
SMALL
GASTEIGER

@<TRIPOS>ATOM
      1 C          -4.9155    0.3247   -0.0180 C.3     1  UNL1        0.0788
      2 O          -3.9669   -0.7011    0.0733 O.3     1  UNL1       -0.4951
      3 C          -2.5988   -0.4607    0.0103 C.ar    1  UNL1        0.1201
      4 C          -1.7194   -1.5151    0.1067 C.ar    1  UNL1       -0.0194
      5 C          -0.3293   -1.3071    0.0468 C.ar    1  UNL1       -0.0511
      6 C           0.1500   -0.0443   -0.1087 C.ar    1  UNL1       -0.0246
      7 C           1.5825    0.2093   -0.1749 C.2     1  UNL1       -0.0496
      8 C           2.4517   -0.7451   -0.0895 C.2     1  UNL1        0.0027
      9 C           3.8893   -0.4379   -0.1619 C.2     1  UNL1        0.2593
     10 O           4.7414   -1.3718   -0.0784 O.2     1  UNL1       -0.2687
     11 N           4.3561    0.8781   -0.3231 N.am    1  UNL1       -0.1940
     12 O           5.7061    1.0835   -0.3816 O.3     1  UNL1       -0.2949
     13 C          -0.7518    1.0135   -0.2049 C.ar    1  UNL1       -0.0511
     14 C          -2.0984    0.8154   -0.1473 C.ar    1  UNL1       -0.0194
     15 H          -4.8829    0.8957   -0.9557 H       1  UNL1        0.0660
     16 H          -4.7598    0.9967    0.8589 H       1  UNL1        0.0660
     17 H          -5.9262   -0.1448    0.1109 H       1  UNL1        0.0660
     18 H          -2.0145   -2.5451    0.2311 H       1  UNL1        0.0654
     19 H           0.3284   -2.1735    0.1277 H       1  UNL1        0.0625
     20 H           1.8890    1.2434   -0.3000 H       1  UNL1        0.0625
     21 H           2.1660   -1.8041    0.0378 H       1  UNL1        0.0670
     22 H           3.7435    1.7147   -0.4018 H       1  UNL1        0.1825
     23 H           6.1361    0.4223    0.2036 H       1  UNL1        0.2414
     24 H          -0.3530    2.0084   -0.3280 H       1  UNL1        0.0625
     25 H          -2.8235    1.6447   -0.2222 H       1  UNL1        0.0654
@<TRIPOS>BOND
     1     1     2    1
     2     2     3    1
     3     3     4   ar
     4     4     5   ar
     5     5     6   ar
     6     6     7    1
     7     7     8    2
     8     8     9    1
     9     9    10    2
    10     9    11   am
    11    11    12    1
    12     6    13   ar
    13    13    14   ar
    14    14     3   ar
    15     1    15    1
    16     1    16    1
    17     1    17    1
    18     4    18    1
    19     5    19    1
    20     7    20    1
    21     8    21    1
    22    11    22    1
    23    12    23    1
    24    13    24    1
    25    14    25    1
