@<TRIPOS>MOLECULE
*****
 118 120 0 0 0
SMALL
GASTEIGER

@<TRIPOS>ATOM
      1 C           3.6683   -0.2196   -4.0502 C.3     1  UNL1       -0.0618
      2 C           4.1254   -0.4910   -2.6674 C.3     1  UNL1       -0.0157
      3 C           3.1288   -1.3596   -1.8263 C.3     1  UNL1        0.1335
      4 O           1.9086   -0.6797   -1.8117 O.3     1  UNL1       -0.4581
      5 C           1.6159    0.2329   -0.8311 C.2     1  UNL1        0.3128
      6 O           2.5366    0.4324    0.0461 O.2     1  UNL1       -0.2504
      7 C           0.4092    1.0435   -0.5928 C.3     1  UNL1        0.0801
      8 C           0.4141    2.1829   -1.5747 C.3     1  UNL1       -0.0499
      9 C           0.0841    1.3246    0.8167 C.3     1  UNL1        0.0793
     10 O          -0.6012    2.6058    0.7727 O.3     1  UNL1       -0.3468
     11 C           0.0587    3.5673    1.5197 C.3     1  UNL1        0.1627
     12 C           0.4415    4.6872    0.6328 C.3     1  UNL1        0.0298
     13 C           0.5635    6.0456    1.2498 C.3     1  UNL1        0.0991
     14 C           2.0261    6.4374    1.4442 C.3     1  UNL1       -0.0331
     15 O           0.0706    6.9694    0.2962 O.3     1  UNL1       -0.3740
     16 C           0.1231    8.2665    0.7381 C.3     1  UNL1        0.0373
     17 C          -0.2518    6.2347    2.4737 C.3     1  UNL1        0.1098
     18 O          -1.5876    6.4567    2.0633 O.3     1  UNL1       -0.3864
     19 C          -0.2947    4.9913    3.3247 C.3     1  UNL1        0.0874
     20 C           1.0195    4.7490    4.0384 C.3     1  UNL1       -0.0361
     21 O          -0.7283    3.9300    2.5961 O.3     1  UNL1       -0.3456
     22 C          -0.8625    0.4385    1.5355 C.3     1  UNL1        0.0124
     23 C          -1.0252    0.8629    2.9724 C.3     1  UNL1       -0.0576
     24 C          -1.0134   -1.0023    1.3917 C.3     1  UNL1        0.0951
     25 O          -1.3129   -1.3764    0.0744 O.3     1  UNL1       -0.3423
     26 C          -2.5852   -1.7855   -0.1870 C.3     1  UNL1        0.1871
     27 O          -2.6166   -3.1130   -0.5452 O.3     1  UNL1       -0.3457
     28 C          -2.7736   -3.2507   -1.9047 C.3     1  UNL1        0.0605
     29 C          -1.8269   -2.5142   -2.7721 C.3     1  UNL1       -0.0385
     30 C          -4.2259   -2.9752   -2.2372 C.3     1  UNL1       -0.0085
     31 C          -4.6674   -1.7849   -1.4477 C.3     1  UNL1        0.0429
     32 N          -5.6404   -0.9894   -2.1924 N.3     1  UNL1       -0.3027
     33 C          -6.7368   -1.8460   -2.6429 C.3     1  UNL1       -0.0127
     34 C          -6.2947   -0.0115   -1.3077 C.3     1  UNL1       -0.0127
     35 C          -3.4712   -0.9212   -1.0196 C.3     1  UNL1        0.1214
     36 O          -4.0860    0.0555   -0.1953 O.3     1  UNL1       -0.3852
     37 C          -0.1527   -2.0025    2.0641 C.3     1  UNL1        0.0903
     38 C          -0.7603   -3.3528    1.9826 C.3     1  UNL1       -0.0336
     39 O          -0.0173   -1.7029    3.4598 O.3     1  UNL1       -0.3863
     40 C           1.2536   -2.0522    1.5245 C.3     1  UNL1       -0.0125
     41 C           2.1636   -3.1211    1.9259 C.3     1  UNL1        0.0177
     42 C           2.3671   -3.3469    3.4003 C.3     1  UNL1       -0.0556
     43 C           2.1590   -4.3035    1.0670 C.2     1  UNL1        0.1416
     44 O           1.6214   -5.2724    1.6545 O.2     1  UNL1       -0.2967
     45 C           2.6258   -4.5832   -0.2684 C.3     1  UNL1        0.0437
     46 C           4.1570   -4.8090   -0.1430 C.3     1  UNL1       -0.0532
     47 C           2.3945   -3.8012   -1.4581 C.3     1  UNL1        0.0963
     48 O           1.0172   -3.5234   -1.7116 O.3     1  UNL1       -0.3881
     49 C           3.2542   -2.7834   -2.0620 C.3     1  UNL1        0.1262
     50 C           3.1842   -2.9886   -3.6221 C.3     1  UNL1       -0.0301
     51 O           4.6341   -3.1733   -1.8823 O.3     1  UNL1       -0.3826
     52 H           2.6764   -0.6209   -4.3296 H       1  UNL1        0.0231
     53 H           4.4582   -0.4239   -4.8396 H       1  UNL1        0.0231
     54 H           3.5214    0.9087   -4.2254 H       1  UNL1        0.0231
     55 H           5.1159   -0.9282   -2.6997 H       1  UNL1        0.0299
     56 H           4.2402    0.5036   -2.1454 H       1  UNL1        0.0299
     57 H           3.6105   -1.1455   -0.7932 H       1  UNL1        0.0764
     58 H          -0.4228    0.3770   -1.0584 H       1  UNL1        0.0436
     59 H           1.2726    2.8475   -1.5228 H       1  UNL1        0.0238
     60 H          -0.5349    2.7397   -1.4041 H       1  UNL1        0.0238
     61 H           0.3968    1.7430   -2.6103 H       1  UNL1        0.0238
     62 H           0.9647    1.5224    1.4117 H       1  UNL1        0.0608
     63 H           0.9768    3.1092    1.9549 H       1  UNL1        0.0911
     64 H          -0.2626    4.7321   -0.2220 H       1  UNL1        0.0343
     65 H           1.4468    4.4105    0.1777 H       1  UNL1        0.0343
     66 H           2.4024    7.0652    0.5991 H       1  UNL1        0.0258
     67 H           2.6726    5.5369    1.4830 H       1  UNL1        0.0258
     68 H           2.0907    7.0656    2.3550 H       1  UNL1        0.0258
     69 H           1.1488    8.6253    0.9872 H       1  UNL1        0.0524
     70 H          -0.5459    8.4923    1.5947 H       1  UNL1        0.0524
     71 H          -0.2352    8.9060   -0.0985 H       1  UNL1        0.0524
     72 H           0.1090    7.0559    3.1120 H       1  UNL1        0.0648
     73 H          -1.9788    5.6098    1.7505 H       1  UNL1        0.2100
     74 H          -1.0495    5.1827    4.1233 H       1  UNL1        0.0621
     75 H           1.3501    5.6782    4.5448 H       1  UNL1        0.0255
     76 H           1.8049    4.3301    3.3614 H       1  UNL1        0.0255
     77 H           0.8890    3.9932    4.8402 H       1  UNL1        0.0255
     78 H          -1.8867    0.8125    1.1025 H       1  UNL1        0.0349
     79 H          -1.4139    0.0201    3.6293 H       1  UNL1        0.0234
     80 H          -1.8737    1.6092    3.1149 H       1  UNL1        0.0234
     81 H          -0.1458    1.3530    3.3869 H       1  UNL1        0.0234
     82 H          -2.0157   -1.2069    1.9215 H       1  UNL1        0.0629
     83 H          -3.1016   -1.7599    0.8363 H       1  UNL1        0.0937
     84 H          -2.6551   -4.3624   -2.1720 H       1  UNL1        0.0595
     85 H          -1.1899   -3.2683   -3.3337 H       1  UNL1        0.0255
     86 H          -2.3921   -2.0119   -3.5908 H       1  UNL1        0.0255
     87 H          -1.1703   -1.7784   -2.2634 H       1  UNL1        0.0255
     88 H          -4.8213   -3.8495   -1.9196 H       1  UNL1        0.0306
     89 H          -4.2677   -2.8104   -3.3348 H       1  UNL1        0.0306
     90 H          -5.1608   -2.1230   -0.5262 H       1  UNL1        0.0490
     91 H          -6.5082   -2.3094   -3.6251 H       1  UNL1        0.0391
     92 H          -7.6062   -1.1801   -2.8139 H       1  UNL1        0.0391
     93 H          -7.0020   -2.5804   -1.8664 H       1  UNL1        0.0391
     94 H          -5.8409    0.9858   -1.3927 H       1  UNL1        0.0391
     95 H          -7.3637    0.1439   -1.6625 H       1  UNL1        0.0391
     96 H          -6.3410   -0.3496   -0.2650 H       1  UNL1        0.0391
     97 H          -3.0733   -0.4912   -1.9237 H       1  UNL1        0.0660
     98 H          -3.6550    0.9187   -0.4754 H       1  UNL1        0.2101
     99 H          -0.5642   -3.8479    1.0046 H       1  UNL1        0.0258
    100 H          -1.8910   -3.3353    2.0681 H       1  UNL1        0.0258
    101 H          -0.4837   -4.0193    2.8356 H       1  UNL1        0.0258
    102 H          -0.6921   -2.2380    3.9384 H       1  UNL1        0.2103
    103 H           1.7027   -1.0927    1.8971 H       1  UNL1        0.0300
    104 H           1.1076   -2.1186    0.4485 H       1  UNL1        0.0300
    105 H           3.2313   -2.6701    1.6839 H       1  UNL1        0.0376
    106 H           2.5726   -2.3608    3.8609 H       1  UNL1        0.0236
    107 H           3.3383   -3.9129    3.5426 H       1  UNL1        0.0236
    108 H           1.6185   -3.9373    3.9081 H       1  UNL1        0.0236
    109 H           2.2935   -5.6505   -0.5031 H       1  UNL1        0.0401
    110 H           4.3057   -5.6291    0.6435 H       1  UNL1        0.0237
    111 H           4.5821   -5.2565   -1.0454 H       1  UNL1        0.0237
    112 H           4.6667   -3.9520    0.2975 H       1  UNL1        0.0237
    113 H           2.4626   -4.6579   -2.2855 H       1  UNL1        0.0630
    114 H           0.9932   -2.7606   -2.3588 H       1  UNL1        0.2099
    115 H           4.0459   -2.6052   -4.1249 H       1  UNL1        0.0259
    116 H           2.1892   -2.8464   -4.0000 H       1  UNL1        0.0259
    117 H           3.3285   -4.1279   -3.6649 H       1  UNL1        0.0259
    118 H           5.0659   -2.4367   -1.4305 H       1  UNL1        0.2104
@<TRIPOS>BOND
     1     1     2    1
     2     2     3    1
     3     3     4    1
     4     4     5    1
     5     5     6    2
     6     5     7    1
     7     7     8    1
     8     7     9    1
     9     9    10    1
    10    10    11    1
    11    11    12    1
    12    12    13    1
    13    13    14    1
    14    13    15    1
    15    15    16    1
    16    13    17    1
    17    17    18    1
    18    17    19    1
    19    19    20    1
    20    19    21    1
    21     9    22    1
    22    22    23    1
    23    22    24    1
    24    24    25    1
    25    25    26    1
    26    26    27    1
    27    27    28    1
    28    28    29    1
    29    28    30    1
    30    30    31    1
    31    31    32    1
    32    32    33    1
    33    32    34    1
    34    31    35    1
    35    35    36    1
    36    24    37    1
    37    37    38    1
    38    37    39    1
    39    37    40    1
    40    40    41    1
    41    41    42    1
    42    41    43    1
    43    43    44    2
    44    43    45    1
    45    45    46    1
    46    45    47    1
    47    47    48    1
    48    47    49    1
    49    49    50    1
    50    49    51    1
    51    49     3    1
    52    21    11    1
    53    35    26    1
    54     1    52    1
    55     1    53    1
    56     1    54    1
    57     2    55    1
    58     2    56    1
    59     3    57    1
    60     7    58    1
    61     8    59    1
    62     8    60    1
    63     8    61    1
    64     9    62    1
    65    11    63    1
    66    12    64    1
    67    12    65    1
    68    14    66    1
    69    14    67    1
    70    14    68    1
    71    16    69    1
    72    16    70    1
    73    16    71    1
    74    17    72    1
    75    18    73    1
    76    19    74    1
    77    20    75    1
    78    20    76    1
    79    20    77    1
    80    22    78    1
    81    23    79    1
    82    23    80    1
    83    23    81    1
    84    24    82    1
    85    26    83    1
    86    28    84    1
    87    29    85    1
    88    29    86    1
    89    29    87    1
    90    30    88    1
    91    30    89    1
    92    31    90    1
    93    33    91    1
    94    33    92    1
    95    33    93    1
    96    34    94    1
    97    34    95    1
    98    34    96    1
    99    35    97    1
   100    36    98    1
   101    38    99    1
   102    38   100    1
   103    38   101    1
   104    39   102    1
   105    40   103    1
   106    40   104    1
   107    41   105    1
   108    42   106    1
   109    42   107    1
   110    42   108    1
   111    45   109    1
   112    46   110    1
   113    46   111    1
   114    46   112    1
   115    47   113    1
   116    48   114    1
   117    50   115    1
   118    50   116    1
   119    50   117    1
   120    51   118    1
