
     RDKit          3D

118120  0  0  0  0  0  0  0  0999 V2000
    3.6683   -0.2196   -4.0502 C   0  0  0  0  0  0  0  0  0  0  0  0
    4.1254   -0.4910   -2.6674 C   0  0  0  0  0  0  0  0  0  0  0  0
    3.1288   -1.3596   -1.8263 C   0  0  1  0  0  0  0  0  0  0  0  0
    1.9086   -0.6797   -1.8117 O   0  0  0  0  0  0  0  0  0  0  0  0
    1.6159    0.2329   -0.8311 C   0  0  0  0  0  0  0  0  0  0  0  0
    2.5366    0.4324    0.0461 O   0  0  0  0  0  0  0  0  0  0  0  0
    0.4092    1.0435   -0.5928 C   0  0  2  0  0  0  0  0  0  0  0  0
    0.4141    2.1829   -1.5747 C   0  0  0  0  0  0  0  0  0  0  0  0
    0.0841    1.3246    0.8167 C   0  0  1  0  0  0  0  0  0  0  0  0
   -0.6012    2.6058    0.7727 O   0  0  0  0  0  0  0  0  0  0  0  0
    0.0587    3.5673    1.5197 C   0  0  1  0  0  0  0  0  0  0  0  0
    0.4415    4.6872    0.6328 C   0  0  0  0  0  0  0  0  0  0  0  0
    0.5635    6.0456    1.2498 C   0  0  1  0  0  0  0  0  0  0  0  0
    2.0261    6.4374    1.4442 C   0  0  0  0  0  0  0  0  0  0  0  0
    0.0706    6.9694    0.2962 O   0  0  0  0  0  0  0  0  0  0  0  0
    0.1231    8.2665    0.7381 C   0  0  0  0  0  0  0  0  0  0  0  0
   -0.2518    6.2347    2.4737 C   0  0  1  0  0  0  0  0  0  0  0  0
   -1.5876    6.4567    2.0633 O   0  0  0  0  0  0  0  0  0  0  0  0
   -0.2947    4.9913    3.3247 C   0  0  2  0  0  0  0  0  0  0  0  0
    1.0195    4.7490    4.0384 C   0  0  0  0  0  0  0  0  0  0  0  0
   -0.7283    3.9300    2.5961 O   0  0  0  0  0  0  0  0  0  0  0  0
   -0.8625    0.4385    1.5355 C   0  0  2  0  0  0  0  0  0  0  0  0
   -1.0252    0.8629    2.9724 C   0  0  0  0  0  0  0  0  0  0  0  0
   -1.0134   -1.0023    1.3917 C   0  0  1  0  0  0  0  0  0  0  0  0
   -1.3129   -1.3764    0.0744 O   0  0  0  0  0  0  0  0  0  0  0  0
   -2.5852   -1.7855   -0.1870 C   0  0  2  0  0  0  0  0  0  0  0  0
   -2.6166   -3.1130   -0.5452 O   0  0  0  0  0  0  0  0  0  0  0  0
   -2.7736   -3.2507   -1.9047 C   0  0  2  0  0  0  0  0  0  0  0  0
   -1.8269   -2.5142   -2.7721 C   0  0  0  0  0  0  0  0  0  0  0  0
   -4.2259   -2.9752   -2.2372 C   0  0  0  0  0  0  0  0  0  0  0  0
   -4.6674   -1.7849   -1.4477 C   0  0  2  0  0  0  0  0  0  0  0  0
   -5.6404   -0.9894   -2.1924 N   0  0  0  0  0  0  0  0  0  0  0  0
   -6.7368   -1.8460   -2.6429 C   0  0  0  0  0  0  0  0  0  0  0  0
   -6.2947   -0.0115   -1.3077 C   0  0  0  0  0  0  0  0  0  0  0  0
   -3.4712   -0.9212   -1.0196 C   0  0  1  0  0  0  0  0  0  0  0  0
   -4.0860    0.0555   -0.1953 O   0  0  0  0  0  0  0  0  0  0  0  0
   -0.1527   -2.0025    2.0641 C   0  0  2  0  0  0  0  0  0  0  0  0
   -0.7603   -3.3528    1.9826 C   0  0  0  0  0  0  0  0  0  0  0  0
   -0.0173   -1.7029    3.4598 O   0  0  0  0  0  0  0  0  0  0  0  0
    1.2536   -2.0522    1.5245 C   0  0  0  0  0  0  0  0  0  0  0  0
    2.1636   -3.1211    1.9259 C   0  0  1  0  0  0  0  0  0  0  0  0
    2.3671   -3.3469    3.4003 C   0  0  0  0  0  0  0  0  0  0  0  0
    2.1590   -4.3035    1.0670 C   0  0  0  0  0  0  0  0  0  0  0  0
    1.6214   -5.2724    1.6545 O   0  0  0  0  0  0  0  0  0  0  0  0
    2.6258   -4.5832   -0.2684 C   0  0  2  0  0  0  0  0  0  0  0  0
    4.1570   -4.8090   -0.1430 C   0  0  0  0  0  0  0  0  0  0  0  0
    2.3945   -3.8012   -1.4581 C   0  0  1  0  0  0  0  0  0  0  0  0
    1.0172   -3.5234   -1.7116 O   0  0  0  0  0  0  0  0  0  0  0  0
    3.2542   -2.7834   -2.0620 C   0  0  1  0  0  0  0  0  0  0  0  0
    3.1842   -2.9886   -3.6221 C   0  0  0  0  0  0  0  0  0  0  0  0
    4.6341   -3.1733   -1.8823 O   0  0  0  0  0  0  0  0  0  0  0  0
    2.6764   -0.6209   -4.3296 H   0  0  0  0  0  0  0  0  0  0  0  0
    4.4582   -0.4239   -4.8396 H   0  0  0  0  0  0  0  0  0  0  0  0
    3.5214    0.9087   -4.2254 H   0  0  0  0  0  0  0  0  0  0  0  0
    5.1159   -0.9282   -2.6997 H   0  0  0  0  0  0  0  0  0  0  0  0
    4.2402    0.5036   -2.1454 H   0  0  0  0  0  0  0  0  0  0  0  0
    3.6105   -1.1455   -0.7932 H   0  0  0  0  0  0  0  0  0  0  0  0
   -0.4228    0.3770   -1.0584 H   0  0  0  0  0  0  0  0  0  0  0  0
    1.2726    2.8475   -1.5228 H   0  0  0  0  0  0  0  0  0  0  0  0
   -0.5349    2.7397   -1.4041 H   0  0  0  0  0  0  0  0  0  0  0  0
    0.3968    1.7430   -2.6103 H   0  0  0  0  0  0  0  0  0  0  0  0
    0.9647    1.5224    1.4117 H   0  0  0  0  0  0  0  0  0  0  0  0
    0.9768    3.1092    1.9549 H   0  0  0  0  0  0  0  0  0  0  0  0
   -0.2626    4.7321   -0.2220 H   0  0  0  0  0  0  0  0  0  0  0  0
    1.4468    4.4105    0.1777 H   0  0  0  0  0  0  0  0  0  0  0  0
    2.4024    7.0652    0.5991 H   0  0  0  0  0  0  0  0  0  0  0  0
    2.6726    5.5369    1.4830 H   0  0  0  0  0  0  0  0  0  0  0  0
    2.0907    7.0656    2.3550 H   0  0  0  0  0  0  0  0  0  0  0  0
    1.1488    8.6253    0.9872 H   0  0  0  0  0  0  0  0  0  0  0  0
   -0.5459    8.4923    1.5947 H   0  0  0  0  0  0  0  0  0  0  0  0
   -0.2352    8.9060   -0.0985 H   0  0  0  0  0  0  0  0  0  0  0  0
    0.1090    7.0559    3.1120 H   0  0  0  0  0  0  0  0  0  0  0  0
   -1.9788    5.6098    1.7505 H   0  0  0  0  0  0  0  0  0  0  0  0
   -1.0495    5.1827    4.1233 H   0  0  0  0  0  0  0  0  0  0  0  0
    1.3501    5.6782    4.5448 H   0  0  0  0  0  0  0  0  0  0  0  0
    1.8049    4.3301    3.3614 H   0  0  0  0  0  0  0  0  0  0  0  0
    0.8890    3.9932    4.8402 H   0  0  0  0  0  0  0  0  0  0  0  0
   -1.8867    0.8125    1.1025 H   0  0  0  0  0  0  0  0  0  0  0  0
   -1.4139    0.0201    3.6293 H   0  0  0  0  0  0  0  0  0  0  0  0
   -1.8737    1.6092    3.1149 H   0  0  0  0  0  0  0  0  0  0  0  0
   -0.1458    1.3530    3.3869 H   0  0  0  0  0  0  0  0  0  0  0  0
   -2.0157   -1.2069    1.9215 H   0  0  0  0  0  0  0  0  0  0  0  0
   -3.1016   -1.7599    0.8363 H   0  0  0  0  0  0  0  0  0  0  0  0
   -2.6551   -4.3624   -2.1720 H   0  0  0  0  0  0  0  0  0  0  0  0
   -1.1899   -3.2683   -3.3337 H   0  0  0  0  0  0  0  0  0  0  0  0
   -2.3921   -2.0119   -3.5908 H   0  0  0  0  0  0  0  0  0  0  0  0
   -1.1703   -1.7784   -2.2634 H   0  0  0  0  0  0  0  0  0  0  0  0
   -4.8213   -3.8495   -1.9196 H   0  0  0  0  0  0  0  0  0  0  0  0
   -4.2677   -2.8104   -3.3348 H   0  0  0  0  0  0  0  0  0  0  0  0
   -5.1608   -2.1230   -0.5262 H   0  0  0  0  0  0  0  0  0  0  0  0
   -6.5082   -2.3094   -3.6251 H   0  0  0  0  0  0  0  0  0  0  0  0
   -7.6062   -1.1801   -2.8139 H   0  0  0  0  0  0  0  0  0  0  0  0
   -7.0020   -2.5804   -1.8664 H   0  0  0  0  0  0  0  0  0  0  0  0
   -5.8409    0.9858   -1.3927 H   0  0  0  0  0  0  0  0  0  0  0  0
   -7.3637    0.1439   -1.6625 H   0  0  0  0  0  0  0  0  0  0  0  0
   -6.3410   -0.3496   -0.2650 H   0  0  0  0  0  0  0  0  0  0  0  0
   -3.0733   -0.4912   -1.9237 H   0  0  0  0  0  0  0  0  0  0  0  0
   -3.6550    0.9187   -0.4754 H   0  0  0  0  0  0  0  0  0  0  0  0
   -0.5642   -3.8479    1.0046 H   0  0  0  0  0  0  0  0  0  0  0  0
   -1.8910   -3.3353    2.0681 H   0  0  0  0  0  0  0  0  0  0  0  0
   -0.4837   -4.0193    2.8356 H   0  0  0  0  0  0  0  0  0  0  0  0
   -0.6921   -2.2380    3.9384 H   0  0  0  0  0  0  0  0  0  0  0  0
    1.7027   -1.0927    1.8971 H   0  0  0  0  0  0  0  0  0  0  0  0
    1.1076   -2.1186    0.4485 H   0  0  0  0  0  0  0  0  0  0  0  0
    3.2313   -2.6701    1.6839 H   0  0  0  0  0  0  0  0  0  0  0  0
    2.5726   -2.3608    3.8609 H   0  0  0  0  0  0  0  0  0  0  0  0
    3.3383   -3.9129    3.5426 H   0  0  0  0  0  0  0  0  0  0  0  0
    1.6185   -3.9373    3.9081 H   0  0  0  0  0  0  0  0  0  0  0  0
    2.2935   -5.6505   -0.5031 H   0  0  0  0  0  0  0  0  0  0  0  0
    4.3057   -5.6291    0.6435 H   0  0  0  0  0  0  0  0  0  0  0  0
    4.5821   -5.2565   -1.0454 H   0  0  0  0  0  0  0  0  0  0  0  0
    4.6667   -3.9520    0.2975 H   0  0  0  0  0  0  0  0  0  0  0  0
    2.4626   -4.6579   -2.2855 H   0  0  0  0  0  0  0  0  0  0  0  0
    0.9932   -2.7606   -2.3588 H   0  0  0  0  0  0  0  0  0  0  0  0
    4.0459   -2.6052   -4.1249 H   0  0  0  0  0  0  0  0  0  0  0  0
    2.1892   -2.8464   -4.0000 H   0  0  0  0  0  0  0  0  0  0  0  0
    3.3285   -4.1279   -3.6649 H   0  0  0  0  0  0  0  0  0  0  0  0
    5.0659   -2.4367   -1.4305 H   0  0  0  0  0  0  0  0  0  0  0  0
  1  2  1  0
  2  3  1  0
  3  4  1  0
  4  5  1  0
  5  6  2  0
  5  7  1  0
  7  8  1  0
  7  9  1  0
  9 10  1  0
 10 11  1  0
 11 12  1  0
 12 13  1  0
 13 14  1  0
 13 15  1  6
 15 16  1  0
 13 17  1  0
 17 18  1  0
 17 19  1  0
 19 20  1  0
 19 21  1  0
  9 22  1  0
 22 23  1  0
 22 24  1  0
 24 25  1  0
 25 26  1  0
 26 27  1  0
 27 28  1  0
 28 29  1  0
 28 30  1  0
 30 31  1  0
 31 32  1  0
 32 33  1  0
 32 34  1  0
 31 35  1  0
 35 36  1  0
 24 37  1  0
 37 38  1  0
 37 39  1  1
 37 40  1  0
 40 41  1  0
 41 42  1  0
 41 43  1  0
 43 44  2  0
 43 45  1  0
 45 46  1  0
 45 47  1  0
 47 48  1  0
 47 49  1  0
 49 50  1  0
 49 51  1  1
 49  3  1  0
 21 11  1  0
 35 26  1  0
  1 52  1  0
  1 53  1  0
  1 54  1  0
  2 55  1  0
  2 56  1  0
  3 57  1  1
  7 58  1  6
  8 59  1  0
  8 60  1  0
  8 61  1  0
  9 62  1  1
 11 63  1  1
 12 64  1  0
 12 65  1  0
 14 66  1  0
 14 67  1  0
 14 68  1  0
 16 69  1  0
 16 70  1  0
 16 71  1  0
 17 72  1  1
 18 73  1  0
 19 74  1  1
 20 75  1  0
 20 76  1  0
 20 77  1  0
 22 78  1  6
 23 79  1  0
 23 80  1  0
 23 81  1  0
 24 82  1  1
 26 83  1  1
 28 84  1  1
 29 85  1  0
 29 86  1  0
 29 87  1  0
 30 88  1  0
 30 89  1  0
 31 90  1  1
 33 91  1  0
 33 92  1  0
 33 93  1  0
 34 94  1  0
 34 95  1  0
 34 96  1  0
 35 97  1  6
 36 98  1  0
 38 99  1  0
 38100  1  0
 38101  1  0
 39102  1  0
 40103  1  0
 40104  1  0
 41105  1  6
 42106  1  0
 42107  1  0
 42108  1  0
 45109  1  6
 46110  1  0
 46111  1  0
 46112  1  0
 47113  1  6
 48114  1  0
 50115  1  0
 50116  1  0
 50117  1  0
 51118  1  0
M  END
$$$$
