
     RDKit          3D

 18 17  0  0  0  0  0  0  0  0999 V2000
   -0.6509    1.0754    1.1543 O   0  0  0  0  0  0  0  0  0  0  0  0
   -0.6566   -0.0659    0.3701 C   0  0  1  0  0  0  0  0  0  0  0  0
   -1.9376   -0.2015   -0.4266 C   0  0  0  0  0  0  0  0  0  0  0  0
   -3.2914   -0.2804    0.8003 S   0  0  0  0  0  0  0  0  0  0  0  0
    0.5723   -0.0207   -0.5141 C   0  0  1  0  0  0  0  0  0  0  0  0
    0.5851    1.0957   -1.3383 O   0  0  0  0  0  0  0  0  0  0  0  0
    1.7715   -0.0384    0.4203 C   0  0  0  0  0  0  0  0  0  0  0  0
    3.3179    0.0120   -0.5044 S   0  0  0  0  0  0  0  0  0  0  0  0
   -0.6163    1.8678    0.5337 H   0  0  0  0  0  0  0  0  0  0  0  0
   -0.5056   -0.9267    1.0527 H   0  0  0  0  0  0  0  0  0  0  0  0
   -1.9053   -1.1222   -1.0400 H   0  0  0  0  0  0  0  0  0  0  0  0
   -2.0773    0.6892   -1.0590 H   0  0  0  0  0  0  0  0  0  0  0  0
   -3.5466   -1.6021    1.2034 H   0  0  0  0  0  0  0  0  0  0  0  0
    0.6422   -0.9448   -1.1216 H   0  0  0  0  0  0  0  0  0  0  0  0
    1.0157    1.8564   -0.8665 H   0  0  0  0  0  0  0  0  0  0  0  0
    1.7038   -0.9408    1.0479 H   0  0  0  0  0  0  0  0  0  0  0  0
    1.6764    0.8329    1.0947 H   0  0  0  0  0  0  0  0  0  0  0  0
    3.9028   -1.2858   -0.4469 H   0  0  0  0  0  0  0  0  0  0  0  0
  1  2  1  0
  2  3  1  0
  3  4  1  0
  2  5  1  0
  5  6  1  0
  5  7  1  0
  7  8  1  0
  1  9  1  0
  2 10  1  1
  3 11  1  0
  3 12  1  0
  4 13  1  0
  5 14  1  6
  6 15  1  0
  7 16  1  0
  7 17  1  0
  8 18  1  0
M  END
$$$$
