@<TRIPOS>MOLECULE
*****
 41 40 0 0 0
SMALL
GASTEIGER

@<TRIPOS>ATOM
      1 C          -4.4261    1.0882   -0.8879 C.3     1  UNL1       -0.0653
      2 C          -4.9248   -0.0847   -0.0810 C.3     1  UNL1       -0.0559
      3 C          -3.7892   -1.0637    0.2512 C.3     1  UNL1       -0.0533
      4 C          -2.7202   -0.3602    1.0538 C.3     1  UNL1       -0.0531
      5 C          -1.5671   -1.2692    1.4181 C.3     1  UNL1       -0.0531
      6 C          -0.8781   -1.8321    0.2259 C.3     1  UNL1       -0.0531
      7 C          -0.2850   -0.8267   -0.7014 C.3     1  UNL1       -0.0530
      8 C           0.7526    0.0588   -0.0961 C.3     1  UNL1       -0.0527
      9 C           1.9350   -0.7501    0.4378 C.3     1  UNL1       -0.0464
     10 C           2.9738    0.1857    1.0481 C.3     1  UNL1        0.0005
     11 P           3.6069    1.3620   -0.1487 P.3     1  UNL1        0.0833
     12 C           4.0694    0.4819   -1.6604 C.3     1  UNL1       -0.0111
     13 C           5.1060    2.1120    0.5190 C.3     1  UNL1       -0.0111
     14 O           2.6336    2.4486   -0.4734 O.2     1  UNL1       -0.3215
     15 H          -3.3716    0.9712   -1.2174 H       1  UNL1        0.0230
     16 H          -4.5332    2.0251   -0.2989 H       1  UNL1        0.0230
     17 H          -5.0655    1.2448   -1.7935 H       1  UNL1        0.0230
     18 H          -5.6866   -0.6308   -0.6628 H       1  UNL1        0.0263
     19 H          -5.4082    0.2694    0.8466 H       1  UNL1        0.0263
     20 H          -4.2723   -1.8797    0.8036 H       1  UNL1        0.0265
     21 H          -3.3476   -1.4076   -0.7016 H       1  UNL1        0.0265
     22 H          -3.2184   -0.1158    2.0383 H       1  UNL1        0.0265
     23 H          -2.4230    0.5981    0.6255 H       1  UNL1        0.0265
     24 H          -2.0588   -2.1420    1.9345 H       1  UNL1        0.0265
     25 H          -0.9466   -0.8041    2.1748 H       1  UNL1        0.0265
     26 H          -0.1007   -2.5681    0.5174 H       1  UNL1        0.0265
     27 H          -1.6185   -2.4208   -0.3558 H       1  UNL1        0.0265
     28 H          -1.0561   -0.1727   -1.1562 H       1  UNL1        0.0265
     29 H           0.1916   -1.3808   -1.5365 H       1  UNL1        0.0265
     30 H           0.3953    0.7878    0.6318 H       1  UNL1        0.0265
     31 H           1.1605    0.6705   -0.9438 H       1  UNL1        0.0265
     32 H           1.5290   -1.3696    1.2658 H       1  UNL1        0.0270
     33 H           2.3293   -1.4008   -0.3401 H       1  UNL1        0.0270
     34 H           2.4197    0.7315    1.8640 H       1  UNL1        0.0342
     35 H           3.7886   -0.4013    1.4661 H       1  UNL1        0.0342
     36 H           4.3179    1.2237   -2.4396 H       1  UNL1        0.0306
     37 H           3.2215   -0.1730   -1.9856 H       1  UNL1        0.0306
     38 H           4.9878   -0.1026   -1.4359 H       1  UNL1        0.0306
     39 H           4.8339    3.0823    0.9844 H       1  UNL1        0.0306
     40 H           5.8263    2.3712   -0.3103 H       1  UNL1        0.0306
     41 H           5.6189    1.4435    1.2509 H       1  UNL1        0.0306
@<TRIPOS>BOND
     1     1     2    1
     2     2     3    1
     3     3     4    1
     4     4     5    1
     5     5     6    1
     6     6     7    1
     7     7     8    1
     8     8     9    1
     9     9    10    1
    10    10    11    1
    11    11    12    1
    12    11    13    1
    13    11    14    2
    14     1    15    1
    15     1    16    1
    16     1    17    1
    17     2    18    1
    18     2    19    1
    19     3    20    1
    20     3    21    1
    21     4    22    1
    22     4    23    1
    23     5    24    1
    24     5    25    1
    25     6    26    1
    26     6    27    1
    27     7    28    1
    28     7    29    1
    29     8    30    1
    30     8    31    1
    31     9    32    1
    32     9    33    1
    33    10    34    1
    34    10    35    1
    35    12    36    1
    36    12    37    1
    37    12    38    1
    38    13    39    1
    39    13    40    1
    40    13    41    1
