
     RDKit          3D

 41 40  0  0  0  0  0  0  0  0999 V2000
   -4.4261    1.0882   -0.8879 C   0  0  0  0  0  0  0  0  0  0  0  0
   -4.9248   -0.0847   -0.0810 C   0  0  0  0  0  0  0  0  0  0  0  0
   -3.7892   -1.0637    0.2512 C   0  0  0  0  0  0  0  0  0  0  0  0
   -2.7202   -0.3602    1.0538 C   0  0  0  0  0  0  0  0  0  0  0  0
   -1.5671   -1.2692    1.4181 C   0  0  0  0  0  0  0  0  0  0  0  0
   -0.8781   -1.8321    0.2259 C   0  0  0  0  0  0  0  0  0  0  0  0
   -0.2850   -0.8267   -0.7014 C   0  0  0  0  0  0  0  0  0  0  0  0
    0.7526    0.0588   -0.0961 C   0  0  0  0  0  0  0  0  0  0  0  0
    1.9350   -0.7501    0.4378 C   0  0  0  0  0  0  0  0  0  0  0  0
    2.9738    0.1857    1.0481 C   0  0  0  0  0  0  0  0  0  0  0  0
    3.6069    1.3620   -0.1487 P   0  0  0  0  0  0  0  0  0  0  0  0
    4.0694    0.4819   -1.6604 C   0  0  0  0  0  0  0  0  0  0  0  0
    5.1060    2.1120    0.5190 C   0  0  0  0  0  0  0  0  0  0  0  0
    2.6336    2.4486   -0.4734 O   0  0  0  0  0  0  0  0  0  0  0  0
   -3.3716    0.9712   -1.2174 H   0  0  0  0  0  0  0  0  0  0  0  0
   -4.5332    2.0251   -0.2989 H   0  0  0  0  0  0  0  0  0  0  0  0
   -5.0655    1.2448   -1.7935 H   0  0  0  0  0  0  0  0  0  0  0  0
   -5.6866   -0.6308   -0.6628 H   0  0  0  0  0  0  0  0  0  0  0  0
   -5.4082    0.2694    0.8466 H   0  0  0  0  0  0  0  0  0  0  0  0
   -4.2723   -1.8797    0.8036 H   0  0  0  0  0  0  0  0  0  0  0  0
   -3.3476   -1.4076   -0.7016 H   0  0  0  0  0  0  0  0  0  0  0  0
   -3.2184   -0.1158    2.0383 H   0  0  0  0  0  0  0  0  0  0  0  0
   -2.4230    0.5981    0.6255 H   0  0  0  0  0  0  0  0  0  0  0  0
   -2.0588   -2.1420    1.9345 H   0  0  0  0  0  0  0  0  0  0  0  0
   -0.9466   -0.8041    2.1748 H   0  0  0  0  0  0  0  0  0  0  0  0
   -0.1007   -2.5681    0.5174 H   0  0  0  0  0  0  0  0  0  0  0  0
   -1.6185   -2.4208   -0.3558 H   0  0  0  0  0  0  0  0  0  0  0  0
   -1.0561   -0.1727   -1.1562 H   0  0  0  0  0  0  0  0  0  0  0  0
    0.1916   -1.3808   -1.5365 H   0  0  0  0  0  0  0  0  0  0  0  0
    0.3953    0.7878    0.6318 H   0  0  0  0  0  0  0  0  0  0  0  0
    1.1605    0.6705   -0.9438 H   0  0  0  0  0  0  0  0  0  0  0  0
    1.5290   -1.3696    1.2658 H   0  0  0  0  0  0  0  0  0  0  0  0
    2.3293   -1.4008   -0.3401 H   0  0  0  0  0  0  0  0  0  0  0  0
    2.4197    0.7315    1.8640 H   0  0  0  0  0  0  0  0  0  0  0  0
    3.7886   -0.4013    1.4661 H   0  0  0  0  0  0  0  0  0  0  0  0
    4.3179    1.2237   -2.4396 H   0  0  0  0  0  0  0  0  0  0  0  0
    3.2215   -0.1730   -1.9856 H   0  0  0  0  0  0  0  0  0  0  0  0
    4.9878   -0.1026   -1.4359 H   0  0  0  0  0  0  0  0  0  0  0  0
    4.8339    3.0823    0.9844 H   0  0  0  0  0  0  0  0  0  0  0  0
    5.8263    2.3712   -0.3103 H   0  0  0  0  0  0  0  0  0  0  0  0
    5.6189    1.4435    1.2509 H   0  0  0  0  0  0  0  0  0  0  0  0
  1  2  1  0
  2  3  1  0
  3  4  1  0
  4  5  1  0
  5  6  1  0
  6  7  1  0
  7  8  1  0
  8  9  1  0
  9 10  1  0
 10 11  1  0
 11 12  1  0
 11 13  1  0
 11 14  2  0
  1 15  1  0
  1 16  1  0
  1 17  1  0
  2 18  1  0
  2 19  1  0
  3 20  1  0
  3 21  1  0
  4 22  1  0
  4 23  1  0
  5 24  1  0
  5 25  1  0
  6 26  1  0
  6 27  1  0
  7 28  1  0
  7 29  1  0
  8 30  1  0
  8 31  1  0
  9 32  1  0
  9 33  1  0
 10 34  1  0
 10 35  1  0
 12 36  1  0
 12 37  1  0
 12 38  1  0
 13 39  1  0
 13 40  1  0
 13 41  1  0
M  END
$$$$
