
     RDKit          3D

 70 74  0  0  0  0  0  0  0  0999 V2000
    9.9312    3.0048   -0.1326 C   0  0  0  0  0  0  0  0  0  0  0  0
    8.8176    2.1403   -0.2452 O   0  0  0  0  0  0  0  0  0  0  0  0
    8.9371    0.7568   -0.1631 C   0  0  0  0  0  0  0  0  0  0  0  0
   10.0238    0.0134    0.0216 N   0  0  0  0  0  0  0  0  0  0  0  0
    9.7433   -1.2771    0.0436 N   0  0  0  0  0  0  0  0  0  0  0  0
   10.6402   -2.4220    0.2243 C   0  0  0  0  0  0  0  0  0  0  0  0
    8.3951   -1.3511   -0.1386 C   0  0  0  0  0  0  0  0  0  0  0  0
    7.8441   -0.1008   -0.2733 C   0  0  0  0  0  0  0  0  0  0  0  0
    6.4942    0.2891   -0.4627 N   0  0  0  0  0  0  0  0  0  0  0  0
    5.4192   -0.6149   -0.6315 C   0  0  0  0  0  0  0  0  0  0  0  0
    5.6339   -1.9271   -0.6879 N   0  0  0  0  0  0  0  0  0  0  0  0
    4.6463   -2.8313   -0.8440 C   0  0  0  0  0  0  0  0  0  0  0  0
    3.3702   -2.3267   -0.9452 C   0  0  0  0  0  0  0  0  0  0  0  0
    2.3486   -3.1923   -1.1029 F   0  0  0  0  0  0  0  0  0  0  0  0
    3.1039   -0.9742   -0.8911 C   0  0  0  0  0  0  0  0  0  0  0  0
    1.7453   -0.4548   -0.9861 C   0  0  0  0  0  0  0  0  0  0  0  0
    0.8141   -0.6879   -1.9775 C   0  0  0  0  0  0  0  0  0  0  0  0
   -0.3248   -0.0320   -1.6962 N   0  0  0  0  0  0  0  0  0  0  0  0
   -0.1819    0.6250   -0.5577 C   0  0  0  0  0  0  0  0  0  0  0  0
   -1.0745    1.4301    0.1318 C   0  0  0  0  0  0  0  0  0  0  0  0
   -2.3950    1.6884   -0.3220 N   0  0  0  0  0  0  0  0  0  0  0  0
   -3.4336    0.7988    0.0650 C   0  0  0  0  0  0  0  0  0  0  0  0
   -3.1084   -0.1724    0.7919 O   0  0  0  0  0  0  0  0  0  0  0  0
   -4.8426    1.0325   -0.3886 C   0  0  1  0  0  0  0  0  0  0  0  0
   -4.7921    1.1165   -1.8857 C   0  0  0  0  0  0  0  0  0  0  0  0
   -5.6630   -0.0583    0.0879 N   0  0  0  0  0  0  0  0  0  0  0  0
   -5.6226   -0.1879    1.5256 C   0  0  0  0  0  0  0  0  0  0  0  0
   -6.9766   -0.4758    2.1415 C   0  0  0  0  0  0  0  0  0  0  0  0
   -7.6636   -1.5023    1.3980 N   0  0  0  0  0  0  0  0  0  0  0  0
   -8.9197   -1.7753    2.0569 C   0  0  0  0  0  0  0  0  0  0  0  0
   -7.7879   -1.2018    0.0019 C   0  0  0  0  0  0  0  0  0  0  0  0
   -7.0102    0.0241   -0.4233 C   0  0  1  0  0  0  0  0  0  0  0  0
   -7.7146    1.3000   -0.1087 C   0  0  0  0  0  0  0  0  0  0  0  0
   -0.6450    1.9971    1.3229 C   0  0  0  0  0  0  0  0  0  0  0  0
    0.6314    1.7802    1.8283 C   0  0  0  0  0  0  0  0  0  0  0  0
    1.4772    0.9579    1.0812 C   0  0  0  0  0  0  0  0  0  0  0  0
    1.0949    0.3846   -0.0884 C   0  0  0  0  0  0  0  0  0  0  0  0
    4.1440   -0.1391   -0.7341 N   0  0  0  0  0  0  0  0  0  0  0  0
    9.6626    3.9560   -0.6351 H   0  0  0  0  0  0  0  0  0  0  0  0
   10.2059    3.2381    0.9068 H   0  0  0  0  0  0  0  0  0  0  0  0
   10.7921    2.5841   -0.7261 H   0  0  0  0  0  0  0  0  0  0  0  0
   11.6191   -2.1112    0.5935 H   0  0  0  0  0  0  0  0  0  0  0  0
   10.6444   -3.0443   -0.6792 H   0  0  0  0  0  0  0  0  0  0  0  0
   10.1861   -3.0586    1.0411 H   0  0  0  0  0  0  0  0  0  0  0  0
    7.8432   -2.2903   -0.1690 H   0  0  0  0  0  0  0  0  0  0  0  0
    6.2887    1.3371   -0.4750 H   0  0  0  0  0  0  0  0  0  0  0  0
    4.9070   -3.8608   -0.8791 H   0  0  0  0  0  0  0  0  0  0  0  0
    0.9665   -1.3123   -2.8674 H   0  0  0  0  0  0  0  0  0  0  0  0
   -1.1843   -0.0513   -2.3005 H   0  0  0  0  0  0  0  0  0  0  0  0
   -2.5511    2.5191   -0.9204 H   0  0  0  0  0  0  0  0  0  0  0  0
   -5.2228    2.0029   -0.0079 H   0  0  0  0  0  0  0  0  0  0  0  0
   -4.1147    1.9914   -2.1200 H   0  0  0  0  0  0  0  0  0  0  0  0
   -5.7354    1.3522   -2.3794 H   0  0  0  0  0  0  0  0  0  0  0  0
   -4.2800    0.2052   -2.2541 H   0  0  0  0  0  0  0  0  0  0  0  0
   -5.2002    0.6846    2.0250 H   0  0  0  0  0  0  0  0  0  0  0  0
   -5.0181   -1.1234    1.7289 H   0  0  0  0  0  0  0  0  0  0  0  0
   -7.5626    0.4222    2.3338 H   0  0  0  0  0  0  0  0  0  0  0  0
   -6.7537   -0.9286    3.1526 H   0  0  0  0  0  0  0  0  0  0  0  0
   -9.1563   -0.9743    2.7559 H   0  0  0  0  0  0  0  0  0  0  0  0
   -8.7882   -2.7248    2.6189 H   0  0  0  0  0  0  0  0  0  0  0  0
   -9.6811   -1.9153    1.2587 H   0  0  0  0  0  0  0  0  0  0  0  0
   -7.4406   -2.0544   -0.6256 H   0  0  0  0  0  0  0  0  0  0  0  0
   -8.8538   -1.0236   -0.2614 H   0  0  0  0  0  0  0  0  0  0  0  0
   -6.9346   -0.0566   -1.5463 H   0  0  0  0  0  0  0  0  0  0  0  0
   -7.9487    1.8866   -1.0454 H   0  0  0  0  0  0  0  0  0  0  0  0
   -7.1847    1.9861    0.5546 H   0  0  0  0  0  0  0  0  0  0  0  0
   -8.7323    1.1146    0.3394 H   0  0  0  0  0  0  0  0  0  0  0  0
   -1.3153    2.6204    1.8699 H   0  0  0  0  0  0  0  0  0  0  0  0
    0.9584    2.2265    2.7583 H   0  0  0  0  0  0  0  0  0  0  0  0
    2.4855    0.7681    1.4504 H   0  0  0  0  0  0  0  0  0  0  0  0
  1  2  1  0
  2  3  1  0
  3  4  2  0
  4  5  1  0
  5  6  1  0
  5  7  1  0
  7  8  2  0
  8  9  1  0
  9 10  1  0
 10 11  2  0
 11 12  1  0
 12 13  2  0
 13 14  1  0
 13 15  1  0
 15 16  1  0
 16 17  2  0
 17 18  1  0
 18 19  1  0
 19 20  2  0
 20 21  1  0
 21 22  1  0
 22 23  2  0
 22 24  1  0
 24 25  1  0
 24 26  1  0
 26 27  1  0
 27 28  1  0
 28 29  1  0
 29 30  1  0
 29 31  1  0
 31 32  1  0
 32 33  1  0
 20 34  1  0
 34 35  2  0
 35 36  1  0
 36 37  2  0
 15 38  2  0
  8  3  1  0
 38 10  1  0
 37 16  1  0
 37 19  1  0
 32 26  1  0
  1 39  1  0
  1 40  1  0
  1 41  1  0
  6 42  1  0
  6 43  1  0
  6 44  1  0
  7 45  1  0
  9 46  1  0
 12 47  1  0
 17 48  1  0
 18 49  1  0
 21 50  1  0
 24 51  1  1
 25 52  1  0
 25 53  1  0
 25 54  1  0
 27 55  1  0
 27 56  1  0
 28 57  1  0
 28 58  1  0
 30 59  1  0
 30 60  1  0
 30 61  1  0
 31 62  1  0
 31 63  1  0
 32 64  1  6
 33 65  1  0
 33 66  1  0
 33 67  1  0
 34 68  1  0
 35 69  1  0
 36 70  1  0
M  END
$$$$
