@<TRIPOS>MOLECULE
*****
 54 57 0 0 0
SMALL
GASTEIGER

@<TRIPOS>ATOM
      1 C          -3.9202    0.0417   -1.9430 C.3     1  UNL1       -0.0351
      2 C          -3.0482   -0.8277   -1.0406 C.3     1  UNL1        0.0946
      3 C          -1.7170   -0.9223   -1.7263 C.ar    1  UNL1        0.0158
      4 C          -0.5358   -0.5588   -1.1266 C.ar    1  UNL1       -0.0463
      5 C           0.6868   -0.6509   -1.7676 C.ar    1  UNL1       -0.0217
      6 C           1.9335   -0.2503   -1.1119 C.2     1  UNL1       -0.0171
      7 C           2.0828    0.7769   -0.3389 C.2     1  UNL1        0.1507
      8 F           0.9662    1.5518   -0.1225 F       1  UNL1       -0.2032
      9 C           3.3040    1.2036    0.3322 C.ar    1  UNL1        0.1172
     10 C           4.4554    0.4868    0.1878 C.ar    1  UNL1        0.0596
     11 N           5.5767    0.8515    0.7842 N.ar    1  UNL1       -0.2178
     12 C           5.6765    1.9270    1.5604 C.ar    1  UNL1        0.2337
     13 O           6.8163    2.3535    2.2029 O.3     1  UNL1       -0.4663
     14 C           8.0386    1.7197    2.1487 C.3     1  UNL1        0.1858
     15 C           8.0880    0.3286    2.6989 C.3     1  UNL1        0.4236
     16 F           9.3900   -0.1972    2.5964 F       1  UNL1       -0.1671
     17 F           7.3053   -0.5478    1.9849 F       1  UNL1       -0.1671
     18 F           7.7414    0.2617    4.0247 F       1  UNL1       -0.1671
     19 C           4.4845    2.6673    1.7084 C.ar    1  UNL1        0.0898
     20 N           3.3479    2.3013    1.1065 N.ar    1  UNL1       -0.2459
     21 C           0.6710   -1.1329   -3.0602 C.ar    1  UNL1       -0.0518
     22 C          -0.4798   -1.5122   -3.7129 C.ar    1  UNL1       -0.0255
     23 C          -1.6779   -1.3950   -3.0126 C.ar    1  UNL1        0.1289
     24 F          -2.7819   -1.7888   -3.7077 F       1  UNL1       -0.2051
     25 N          -3.6134   -2.1244   -0.9961 N.2     1  UNL1       -0.2520
     26 C          -4.6956   -2.4060   -0.3809 C.2     1  UNL1        0.1495
     27 N          -5.2869   -3.6778   -0.3150 N.pl3   1  UNL1       -0.3380
     28 S          -5.5040   -1.0389    0.4749 S.3     1  UNL1       -0.0611
     29 C          -4.1365   -0.0042    1.0707 C.3     1  UNL1        0.1451
     30 S          -4.5690    1.4456    2.0002 S.O2    1  UNL1       -0.0183
     31 C          -5.4751    0.9738    3.4683 C.3     1  UNL1        0.0560
     32 O          -5.4743    2.3494    1.2174 O.2     1  UNL1       -0.1733
     33 O          -3.3360    2.2135    2.4013 O.2     1  UNL1       -0.1733
     34 C          -2.9503   -0.8186    1.5768 C.3     1  UNL1       -0.0096
     35 C          -2.9225   -0.1057    0.2733 C.3     1  UNL1        0.0258
     36 H          -4.4282   -0.5981   -2.6926 H       1  UNL1        0.0256
     37 H          -4.6765    0.5923   -1.3390 H       1  UNL1        0.0256
     38 H          -3.2624    0.7482   -2.4794 H       1  UNL1        0.0256
     39 H          -0.5374   -0.1773   -0.0956 H       1  UNL1        0.0628
     40 H           2.7812   -0.8839   -1.3076 H       1  UNL1        0.0653
     41 H           4.4969   -0.4086   -0.4210 H       1  UNL1        0.0853
     42 H           8.2836    1.6058    1.0426 H       1  UNL1        0.0788
     43 H           8.8844    2.3495    2.5189 H       1  UNL1        0.0788
     44 H           4.5500    3.5477    2.3378 H       1  UNL1        0.0884
     45 H           1.6134   -1.2193   -3.5936 H       1  UNL1        0.0624
     46 H          -0.4585   -1.8929   -4.7458 H       1  UNL1        0.0646
     47 H          -5.6952   -4.1968   -1.1248 H       1  UNL1        0.1442
     48 H          -5.3279   -4.1503    0.6041 H       1  UNL1        0.1442
     49 H          -6.5583    0.9550    3.2738 H       1  UNL1        0.0464
     50 H          -5.1425   -0.0178    3.8379 H       1  UNL1        0.0464
     51 H          -5.2675    1.7724    4.2323 H       1  UNL1        0.0464
     52 H          -3.0434   -1.9178    1.6352 H       1  UNL1        0.0299
     53 H          -2.3737   -0.4019    2.4375 H       1  UNL1        0.0299
     54 H          -2.2786    0.7997    0.2628 H       1  UNL1        0.0358
@<TRIPOS>BOND
     1     2     1    1
     2     2     3    1
     3     3     4   ar
     4     4     5   ar
     5     5     6    1
     6     6     7    2
     7     7     8    1
     8     7     9    1
     9     9    10   ar
    10    10    11   ar
    11    11    12   ar
    12    12    13    1
    13    13    14    1
    14    14    15    1
    15    15    16    1
    16    15    17    1
    17    15    18    1
    18    12    19   ar
    19    19    20   ar
    20     5    21   ar
    21    21    22   ar
    22    22    23   ar
    23    23    24    1
    24     2    25    1
    25    25    26    2
    26    26    27    1
    27    26    28    1
    28    28    29    1
    29    29    30    1
    30    30    31    1
    31    30    32    2
    32    30    33    2
    33    29    34    1
    34    34    35    1
    35    35     2    1
    36    23     3   ar
    37    35    29    1
    38    20     9   ar
    39     1    36    1
    40     1    37    1
    41     1    38    1
    42     4    39    1
    43     6    40    1
    44    10    41    1
    45    14    42    1
    46    14    43    1
    47    19    44    1
    48    21    45    1
    49    22    46    1
    50    27    47    1
    51    27    48    1
    52    31    49    1
    53    31    50    1
    54    31    51    1
    55    34    52    1
    56    34    53    1
    57    35    54    1
