
     RDKit          3D

 54 57  0  0  0  0  0  0  0  0999 V2000
   -3.9202    0.0417   -1.9430 C   0  0  0  0  0  0  0  0  0  0  0  0
   -3.0482   -0.8277   -1.0406 C   0  0  2  0  0  0  0  0  0  0  0  0
   -1.7170   -0.9223   -1.7263 C   0  0  0  0  0  0  0  0  0  0  0  0
   -0.5358   -0.5588   -1.1266 C   0  0  0  0  0  0  0  0  0  0  0  0
    0.6868   -0.6509   -1.7676 C   0  0  0  0  0  0  0  0  0  0  0  0
    1.9335   -0.2503   -1.1119 C   0  0  0  0  0  0  0  0  0  0  0  0
    2.0828    0.7769   -0.3389 C   0  0  0  0  0  0  0  0  0  0  0  0
    0.9662    1.5518   -0.1225 F   0  0  0  0  0  0  0  0  0  0  0  0
    3.3040    1.2036    0.3322 C   0  0  0  0  0  0  0  0  0  0  0  0
    4.4554    0.4868    0.1878 C   0  0  0  0  0  0  0  0  0  0  0  0
    5.5767    0.8515    0.7842 N   0  0  0  0  0  0  0  0  0  0  0  0
    5.6765    1.9270    1.5604 C   0  0  0  0  0  0  0  0  0  0  0  0
    6.8163    2.3535    2.2029 O   0  0  0  0  0  0  0  0  0  0  0  0
    8.0386    1.7197    2.1487 C   0  0  0  0  0  0  0  0  0  0  0  0
    8.0880    0.3286    2.6989 C   0  0  0  0  0  0  0  0  0  0  0  0
    9.3900   -0.1972    2.5964 F   0  0  0  0  0  0  0  0  0  0  0  0
    7.3053   -0.5478    1.9849 F   0  0  0  0  0  0  0  0  0  0  0  0
    7.7414    0.2617    4.0247 F   0  0  0  0  0  0  0  0  0  0  0  0
    4.4845    2.6673    1.7084 C   0  0  0  0  0  0  0  0  0  0  0  0
    3.3479    2.3013    1.1065 N   0  0  0  0  0  0  0  0  0  0  0  0
    0.6710   -1.1329   -3.0602 C   0  0  0  0  0  0  0  0  0  0  0  0
   -0.4798   -1.5122   -3.7129 C   0  0  0  0  0  0  0  0  0  0  0  0
   -1.6779   -1.3950   -3.0126 C   0  0  0  0  0  0  0  0  0  0  0  0
   -2.7819   -1.7888   -3.7077 F   0  0  0  0  0  0  0  0  0  0  0  0
   -3.6134   -2.1244   -0.9961 N   0  0  0  0  0  0  0  0  0  0  0  0
   -4.6956   -2.4060   -0.3809 C   0  0  0  0  0  0  0  0  0  0  0  0
   -5.2869   -3.6778   -0.3150 N   0  0  0  0  0  0  0  0  0  0  0  0
   -5.5040   -1.0389    0.4749 S   0  0  0  0  0  0  0  0  0  0  0  0
   -4.1365   -0.0042    1.0707 C   0  0  1  0  0  0  0  0  0  0  0  0
   -4.5690    1.4456    2.0002 S   0  0  0  0  0  6  0  0  0  0  0  0
   -5.4751    0.9738    3.4683 C   0  0  0  0  0  0  0  0  0  0  0  0
   -5.4743    2.3494    1.2174 O   0  0  0  0  0  0  0  0  0  0  0  0
   -3.3360    2.2135    2.4013 O   0  0  0  0  0  0  0  0  0  0  0  0
   -2.9503   -0.8186    1.5768 C   0  0  0  0  0  0  0  0  0  0  0  0
   -2.9225   -0.1057    0.2733 C   0  0  1  0  0  0  0  0  0  0  0  0
   -4.4282   -0.5981   -2.6926 H   0  0  0  0  0  0  0  0  0  0  0  0
   -4.6765    0.5923   -1.3390 H   0  0  0  0  0  0  0  0  0  0  0  0
   -3.2624    0.7482   -2.4794 H   0  0  0  0  0  0  0  0  0  0  0  0
   -0.5374   -0.1773   -0.0956 H   0  0  0  0  0  0  0  0  0  0  0  0
    2.7812   -0.8839   -1.3076 H   0  0  0  0  0  0  0  0  0  0  0  0
    4.4969   -0.4086   -0.4210 H   0  0  0  0  0  0  0  0  0  0  0  0
    8.2836    1.6058    1.0426 H   0  0  0  0  0  0  0  0  0  0  0  0
    8.8844    2.3495    2.5189 H   0  0  0  0  0  0  0  0  0  0  0  0
    4.5500    3.5477    2.3378 H   0  0  0  0  0  0  0  0  0  0  0  0
    1.6134   -1.2193   -3.5936 H   0  0  0  0  0  0  0  0  0  0  0  0
   -0.4585   -1.8929   -4.7458 H   0  0  0  0  0  0  0  0  0  0  0  0
   -5.6952   -4.1968   -1.1248 H   0  0  0  0  0  0  0  0  0  0  0  0
   -5.3279   -4.1503    0.6041 H   0  0  0  0  0  0  0  0  0  0  0  0
   -6.5583    0.9550    3.2738 H   0  0  0  0  0  0  0  0  0  0  0  0
   -5.1425   -0.0178    3.8379 H   0  0  0  0  0  0  0  0  0  0  0  0
   -5.2675    1.7724    4.2323 H   0  0  0  0  0  0  0  0  0  0  0  0
   -3.0434   -1.9178    1.6352 H   0  0  0  0  0  0  0  0  0  0  0  0
   -2.3737   -0.4019    2.4375 H   0  0  0  0  0  0  0  0  0  0  0  0
   -2.2786    0.7997    0.2628 H   0  0  0  0  0  0  0  0  0  0  0  0
  2  1  1  6
  2  3  1  0
  3  4  2  0
  4  5  1  0
  5  6  1  0
  6  7  2  0
  7  8  1  0
  7  9  1  0
  9 10  2  0
 10 11  1  0
 11 12  2  0
 12 13  1  0
 13 14  1  0
 14 15  1  0
 15 16  1  0
 15 17  1  0
 15 18  1  0
 12 19  1  0
 19 20  2  0
  5 21  2  0
 21 22  1  0
 22 23  2  0
 23 24  1  0
  2 25  1  0
 25 26  2  0
 26 27  1  0
 26 28  1  0
 28 29  1  0
 29 30  1  1
 30 31  1  0
 30 32  2  0
 30 33  2  0
 29 34  1  0
 34 35  1  0
 35  2  1  0
 23  3  1  0
 35 29  1  0
 20  9  1  0
  1 36  1  0
  1 37  1  0
  1 38  1  0
  4 39  1  0
  6 40  1  0
 10 41  1  0
 14 42  1  0
 14 43  1  0
 19 44  1  0
 21 45  1  0
 22 46  1  0
 27 47  1  0
 27 48  1  0
 31 49  1  0
 31 50  1  0
 31 51  1  0
 34 52  1  0
 34 53  1  0
 35 54  1  6
M  END
$$$$
