@<TRIPOS>MOLECULE
*****
 90 94 0 0 0
SMALL
GASTEIGER

@<TRIPOS>ATOM
      1 C          -4.1585    4.5057   -4.8205 C.3     1  UNL1        0.0788
      2 O          -2.7508    4.3046   -4.7459 O.3     1  UNL1       -0.4951
      3 C          -2.1340    4.2519   -3.4743 C.ar    1  UNL1        0.1201
      4 C          -0.7895    4.0672   -3.3496 C.ar    1  UNL1       -0.0197
      5 C          -0.2265    4.0220   -2.0921 C.ar    1  UNL1       -0.0550
      6 C          -0.9550    4.1545   -0.9378 C.ar    1  UNL1       -0.0449
      7 C          -0.3452    4.1184    0.3846 C.3     1  UNL1       -0.0007
      8 C          -0.1902    2.7427    0.9759 C.3     1  UNL1        0.1034
      9 N           0.6641    1.9253    0.1276 N.am    1  UNL1       -0.3022
     10 C           1.8787    1.3485    0.5245 C.2     1  UNL1        0.2337
     11 O           2.2903    1.5312    1.6934 O.2     1  UNL1       -0.2738
     12 C           2.6676    0.5291   -0.4384 C.3     1  UNL1        0.0969
     13 C           2.9695    1.3304   -1.6894 C.3     1  UNL1       -0.0381
     14 N           3.8999    0.0388    0.1795 N.am    1  UNL1       -0.3005
     15 C           4.1095   -1.3245    0.2512 C.2     1  UNL1        0.2412
     16 O           3.2021   -2.0872   -0.2325 O.2     1  UNL1       -0.2705
     17 C           5.3060   -1.9285    0.8473 C.2     1  UNL1        0.0221
     18 C           6.3633   -1.4298    1.4028 C.2     1  UNL1       -0.0346
     19 C           6.6642    0.0211    1.5979 C.3     1  UNL1       -0.0387
     20 C           7.3182   -2.4618    1.8513 C.ar    1  UNL1       -0.0182
     21 C           8.5467   -2.4271    2.4725 C.ar    1  UNL1       -0.0541
     22 C           9.2463   -3.5743    2.7815 C.ar    1  UNL1       -0.0612
     23 C           8.6509   -4.7725    2.4352 C.ar    1  UNL1       -0.0615
     24 C           7.4305   -4.8534    1.8165 C.ar    1  UNL1       -0.0577
     25 C           6.7558   -3.6625    1.5219 C.ar    1  UNL1       -0.0355
     26 C           5.4602   -3.4398    0.8794 C.3     1  UNL1        0.0033
     27 C          -1.4907    2.0360    1.1082 C.2     1  UNL1        0.2342
     28 O          -2.4523    2.5578    1.7243 O.2     1  UNL1       -0.2738
     29 N          -1.6025    0.7543    0.5124 N.am    1  UNL1       -0.3040
     30 C          -2.8754    0.0367    0.6143 C.3     1  UNL1        0.0847
     31 C          -3.2503   -0.5883   -0.6817 C.3     1  UNL1       -0.0247
     32 C          -4.5475   -1.3263   -0.7096 C.3     1  UNL1       -0.0390
     33 C          -5.7251   -0.4241   -0.3803 C.3     1  UNL1       -0.0501
     34 C          -6.9552   -0.9020   -1.0667 C.3     1  UNL1       -0.0528
     35 C          -7.0770   -2.4039   -1.1746 C.3     1  UNL1       -0.0530
     36 C          -5.8678   -3.0063   -1.8604 C.3     1  UNL1       -0.0528
     37 C          -4.8234   -1.9105   -2.0938 C.3     1  UNL1       -0.0501
     38 C          -2.7084   -0.9633    1.7113 C.2     1  UNL1        0.1868
     39 O          -3.6504   -1.6758    2.0424 O.2     1  UNL1       -0.2923
     40 C          -1.4371   -1.1591    2.4533 C.3     1  UNL1        0.1492
     41 C          -1.5993   -1.7435    3.8686 C.3     1  UNL1       -0.0266
     42 C          -0.2205   -1.6553    1.7062 C.3     1  UNL1        0.0847
     43 O          -0.3499   -0.3730    2.1722 O.3     1  UNL1       -0.3605
     44 C          -2.3223    4.3413   -1.0834 C.ar    1  UNL1       -0.0550
     45 C          -2.9067    4.3895   -2.3425 C.ar    1  UNL1       -0.0197
     46 H          -4.4423    4.7108   -5.8672 H       1  UNL1        0.0660
     47 H          -4.7487    3.6762   -4.4317 H       1  UNL1        0.0660
     48 H          -4.3985    5.4516   -4.2536 H       1  UNL1        0.0660
     49 H          -0.2097    3.9609   -4.2635 H       1  UNL1        0.0654
     50 H           0.8601    3.8721   -2.0041 H       1  UNL1        0.0621
     51 H           0.6680    4.5782    0.3561 H       1  UNL1        0.0336
     52 H          -0.8979    4.7526    1.1391 H       1  UNL1        0.0336
     53 H           0.2351    2.8306    1.9935 H       1  UNL1        0.0598
     54 H           0.3551    1.7419   -0.8744 H       1  UNL1        0.1495
     55 H           2.0203   -0.3091   -0.7583 H       1  UNL1        0.0592
     56 H           3.3912    0.6236   -2.4271 H       1  UNL1        0.0252
     57 H           3.6729    2.1651   -1.5107 H       1  UNL1        0.0252
     58 H           1.9916    1.6911   -2.0906 H       1  UNL1        0.0252
     59 H           4.5463    0.7434    0.5294 H       1  UNL1        0.1498
     60 H           5.9389    0.4870    2.2860 H       1  UNL1        0.0278
     61 H           6.7851    0.5533    0.6538 H       1  UNL1        0.0278
     62 H           7.6482    0.1336    2.1427 H       1  UNL1        0.0278
     63 H           8.9928   -1.4798    2.7343 H       1  UNL1        0.0624
     64 H          10.2104   -3.5623    3.2689 H       1  UNL1        0.0618
     65 H           9.1473   -5.7164    2.6501 H       1  UNL1        0.0618
     66 H           6.9515   -5.7647    1.5398 H       1  UNL1        0.0621
     67 H           4.6442   -3.8779    1.4934 H       1  UNL1        0.0363
     68 H           5.4276   -3.8398   -0.1669 H       1  UNL1        0.0363
     69 H          -0.8244    0.2945   -0.0048 H       1  UNL1        0.1494
     70 H          -3.6350    0.7683    0.9273 H       1  UNL1        0.0578
     71 H          -3.2422    0.1392   -1.5259 H       1  UNL1        0.0290
     72 H          -2.4521   -1.3392   -0.9833 H       1  UNL1        0.0290
     73 H          -4.6030   -2.1654    0.0095 H       1  UNL1        0.0301
     74 H          -5.8509   -0.4243    0.7272 H       1  UNL1        0.0268
     75 H          -5.5222    0.6237   -0.7629 H       1  UNL1        0.0268
     76 H          -7.8614   -0.5601   -0.4931 H       1  UNL1        0.0265
     77 H          -7.0817   -0.4665   -2.0942 H       1  UNL1        0.0265
     78 H          -7.2771   -2.8635   -0.1831 H       1  UNL1        0.0265
     79 H          -7.9599   -2.6179   -1.8105 H       1  UNL1        0.0265
     80 H          -5.3908   -3.7764   -1.2220 H       1  UNL1        0.0265
     81 H          -6.1581   -3.4866   -2.8093 H       1  UNL1        0.0265
     82 H          -5.2923   -1.1635   -2.7597 H       1  UNL1        0.0268
     83 H          -3.9257   -2.3253   -2.5760 H       1  UNL1        0.0268
     84 H          -0.8356   -1.3533    4.5573 H       1  UNL1        0.0262
     85 H          -2.5933   -1.4971    4.2902 H       1  UNL1        0.0262
     86 H          -1.5355   -2.8482    3.7473 H       1  UNL1        0.0262
     87 H          -0.2592   -1.8963    0.6477 H       1  UNL1        0.0593
     88 H           0.4525   -2.3696    2.2683 H       1  UNL1        0.0593
     89 H          -2.9858    4.4580   -0.2392 H       1  UNL1        0.0621
     90 H          -3.9686    4.5329   -2.4839 H       1  UNL1        0.0654
@<TRIPOS>BOND
     1     1     2    1
     2     2     3    1
     3     3     4   ar
     4     4     5   ar
     5     5     6   ar
     6     6     7    1
     7     7     8    1
     8     8     9    1
     9     9    10   am
    10    10    11    2
    11    10    12    1
    12    12    13    1
    13    12    14    1
    14    14    15   am
    15    15    16    2
    16    15    17    1
    17    17    18    2
    18    18    19    1
    19    18    20    1
    20    20    21   ar
    21    21    22   ar
    22    22    23   ar
    23    23    24   ar
    24    24    25   ar
    25    25    26    1
    26     8    27    1
    27    27    28    2
    28    27    29   am
    29    29    30    1
    30    30    31    1
    31    31    32    1
    32    32    33    1
    33    33    34    1
    34    34    35    1
    35    35    36    1
    36    36    37    1
    37    30    38    1
    38    38    39    2
    39    38    40    1
    40    40    41    1
    41    40    42    1
    42    42    43    1
    43     6    44   ar
    44    44    45   ar
    45    45     3   ar
    46    26    17    1
    47    37    32    1
    48    43    40    1
    49    25    20   ar
    50     1    46    1
    51     1    47    1
    52     1    48    1
    53     4    49    1
    54     5    50    1
    55     7    51    1
    56     7    52    1
    57     8    53    1
    58     9    54    1
    59    12    55    1
    60    13    56    1
    61    13    57    1
    62    13    58    1
    63    14    59    1
    64    19    60    1
    65    19    61    1
    66    19    62    1
    67    21    63    1
    68    22    64    1
    69    23    65    1
    70    24    66    1
    71    26    67    1
    72    26    68    1
    73    29    69    1
    74    30    70    1
    75    31    71    1
    76    31    72    1
    77    32    73    1
    78    33    74    1
    79    33    75    1
    80    34    76    1
    81    34    77    1
    82    35    78    1
    83    35    79    1
    84    36    80    1
    85    36    81    1
    86    37    82    1
    87    37    83    1
    88    41    84    1
    89    41    85    1
    90    41    86    1
    91    42    87    1
    92    42    88    1
    93    44    89    1
    94    45    90    1
