
     RDKit          3D

 90 94  0  0  0  0  0  0  0  0999 V2000
   -4.1585    4.5057   -4.8205 C   0  0  0  0  0  0  0  0  0  0  0  0
   -2.7508    4.3046   -4.7459 O   0  0  0  0  0  0  0  0  0  0  0  0
   -2.1340    4.2519   -3.4743 C   0  0  0  0  0  0  0  0  0  0  0  0
   -0.7895    4.0672   -3.3496 C   0  0  0  0  0  0  0  0  0  0  0  0
   -0.2265    4.0220   -2.0921 C   0  0  0  0  0  0  0  0  0  0  0  0
   -0.9550    4.1545   -0.9378 C   0  0  0  0  0  0  0  0  0  0  0  0
   -0.3452    4.1184    0.3846 C   0  0  0  0  0  0  0  0  0  0  0  0
   -0.1902    2.7427    0.9759 C   0  0  2  0  0  0  0  0  0  0  0  0
    0.6641    1.9253    0.1276 N   0  0  0  0  0  0  0  0  0  0  0  0
    1.8787    1.3485    0.5245 C   0  0  0  0  0  0  0  0  0  0  0  0
    2.2903    1.5312    1.6934 O   0  0  0  0  0  0  0  0  0  0  0  0
    2.6676    0.5291   -0.4384 C   0  0  1  0  0  0  0  0  0  0  0  0
    2.9695    1.3304   -1.6894 C   0  0  0  0  0  0  0  0  0  0  0  0
    3.8999    0.0388    0.1795 N   0  0  0  0  0  0  0  0  0  0  0  0
    4.1095   -1.3245    0.2512 C   0  0  0  0  0  0  0  0  0  0  0  0
    3.2021   -2.0872   -0.2325 O   0  0  0  0  0  0  0  0  0  0  0  0
    5.3060   -1.9285    0.8473 C   0  0  0  0  0  0  0  0  0  0  0  0
    6.3633   -1.4298    1.4028 C   0  0  0  0  0  0  0  0  0  0  0  0
    6.6642    0.0211    1.5979 C   0  0  0  0  0  0  0  0  0  0  0  0
    7.3182   -2.4618    1.8513 C   0  0  0  0  0  0  0  0  0  0  0  0
    8.5467   -2.4271    2.4725 C   0  0  0  0  0  0  0  0  0  0  0  0
    9.2463   -3.5743    2.7815 C   0  0  0  0  0  0  0  0  0  0  0  0
    8.6509   -4.7725    2.4352 C   0  0  0  0  0  0  0  0  0  0  0  0
    7.4305   -4.8534    1.8165 C   0  0  0  0  0  0  0  0  0  0  0  0
    6.7558   -3.6625    1.5219 C   0  0  0  0  0  0  0  0  0  0  0  0
    5.4602   -3.4398    0.8794 C   0  0  0  0  0  0  0  0  0  0  0  0
   -1.4907    2.0360    1.1082 C   0  0  0  0  0  0  0  0  0  0  0  0
   -2.4523    2.5578    1.7243 O   0  0  0  0  0  0  0  0  0  0  0  0
   -1.6025    0.7543    0.5124 N   0  0  0  0  0  0  0  0  0  0  0  0
   -2.8754    0.0367    0.6143 C   0  0  1  0  0  0  0  0  0  0  0  0
   -3.2503   -0.5883   -0.6817 C   0  0  0  0  0  0  0  0  0  0  0  0
   -4.5475   -1.3263   -0.7096 C   0  0  0  0  0  0  0  0  0  0  0  0
   -5.7251   -0.4241   -0.3803 C   0  0  0  0  0  0  0  0  0  0  0  0
   -6.9552   -0.9020   -1.0667 C   0  0  0  0  0  0  0  0  0  0  0  0
   -7.0770   -2.4039   -1.1746 C   0  0  0  0  0  0  0  0  0  0  0  0
   -5.8678   -3.0063   -1.8604 C   0  0  0  0  0  0  0  0  0  0  0  0
   -4.8234   -1.9105   -2.0938 C   0  0  0  0  0  0  0  0  0  0  0  0
   -2.7084   -0.9633    1.7113 C   0  0  0  0  0  0  0  0  0  0  0  0
   -3.6504   -1.6758    2.0424 O   0  0  0  0  0  0  0  0  0  0  0  0
   -1.4371   -1.1591    2.4533 C   0  0  1  0  0  0  0  0  0  0  0  0
   -1.5993   -1.7435    3.8686 C   0  0  0  0  0  0  0  0  0  0  0  0
   -0.2205   -1.6553    1.7062 C   0  0  0  0  0  0  0  0  0  0  0  0
   -0.3499   -0.3730    2.1722 O   0  0  0  0  0  0  0  0  0  0  0  0
   -2.3223    4.3413   -1.0834 C   0  0  0  0  0  0  0  0  0  0  0  0
   -2.9067    4.3895   -2.3425 C   0  0  0  0  0  0  0  0  0  0  0  0
   -4.4423    4.7108   -5.8672 H   0  0  0  0  0  0  0  0  0  0  0  0
   -4.7487    3.6762   -4.4317 H   0  0  0  0  0  0  0  0  0  0  0  0
   -4.3985    5.4516   -4.2536 H   0  0  0  0  0  0  0  0  0  0  0  0
   -0.2097    3.9609   -4.2635 H   0  0  0  0  0  0  0  0  0  0  0  0
    0.8601    3.8721   -2.0041 H   0  0  0  0  0  0  0  0  0  0  0  0
    0.6680    4.5782    0.3561 H   0  0  0  0  0  0  0  0  0  0  0  0
   -0.8979    4.7526    1.1391 H   0  0  0  0  0  0  0  0  0  0  0  0
    0.2351    2.8306    1.9935 H   0  0  0  0  0  0  0  0  0  0  0  0
    0.3551    1.7419   -0.8744 H   0  0  0  0  0  0  0  0  0  0  0  0
    2.0203   -0.3091   -0.7583 H   0  0  0  0  0  0  0  0  0  0  0  0
    3.3912    0.6236   -2.4271 H   0  0  0  0  0  0  0  0  0  0  0  0
    3.6729    2.1651   -1.5107 H   0  0  0  0  0  0  0  0  0  0  0  0
    1.9916    1.6911   -2.0906 H   0  0  0  0  0  0  0  0  0  0  0  0
    4.5463    0.7434    0.5294 H   0  0  0  0  0  0  0  0  0  0  0  0
    5.9389    0.4870    2.2860 H   0  0  0  0  0  0  0  0  0  0  0  0
    6.7851    0.5533    0.6538 H   0  0  0  0  0  0  0  0  0  0  0  0
    7.6482    0.1336    2.1427 H   0  0  0  0  0  0  0  0  0  0  0  0
    8.9928   -1.4798    2.7343 H   0  0  0  0  0  0  0  0  0  0  0  0
   10.2104   -3.5623    3.2689 H   0  0  0  0  0  0  0  0  0  0  0  0
    9.1473   -5.7164    2.6501 H   0  0  0  0  0  0  0  0  0  0  0  0
    6.9515   -5.7647    1.5398 H   0  0  0  0  0  0  0  0  0  0  0  0
    4.6442   -3.8779    1.4934 H   0  0  0  0  0  0  0  0  0  0  0  0
    5.4276   -3.8398   -0.1669 H   0  0  0  0  0  0  0  0  0  0  0  0
   -0.8244    0.2945   -0.0048 H   0  0  0  0  0  0  0  0  0  0  0  0
   -3.6350    0.7683    0.9273 H   0  0  0  0  0  0  0  0  0  0  0  0
   -3.2422    0.1392   -1.5259 H   0  0  0  0  0  0  0  0  0  0  0  0
   -2.4521   -1.3392   -0.9833 H   0  0  0  0  0  0  0  0  0  0  0  0
   -4.6030   -2.1654    0.0095 H   0  0  0  0  0  0  0  0  0  0  0  0
   -5.8509   -0.4243    0.7272 H   0  0  0  0  0  0  0  0  0  0  0  0
   -5.5222    0.6237   -0.7629 H   0  0  0  0  0  0  0  0  0  0  0  0
   -7.8614   -0.5601   -0.4931 H   0  0  0  0  0  0  0  0  0  0  0  0
   -7.0817   -0.4665   -2.0942 H   0  0  0  0  0  0  0  0  0  0  0  0
   -7.2771   -2.8635   -0.1831 H   0  0  0  0  0  0  0  0  0  0  0  0
   -7.9599   -2.6179   -1.8105 H   0  0  0  0  0  0  0  0  0  0  0  0
   -5.3908   -3.7764   -1.2220 H   0  0  0  0  0  0  0  0  0  0  0  0
   -6.1581   -3.4866   -2.8093 H   0  0  0  0  0  0  0  0  0  0  0  0
   -5.2923   -1.1635   -2.7597 H   0  0  0  0  0  0  0  0  0  0  0  0
   -3.9257   -2.3253   -2.5760 H   0  0  0  0  0  0  0  0  0  0  0  0
   -0.8356   -1.3533    4.5573 H   0  0  0  0  0  0  0  0  0  0  0  0
   -2.5933   -1.4971    4.2902 H   0  0  0  0  0  0  0  0  0  0  0  0
   -1.5355   -2.8482    3.7473 H   0  0  0  0  0  0  0  0  0  0  0  0
   -0.2592   -1.8963    0.6477 H   0  0  0  0  0  0  0  0  0  0  0  0
    0.4525   -2.3696    2.2683 H   0  0  0  0  0  0  0  0  0  0  0  0
   -2.9858    4.4580   -0.2392 H   0  0  0  0  0  0  0  0  0  0  0  0
   -3.9686    4.5329   -2.4839 H   0  0  0  0  0  0  0  0  0  0  0  0
  1  2  1  0
  2  3  1  0
  3  4  2  0
  4  5  1  0
  5  6  2  0
  6  7  1  0
  7  8  1  0
  8  9  1  0
  9 10  1  0
 10 11  2  0
 10 12  1  0
 12 13  1  0
 12 14  1  0
 14 15  1  0
 15 16  2  0
 15 17  1  0
 17 18  2  0
 18 19  1  0
 18 20  1  0
 20 21  2  0
 21 22  1  0
 22 23  2  0
 23 24  1  0
 24 25  2  0
 25 26  1  0
  8 27  1  0
 27 28  2  0
 27 29  1  0
 29 30  1  0
 30 31  1  0
 31 32  1  0
 32 33  1  0
 33 34  1  0
 34 35  1  0
 35 36  1  0
 36 37  1  0
 30 38  1  0
 38 39  2  0
 38 40  1  0
 40 41  1  1
 40 42  1  0
 42 43  1  0
  6 44  1  0
 44 45  2  0
 45  3  1  0
 26 17  1  0
 37 32  1  0
 43 40  1  0
 25 20  1  0
  1 46  1  0
  1 47  1  0
  1 48  1  0
  4 49  1  0
  5 50  1  0
  7 51  1  0
  7 52  1  0
  8 53  1  1
  9 54  1  0
 12 55  1  6
 13 56  1  0
 13 57  1  0
 13 58  1  0
 14 59  1  0
 19 60  1  0
 19 61  1  0
 19 62  1  0
 21 63  1  0
 22 64  1  0
 23 65  1  0
 24 66  1  0
 26 67  1  0
 26 68  1  0
 29 69  1  0
 30 70  1  1
 31 71  1  0
 31 72  1  0
 32 73  1  0
 33 74  1  0
 33 75  1  0
 34 76  1  0
 34 77  1  0
 35 78  1  0
 35 79  1  0
 36 80  1  0
 36 81  1  0
 37 82  1  0
 37 83  1  0
 41 84  1  0
 41 85  1  0
 41 86  1  0
 42 87  1  0
 42 88  1  0
 44 89  1  0
 45 90  1  0
M  END
$$$$
