@<TRIPOS>MOLECULE
*****
 31 32 0 0 0
SMALL
GASTEIGER

@<TRIPOS>ATOM
      1 O           1.5487    0.4214    2.1425 O.2     1  UNL1       -0.2705
      2 C           0.9520    0.1950    1.0681 C.2     1  UNL1        0.2411
      3 C          -0.5254    0.2219    1.0542 C.2     1  UNL1        0.0010
      4 C          -1.2254   -0.0003   -0.0109 C.2     1  UNL1       -0.0497
      5 C          -2.6760    0.0311   -0.0022 C.ar    1  UNL1       -0.0246
      6 C          -3.4068    0.2923    1.1074 C.ar    1  UNL1       -0.0511
      7 C          -4.7995    0.3024    1.0255 C.ar    1  UNL1       -0.0196
      8 C          -5.4877    0.0601   -0.1285 C.ar    1  UNL1        0.1169
      9 O          -6.8796    0.0751   -0.1884 O.3     1  UNL1       -0.5068
     10 C          -4.7507   -0.2047   -1.2534 C.ar    1  UNL1       -0.0196
     11 C          -3.3823   -0.2194   -1.1947 C.ar    1  UNL1       -0.0511
     12 N           1.7455   -0.0721   -0.0627 N.am    1  UNL1       -0.2819
     13 C           3.1864   -0.0868    0.0029 C.ar    1  UNL1        0.0350
     14 C           3.9220    1.0531   -0.2191 C.ar    1  UNL1       -0.0404
     15 C           5.3071    1.0126   -0.1502 C.ar    1  UNL1       -0.0586
     16 C           5.9384   -0.1718    0.1409 C.ar    1  UNL1       -0.0433
     17 C           5.2097   -1.3218    0.3656 C.ar    1  UNL1        0.0427
     18 CL          6.0389   -2.8422    0.7400 Cl      1  UNL1       -0.0835
     19 C           3.8455   -1.2530    0.2912 C.ar    1  UNL1       -0.0221
     20 H          -1.0150    0.4383    1.9841 H       1  UNL1        0.0670
     21 H          -0.7091   -0.2213   -0.9589 H       1  UNL1        0.0625
     22 H          -2.9453    0.4939    2.0577 H       1  UNL1        0.0625
     23 H          -5.3308    0.5150    1.9342 H       1  UNL1        0.0654
     24 H          -7.3956    0.8894   -0.4898 H       1  UNL1        0.2921
     25 H          -5.2996   -0.3970   -2.1698 H       1  UNL1        0.0654
     26 H          -2.7983   -0.4268   -2.0752 H       1  UNL1        0.0625
     27 H           1.3054   -0.2642   -0.9684 H       1  UNL1        0.1551
     28 H           3.4207    1.9890   -0.4493 H       1  UNL1        0.0636
     29 H           5.9285    1.8791   -0.3163 H       1  UNL1        0.0619
     30 H           7.0313   -0.2466    0.2049 H       1  UNL1        0.0632
     31 H           3.2469   -2.1418    0.4633 H       1  UNL1        0.0651
@<TRIPOS>BOND
     1     1     2    2
     2     2     3    1
     3     3     4    2
     4     4     5    1
     5     5     6   ar
     6     6     7   ar
     7     7     8   ar
     8     8     9    1
     9     8    10   ar
    10    10    11   ar
    11     2    12   am
    12    12    13    1
    13    13    14   ar
    14    14    15   ar
    15    15    16   ar
    16    16    17   ar
    17    17    18    1
    18    17    19   ar
    19    11     5   ar
    20    19    13   ar
    21     3    20    1
    22     4    21    1
    23     6    22    1
    24     7    23    1
    25     9    24    1
    26    10    25    1
    27    11    26    1
    28    12    27    1
    29    14    28    1
    30    15    29    1
    31    16    30    1
    32    19    31    1
