
     RDKit          3D

 31 32  0  0  0  0  0  0  0  0999 V2000
    1.5487    0.4214    2.1425 O   0  0  0  0  0  0  0  0  0  0  0  0
    0.9520    0.1950    1.0681 C   0  0  0  0  0  0  0  0  0  0  0  0
   -0.5254    0.2219    1.0542 C   0  0  0  0  0  0  0  0  0  0  0  0
   -1.2254   -0.0003   -0.0109 C   0  0  0  0  0  0  0  0  0  0  0  0
   -2.6760    0.0311   -0.0022 C   0  0  0  0  0  0  0  0  0  0  0  0
   -3.4068    0.2923    1.1074 C   0  0  0  0  0  0  0  0  0  0  0  0
   -4.7995    0.3024    1.0255 C   0  0  0  0  0  0  0  0  0  0  0  0
   -5.4877    0.0601   -0.1285 C   0  0  0  0  0  0  0  0  0  0  0  0
   -6.8796    0.0751   -0.1884 O   0  0  0  0  0  0  0  0  0  0  0  0
   -4.7507   -0.2047   -1.2534 C   0  0  0  0  0  0  0  0  0  0  0  0
   -3.3823   -0.2194   -1.1947 C   0  0  0  0  0  0  0  0  0  0  0  0
    1.7455   -0.0721   -0.0627 N   0  0  0  0  0  0  0  0  0  0  0  0
    3.1864   -0.0868    0.0029 C   0  0  0  0  0  0  0  0  0  0  0  0
    3.9220    1.0531   -0.2191 C   0  0  0  0  0  0  0  0  0  0  0  0
    5.3071    1.0126   -0.1502 C   0  0  0  0  0  0  0  0  0  0  0  0
    5.9384   -0.1718    0.1409 C   0  0  0  0  0  0  0  0  0  0  0  0
    5.2097   -1.3218    0.3656 C   0  0  0  0  0  0  0  0  0  0  0  0
    6.0389   -2.8422    0.7400 Cl  0  0  0  0  0  0  0  0  0  0  0  0
    3.8455   -1.2530    0.2912 C   0  0  0  0  0  0  0  0  0  0  0  0
   -1.0150    0.4383    1.9841 H   0  0  0  0  0  0  0  0  0  0  0  0
   -0.7091   -0.2213   -0.9589 H   0  0  0  0  0  0  0  0  0  0  0  0
   -2.9453    0.4939    2.0577 H   0  0  0  0  0  0  0  0  0  0  0  0
   -5.3308    0.5150    1.9342 H   0  0  0  0  0  0  0  0  0  0  0  0
   -7.3956    0.8894   -0.4898 H   0  0  0  0  0  0  0  0  0  0  0  0
   -5.2996   -0.3970   -2.1698 H   0  0  0  0  0  0  0  0  0  0  0  0
   -2.7983   -0.4268   -2.0752 H   0  0  0  0  0  0  0  0  0  0  0  0
    1.3054   -0.2642   -0.9684 H   0  0  0  0  0  0  0  0  0  0  0  0
    3.4207    1.9890   -0.4493 H   0  0  0  0  0  0  0  0  0  0  0  0
    5.9285    1.8791   -0.3163 H   0  0  0  0  0  0  0  0  0  0  0  0
    7.0313   -0.2466    0.2049 H   0  0  0  0  0  0  0  0  0  0  0  0
    3.2469   -2.1418    0.4633 H   0  0  0  0  0  0  0  0  0  0  0  0
  1  2  2  0
  2  3  1  0
  3  4  2  0
  4  5  1  0
  5  6  2  0
  6  7  1  0
  7  8  2  0
  8  9  1  0
  8 10  1  0
 10 11  2  0
  2 12  1  0
 12 13  1  0
 13 14  2  0
 14 15  1  0
 15 16  2  0
 16 17  1  0
 17 18  1  0
 17 19  2  0
 11  5  1  0
 19 13  1  0
  3 20  1  0
  4 21  1  0
  6 22  1  0
  7 23  1  0
  9 24  1  0
 10 25  1  0
 11 26  1  0
 12 27  1  0
 14 28  1  0
 15 29  1  0
 16 30  1  0
 19 31  1  0
M  END
$$$$
