@<TRIPOS>MOLECULE
*****
 45 48 0 0 0
SMALL
GASTEIGER

@<TRIPOS>ATOM
      1 N          -4.0830    2.3826    1.3280 N.pl3   1  UNL1       -0.3413
      2 C          -3.7946    2.5000   -0.0525 C.ar    1  UNL1        0.1457
      3 N          -3.9099    3.5753   -0.8411 N.ar    1  UNL1       -0.1586
      4 N          -3.5476    3.2969   -2.0669 N.ar    1  UNL1       -0.2824
      5 C          -3.1758    2.0184   -2.1394 C.ar    1  UNL1        0.0320
      6 C          -3.3181    1.4783   -0.8822 C.ar    1  UNL1        0.0443
      7 C          -3.0556    0.1308   -0.4020 C.ar    1  UNL1        0.0297
      8 C          -3.9989   -0.8767   -0.4012 C.ar    1  UNL1       -0.0387
      9 C          -3.6859   -2.1485    0.0726 C.ar    1  UNL1        0.0556
     10 C          -4.7176   -3.2171    0.0633 C.3     1  UNL1        0.4174
     11 F          -5.8538   -2.8184   -0.5731 F       1  UNL1       -0.1659
     12 F          -4.1707   -4.3077   -0.6166 F       1  UNL1       -0.1659
     13 F          -4.9724   -3.6390    1.3387 F       1  UNL1       -0.1659
     14 C          -2.4240   -2.4154    0.5484 C.ar    1  UNL1       -0.0466
     15 C          -1.4560   -1.4051    0.5549 C.ar    1  UNL1       -0.0182
     16 C          -1.7847   -0.1402    0.0775 C.ar    1  UNL1        0.1364
     17 O          -0.8567    0.8789    0.0653 O.3     1  UNL1       -0.4539
     18 C           0.4379    0.6277    0.4693 C.ar    1  UNL1        0.1495
     19 C           0.9206    1.2738    1.5867 C.ar    1  UNL1        0.0193
     20 C           2.2248    1.0521    2.0319 C.ar    1  UNL1        0.1535
     21 F           2.6597    1.7052    3.1315 F       1  UNL1       -0.2033
     22 C           3.0696    0.1846    1.3731 C.ar    1  UNL1        0.1452
     23 S           4.6761   -0.0236    2.0181 S.O2    1  UNL1        0.0767
     24 O           4.5826   -0.4615    3.4489 O.2     1  UNL1       -0.1498
     25 O           5.3114    1.3615    2.0573 O.2     1  UNL1       -0.1498
     26 N           5.6472   -1.0882    1.1206 N.pl3   1  UNL1       -0.1923
     27 C           6.0005   -0.8237   -0.2755 C.ar    1  UNL1        0.2004
     28 N           6.6482   -1.3709   -1.1518 N.ar    1  UNL1       -0.1248
     29 N           6.8103   -0.9011   -2.3351 N.ar    1  UNL1       -0.1481
     30 C           6.3145    0.1746   -2.7081 C.ar    1  UNL1        0.0902
     31 S           5.4387    0.6705   -1.1355 S.2     1  UNL1       -0.0376
     32 C           2.5982   -0.4626    0.2601 C.ar    1  UNL1       -0.0103
     33 C           1.2929   -0.2426   -0.1889 C.ar    1  UNL1        0.0852
     34 CL          0.7613   -1.0668   -1.6283 Cl      1  UNL1       -0.0797
     35 H          -3.7218    3.0976    1.9773 H       1  UNL1        0.1438
     36 H          -4.6460    1.5996    1.7040 H       1  UNL1        0.1438
     37 H          -3.5372    3.9459   -2.8869 H       1  UNL1        0.1883
     38 H          -2.8231    1.4591   -2.9886 H       1  UNL1        0.0830
     39 H          -4.9834   -0.6355   -0.7818 H       1  UNL1        0.0630
     40 H          -2.2096   -3.4060    0.9082 H       1  UNL1        0.0624
     41 H          -0.4847   -1.6453    0.9467 H       1  UNL1        0.0655
     42 H           0.2813    1.9589    2.1226 H       1  UNL1        0.0684
     43 H           6.0259   -1.9482    1.5006 H       1  UNL1        0.1758
     44 H           6.2701    0.8151   -3.6063 H       1  UNL1        0.0927
     45 H           3.2394   -1.1433   -0.2634 H       1  UNL1        0.0654
@<TRIPOS>BOND
     1     1     2    1
     2     2     3   ar
     3     3     4   ar
     4     4     5   ar
     5     5     6   ar
     6     6     7    1
     7     7     8   ar
     8     8     9   ar
     9     9    10    1
    10    10    11    1
    11    10    12    1
    12    10    13    1
    13     9    14   ar
    14    14    15   ar
    15    15    16   ar
    16    16    17    1
    17    17    18    1
    18    18    19   ar
    19    19    20   ar
    20    20    21    1
    21    20    22   ar
    22    22    23    1
    23    23    24    2
    24    23    25    2
    25    23    26    1
    26    26    27    1
    27    27    28   ar
    28    28    29   ar
    29    29    30   ar
    30    30    31   ar
    31    22    32   ar
    32    32    33   ar
    33    33    34    1
    34     6     2   ar
    35    16     7   ar
    36    33    18   ar
    37    31    27   ar
    38     1    35    1
    39     1    36    1
    40     4    37    1
    41     5    38    1
    42     8    39    1
    43    14    40    1
    44    15    41    1
    45    19    42    1
    46    26    43    1
    47    30    44    1
    48    32    45    1
