
     RDKit          3D

 45 48  0  0  0  0  0  0  0  0999 V2000
   -4.0830    2.3826    1.3280 N   0  0  0  0  0  0  0  0  0  0  0  0
   -3.7946    2.5000   -0.0525 C   0  0  0  0  0  0  0  0  0  0  0  0
   -3.9099    3.5753   -0.8411 N   0  0  0  0  0  0  0  0  0  0  0  0
   -3.5476    3.2969   -2.0669 N   0  0  0  0  0  0  0  0  0  0  0  0
   -3.1758    2.0184   -2.1394 C   0  0  0  0  0  0  0  0  0  0  0  0
   -3.3181    1.4783   -0.8822 C   0  0  0  0  0  0  0  0  0  0  0  0
   -3.0556    0.1308   -0.4020 C   0  0  0  0  0  0  0  0  0  0  0  0
   -3.9989   -0.8767   -0.4012 C   0  0  0  0  0  0  0  0  0  0  0  0
   -3.6859   -2.1485    0.0726 C   0  0  0  0  0  0  0  0  0  0  0  0
   -4.7176   -3.2171    0.0633 C   0  0  0  0  0  0  0  0  0  0  0  0
   -5.8538   -2.8184   -0.5731 F   0  0  0  0  0  0  0  0  0  0  0  0
   -4.1707   -4.3077   -0.6166 F   0  0  0  0  0  0  0  0  0  0  0  0
   -4.9724   -3.6390    1.3387 F   0  0  0  0  0  0  0  0  0  0  0  0
   -2.4240   -2.4154    0.5484 C   0  0  0  0  0  0  0  0  0  0  0  0
   -1.4560   -1.4051    0.5549 C   0  0  0  0  0  0  0  0  0  0  0  0
   -1.7847   -0.1402    0.0775 C   0  0  0  0  0  0  0  0  0  0  0  0
   -0.8567    0.8789    0.0653 O   0  0  0  0  0  0  0  0  0  0  0  0
    0.4379    0.6277    0.4693 C   0  0  0  0  0  0  0  0  0  0  0  0
    0.9206    1.2738    1.5867 C   0  0  0  0  0  0  0  0  0  0  0  0
    2.2248    1.0521    2.0319 C   0  0  0  0  0  0  0  0  0  0  0  0
    2.6597    1.7052    3.1315 F   0  0  0  0  0  0  0  0  0  0  0  0
    3.0696    0.1846    1.3731 C   0  0  0  0  0  0  0  0  0  0  0  0
    4.6761   -0.0236    2.0181 S   0  0  0  0  0  6  0  0  0  0  0  0
    4.5826   -0.4615    3.4489 O   0  0  0  0  0  0  0  0  0  0  0  0
    5.3114    1.3615    2.0573 O   0  0  0  0  0  0  0  0  0  0  0  0
    5.6472   -1.0882    1.1206 N   0  0  0  0  0  0  0  0  0  0  0  0
    6.0005   -0.8237   -0.2755 C   0  0  0  0  0  0  0  0  0  0  0  0
    6.6482   -1.3709   -1.1518 N   0  0  0  0  0  0  0  0  0  0  0  0
    6.8103   -0.9011   -2.3351 N   0  0  0  0  0  0  0  0  0  0  0  0
    6.3145    0.1746   -2.7081 C   0  0  0  0  0  0  0  0  0  0  0  0
    5.4387    0.6705   -1.1355 S   0  0  0  0  0  0  0  0  0  0  0  0
    2.5982   -0.4626    0.2601 C   0  0  0  0  0  0  0  0  0  0  0  0
    1.2929   -0.2426   -0.1889 C   0  0  0  0  0  0  0  0  0  0  0  0
    0.7613   -1.0668   -1.6283 Cl  0  0  0  0  0  0  0  0  0  0  0  0
   -3.7218    3.0976    1.9773 H   0  0  0  0  0  0  0  0  0  0  0  0
   -4.6460    1.5996    1.7040 H   0  0  0  0  0  0  0  0  0  0  0  0
   -3.5372    3.9459   -2.8869 H   0  0  0  0  0  0  0  0  0  0  0  0
   -2.8231    1.4591   -2.9886 H   0  0  0  0  0  0  0  0  0  0  0  0
   -4.9834   -0.6355   -0.7818 H   0  0  0  0  0  0  0  0  0  0  0  0
   -2.2096   -3.4060    0.9082 H   0  0  0  0  0  0  0  0  0  0  0  0
   -0.4847   -1.6453    0.9467 H   0  0  0  0  0  0  0  0  0  0  0  0
    0.2813    1.9589    2.1226 H   0  0  0  0  0  0  0  0  0  0  0  0
    6.0259   -1.9482    1.5006 H   0  0  0  0  0  0  0  0  0  0  0  0
    6.2701    0.8151   -3.6063 H   0  0  0  0  0  0  0  0  0  0  0  0
    3.2394   -1.1433   -0.2634 H   0  0  0  0  0  0  0  0  0  0  0  0
  1  2  1  0
  2  3  2  0
  3  4  1  0
  4  5  1  0
  5  6  2  0
  6  7  1  0
  7  8  2  0
  8  9  1  0
  9 10  1  0
 10 11  1  0
 10 12  1  0
 10 13  1  0
  9 14  2  0
 14 15  1  0
 15 16  2  0
 16 17  1  0
 17 18  1  0
 18 19  2  0
 19 20  1  0
 20 21  1  0
 20 22  2  0
 22 23  1  0
 23 24  2  0
 23 25  2  0
 23 26  1  0
 26 27  1  0
 27 28  2  0
 28 29  1  0
 29 30  2  0
 30 31  1  0
 22 32  1  0
 32 33  2  0
 33 34  1  0
  6  2  1  0
 16  7  1  0
 33 18  1  0
 31 27  1  0
  1 35  1  0
  1 36  1  0
  4 37  1  0
  5 38  1  0
  8 39  1  0
 14 40  1  0
 15 41  1  0
 19 42  1  0
 26 43  1  0
 30 44  1  0
 32 45  1  0
M  END
$$$$
