
     RDKit          3D

 48 51  0  0  0  0  0  0  0  0999 V2000
   -7.9597   -1.0498    1.0545 O   0  0  0  0  0  0  0  0  0  0  0  0
   -8.1932    0.0328    0.4662 C   0  0  0  0  0  0  0  0  0  0  0  0
   -9.5048    0.4498    0.3223 O   0  0  0  0  0  0  0  0  0  0  0  0
   -7.1094    0.8475   -0.0615 C   0  0  0  0  0  0  0  0  0  0  0  0
   -7.3755    2.0322   -0.7045 C   0  0  0  0  0  0  0  0  0  0  0  0
   -6.3408    2.7496   -1.1747 N   0  0  0  0  0  0  0  0  0  0  0  0
   -5.0669    2.3627   -1.0449 C   0  0  0  0  0  0  0  0  0  0  0  0
   -4.7294    1.1642   -0.3991 C   0  0  0  0  0  0  0  0  0  0  0  0
   -3.3483    0.7552   -0.2643 C   0  0  0  0  0  0  0  0  0  0  0  0
   -2.9840   -0.4037    0.3577 C   0  0  0  0  0  0  0  0  0  0  0  0
   -1.6443   -0.7689    0.4708 C   0  0  0  0  0  0  0  0  0  0  0  0
   -0.6948    0.0580   -0.0547 C   0  0  0  0  0  0  0  0  0  0  0  0
    0.6817   -0.2534    0.0265 N   0  0  0  0  0  0  0  0  0  0  0  0
    1.6391    0.6617   -0.5637 C   0  0  0  0  0  0  0  0  0  0  0  0
    2.3604   -0.1295   -1.6512 C   0  0  0  0  0  0  0  0  0  0  0  0
    3.1605   -1.2157   -0.9071 C   0  0  0  0  0  0  0  0  0  0  0  0
    3.9452   -0.5799   -0.0060 O   0  0  0  0  0  0  0  0  0  0  0  0
    5.2097   -0.3339    0.3053 C   0  0  0  0  0  0  0  0  0  0  0  0
    5.4632    0.4522    1.4473 C   0  0  0  0  0  0  0  0  0  0  0  0
    6.7331    0.7620    1.8519 C   0  0  0  0  0  0  0  0  0  0  0  0
    7.8318    0.3166    1.1567 C   0  0  0  0  0  0  0  0  0  0  0  0
    7.5848   -0.4477    0.0463 C   0  0  0  0  0  0  0  0  0  0  0  0
    6.2962   -0.7790   -0.3891 C   0  0  0  0  0  0  0  0  0  0  0  0
    6.1849   -1.8497   -1.9538 Br  0  0  0  0  0  0  0  0  0  0  0  0
    2.1705   -2.1782   -0.2467 C   0  0  0  0  0  0  0  0  0  0  0  0
    1.2178   -1.4265    0.6594 C   0  0  0  0  0  0  0  0  0  0  0  0
   -1.0868    1.1877   -0.6585 N   0  0  0  0  0  0  0  0  0  0  0  0
   -2.3531    1.5242   -0.7606 N   0  0  0  0  0  0  0  0  0  0  0  0
   -5.7771    0.4291    0.0819 C   0  0  0  0  0  0  0  0  0  0  0  0
  -10.2815   -0.2265    0.2693 H   0  0  0  0  0  0  0  0  0  0  0  0
   -8.3919    2.4071   -0.8449 H   0  0  0  0  0  0  0  0  0  0  0  0
   -4.2195    2.9428   -1.4258 H   0  0  0  0  0  0  0  0  0  0  0  0
   -3.7335   -1.0781    0.7846 H   0  0  0  0  0  0  0  0  0  0  0  0
   -1.4339   -1.6964    0.9737 H   0  0  0  0  0  0  0  0  0  0  0  0
    1.1815    1.5811   -0.9497 H   0  0  0  0  0  0  0  0  0  0  0  0
    2.3948    0.8702    0.2422 H   0  0  0  0  0  0  0  0  0  0  0  0
    1.5877   -0.6643   -2.2397 H   0  0  0  0  0  0  0  0  0  0  0  0
    3.0188    0.4840   -2.2634 H   0  0  0  0  0  0  0  0  0  0  0  0
    3.7338   -1.7338   -1.6884 H   0  0  0  0  0  0  0  0  0  0  0  0
    4.6159    0.8111    2.0062 H   0  0  0  0  0  0  0  0  0  0  0  0
    6.8759    1.3750    2.7446 H   0  0  0  0  0  0  0  0  0  0  0  0
    8.8140    0.5783    1.5019 H   0  0  0  0  0  0  0  0  0  0  0  0
    8.4655   -0.7987   -0.5023 H   0  0  0  0  0  0  0  0  0  0  0  0
    1.5699   -2.6110   -1.0695 H   0  0  0  0  0  0  0  0  0  0  0  0
    2.7205   -2.9640    0.2777 H   0  0  0  0  0  0  0  0  0  0  0  0
    0.5075   -2.0941    1.1336 H   0  0  0  0  0  0  0  0  0  0  0  0
    1.8702   -1.0396    1.5016 H   0  0  0  0  0  0  0  0  0  0  0  0
   -5.6067   -0.5123    0.5956 H   0  0  0  0  0  0  0  0  0  0  0  0
  1  2  2  0
  2  3  1  0
  2  4  1  0
  4  5  2  0
  5  6  1  0
  6  7  2  0
  7  8  1  0
  8  9  1  0
  9 10  2  0
 10 11  1  0
 11 12  2  0
 12 13  1  0
 13 14  1  0
 14 15  1  0
 15 16  1  0
 16 17  1  0
 17 18  1  0
 18 19  2  0
 19 20  1  0
 20 21  2  0
 21 22  1  0
 22 23  2  0
 23 24  1  0
 16 25  1  0
 25 26  1  0
 12 27  1  0
 27 28  2  0
  8 29  2  0
 29  4  1  0
 28  9  1  0
 26 13  1  0
 23 18  1  0
  3 30  1  0
  5 31  1  0
  7 32  1  0
 10 33  1  0
 11 34  1  0
 14 35  1  0
 14 36  1  0
 15 37  1  0
 15 38  1  0
 16 39  1  0
 19 40  1  0
 20 41  1  0
 21 42  1  0
 22 43  1  0
 25 44  1  0
 25 45  1  0
 26 46  1  0
 26 47  1  0
 29 48  1  0
M  END
$$$$
