@<TRIPOS>MOLECULE
*****
 48 51 0 0 0
SMALL
GASTEIGER

@<TRIPOS>ATOM
      1 O          -7.9597   -1.0498    1.0545 O.2     1  UNL1       -0.2451
      2 C          -8.1932    0.0328    0.4662 C.2     1  UNL1        0.3383
      3 O          -9.5048    0.4498    0.3223 O.3     1  UNL1       -0.4771
      4 C          -7.1094    0.8475   -0.0615 C.ar    1  UNL1        0.0775
      5 C          -7.3755    2.0322   -0.7045 C.ar    1  UNL1        0.0416
      6 N          -6.3408    2.7496   -1.1747 N.ar    1  UNL1       -0.2618
      7 C          -5.0669    2.3627   -1.0449 C.ar    1  UNL1        0.0368
      8 C          -4.7294    1.1642   -0.3991 C.ar    1  UNL1        0.0210
      9 C          -3.3483    0.7552   -0.2643 C.ar    1  UNL1        0.0949
     10 C          -2.9840   -0.4037    0.3577 C.ar    1  UNL1       -0.0306
     11 C          -1.6443   -0.7689    0.4708 C.ar    1  UNL1       -0.0179
     12 C          -0.6948    0.0580   -0.0547 C.ar    1  UNL1        0.1438
     13 N           0.6817   -0.2534    0.0265 N.pl3   1  UNL1       -0.3135
     14 C           1.6391    0.6617   -0.5637 C.3     1  UNL1        0.0169
     15 C           2.3604   -0.1295   -1.6512 C.3     1  UNL1        0.0001
     16 C           3.1605   -1.2157   -0.9071 C.3     1  UNL1        0.1031
     17 O           3.9452   -0.5799   -0.0060 O.3     1  UNL1       -0.4876
     18 C           5.2097   -0.3339    0.3053 C.ar    1  UNL1        0.1348
     19 C           5.4632    0.4522    1.4473 C.ar    1  UNL1       -0.0188
     20 C           6.7331    0.7620    1.8519 C.ar    1  UNL1       -0.0582
     21 C           7.8318    0.3166    1.1567 C.ar    1  UNL1       -0.0605
     22 C           7.5848   -0.4477    0.0463 C.ar    1  UNL1       -0.0442
     23 C           6.2962   -0.7790   -0.3891 C.ar    1  UNL1        0.0595
     24 BR          6.1849   -1.8497   -1.9538 Br      1  UNL1       -0.0465
     25 C           2.1705   -2.1782   -0.2467 C.3     1  UNL1        0.0001
     26 C           1.2178   -1.4265    0.6594 C.3     1  UNL1        0.0169
     27 N          -1.0868    1.1877   -0.6585 N.ar    1  UNL1       -0.1336
     28 N          -2.3531    1.5242   -0.7606 N.ar    1  UNL1       -0.1474
     29 C          -5.7771    0.4291    0.0819 C.ar    1  UNL1       -0.0356
     30 H         -10.2815   -0.2265    0.2693 H       1  UNL1        0.2954
     31 H          -8.3919    2.4071   -0.8449 H       1  UNL1        0.0838
     32 H          -4.2195    2.9428   -1.4258 H       1  UNL1        0.0836
     33 H          -3.7335   -1.0781    0.7846 H       1  UNL1        0.0641
     34 H          -1.4339   -1.6964    0.9737 H       1  UNL1        0.0653
     35 H           1.1815    1.5811   -0.9497 H       1  UNL1        0.0465
     36 H           2.3948    0.8702    0.2422 H       1  UNL1        0.0465
     37 H           1.5877   -0.6643   -2.2397 H       1  UNL1        0.0316
     38 H           3.0188    0.4840   -2.2634 H       1  UNL1        0.0316
     39 H           3.7338   -1.7338   -1.6884 H       1  UNL1        0.0734
     40 H           4.6159    0.8111    2.0062 H       1  UNL1        0.0654
     41 H           6.8759    1.3750    2.7446 H       1  UNL1        0.0619
     42 H           8.8140    0.5783    1.5019 H       1  UNL1        0.0618
     43 H           8.4655   -0.7987   -0.5023 H       1  UNL1        0.0630
     44 H           1.5699   -2.6110   -1.0695 H       1  UNL1        0.0316
     45 H           2.7205   -2.9640    0.2777 H       1  UNL1        0.0316
     46 H           0.5075   -2.0941    1.1336 H       1  UNL1        0.0465
     47 H           1.8702   -1.0396    1.5016 H       1  UNL1        0.0465
     48 H          -5.6067   -0.5123    0.5956 H       1  UNL1        0.0633
@<TRIPOS>BOND
     1     1     2    2
     2     2     3    1
     3     2     4    1
     4     4     5   ar
     5     5     6   ar
     6     6     7   ar
     7     7     8   ar
     8     8     9    1
     9     9    10   ar
    10    10    11   ar
    11    11    12   ar
    12    12    13    1
    13    13    14    1
    14    14    15    1
    15    15    16    1
    16    16    17    1
    17    17    18    1
    18    18    19   ar
    19    19    20   ar
    20    20    21   ar
    21    21    22   ar
    22    22    23   ar
    23    23    24    1
    24    16    25    1
    25    25    26    1
    26    12    27   ar
    27    27    28   ar
    28     8    29   ar
    29    29     4   ar
    30    28     9   ar
    31    26    13    1
    32    23    18   ar
    33     3    30    1
    34     5    31    1
    35     7    32    1
    36    10    33    1
    37    11    34    1
    38    14    35    1
    39    14    36    1
    40    15    37    1
    41    15    38    1
    42    16    39    1
    43    19    40    1
    44    20    41    1
    45    21    42    1
    46    22    43    1
    47    25    44    1
    48    25    45    1
    49    26    46    1
    50    26    47    1
    51    29    48    1
