
     RDKit          3D

 74 77  0  0  0  0  0  0  0  0999 V2000
    8.8145   -2.3196   -1.3610 C   0  0  0  0  0  0  0  0  0  0  0  0
    8.9635   -1.0043   -0.6209 C   0  0  0  0  0  0  0  0  0  0  0  0
    9.5565   -1.2063    0.7614 C   0  0  0  0  0  0  0  0  0  0  0  0
    9.8175   -0.0348   -1.4020 C   0  0  0  0  0  0  0  0  0  0  0  0
    7.5896   -0.4329   -0.4434 C   0  0  0  0  0  0  0  0  0  0  0  0
    7.0146    0.4004   -1.3666 C   0  0  0  0  0  0  0  0  0  0  0  0
    5.7531    0.9101   -1.1789 C   0  0  0  0  0  0  0  0  0  0  0  0
    5.0028    0.6139   -0.0615 C   0  0  0  0  0  0  0  0  0  0  0  0
    3.6654    1.1420    0.1553 C   0  0  0  0  0  0  0  0  0  0  0  0
    3.1581    1.8951   -0.6933 O   0  0  0  0  0  0  0  0  0  0  0  0
    2.9382    0.7705    1.3817 C   0  0  0  0  0  0  0  0  0  0  0  0
    1.5459    1.3412    1.4173 C   0  0  0  0  0  0  0  0  0  0  0  0
    0.6656    0.8836    0.3233 C   0  0  0  0  0  0  0  0  0  0  0  0
   -0.6740    1.4296    0.3576 N   0  0  0  0  0  0  0  0  0  0  0  0
   -1.4242    0.9263    1.4881 C   0  0  0  0  0  0  0  0  0  0  0  0
   -2.5189   -0.0183    1.0555 C   0  0  0  0  0  0  0  0  0  0  0  0
   -3.5231    0.7607    0.2036 C   0  0  0  0  0  0  0  0  0  0  0  0
   -4.5403   -0.0234   -0.2459 O   0  0  0  0  0  0  0  0  0  0  0  0
   -5.8115    0.3650    0.0772 C   0  0  0  0  0  0  0  0  0  0  0  0
   -6.4339   -0.7124    0.8954 C   0  0  0  0  0  0  0  0  0  0  0  0
   -6.3049   -2.0578    0.6154 C   0  0  0  0  0  0  0  0  0  0  0  0
   -6.8810   -3.0422    1.3671 C   0  0  0  0  0  0  0  0  0  0  0  0
   -7.6310   -2.7081    2.4611 C   0  0  0  0  0  0  0  0  0  0  0  0
   -7.7765   -1.3671    2.7648 C   0  0  0  0  0  0  0  0  0  0  0  0
   -7.2005   -0.3681    2.0142 C   0  0  0  0  0  0  0  0  0  0  0  0
   -6.5709    0.5883   -1.1876 C   0  0  0  0  0  0  0  0  0  0  0  0
   -6.4766   -0.2467   -2.2809 C   0  0  0  0  0  0  0  0  0  0  0  0
   -7.2138    0.0010   -3.4424 C   0  0  0  0  0  0  0  0  0  0  0  0
   -8.0606    1.0834   -3.5435 C   0  0  0  0  0  0  0  0  0  0  0  0
   -8.1549    1.9187   -2.4499 C   0  0  0  0  0  0  0  0  0  0  0  0
   -7.4327    1.6824   -1.3021 C   0  0  0  0  0  0  0  0  0  0  0  0
   -2.7490    1.2618   -0.9876 C   0  0  0  0  0  0  0  0  0  0  0  0
   -1.2807    1.0483   -0.9026 C   0  0  0  0  0  0  0  0  0  0  0  0
    5.5991   -0.2357    0.8713 C   0  0  0  0  0  0  0  0  0  0  0  0
    6.8605   -0.7483    0.6886 C   0  0  0  0  0  0  0  0  0  0  0  0
    9.7785   -2.8183   -1.5260 H   0  0  0  0  0  0  0  0  0  0  0  0
    8.1415   -2.9695   -0.7705 H   0  0  0  0  0  0  0  0  0  0  0  0
    8.2874   -2.0772   -2.3132 H   0  0  0  0  0  0  0  0  0  0  0  0
   10.6630   -1.1677    0.7590 H   0  0  0  0  0  0  0  0  0  0  0  0
    9.2068   -2.1971    1.1233 H   0  0  0  0  0  0  0  0  0  0  0  0
    9.1809   -0.4137    1.4682 H   0  0  0  0  0  0  0  0  0  0  0  0
    9.3654    0.9762   -1.2616 H   0  0  0  0  0  0  0  0  0  0  0  0
   10.8601    0.0020   -0.9912 H   0  0  0  0  0  0  0  0  0  0  0  0
    9.7961   -0.2926   -2.4731 H   0  0  0  0  0  0  0  0  0  0  0  0
    7.5902    0.6416   -2.2470 H   0  0  0  0  0  0  0  0  0  0  0  0
    5.3035    1.5741   -1.9214 H   0  0  0  0  0  0  0  0  0  0  0  0
    2.9160   -0.3511    1.5061 H   0  0  0  0  0  0  0  0  0  0  0  0
    3.4858    1.2166    2.2514 H   0  0  0  0  0  0  0  0  0  0  0  0
    1.6695    2.4586    1.3019 H   0  0  0  0  0  0  0  0  0  0  0  0
    1.1394    1.2084    2.4305 H   0  0  0  0  0  0  0  0  0  0  0  0
    1.0508    1.0287   -0.6974 H   0  0  0  0  0  0  0  0  0  0  0  0
    0.5565   -0.2374    0.4312 H   0  0  0  0  0  0  0  0  0  0  0  0
   -1.9202    1.7887    1.9767 H   0  0  0  0  0  0  0  0  0  0  0  0
   -0.7680    0.4145    2.2150 H   0  0  0  0  0  0  0  0  0  0  0  0
   -3.0355   -0.4800    1.9058 H   0  0  0  0  0  0  0  0  0  0  0  0
   -2.0664   -0.8236    0.4489 H   0  0  0  0  0  0  0  0  0  0  0  0
   -3.8574    1.6458    0.7909 H   0  0  0  0  0  0  0  0  0  0  0  0
   -5.8246    1.3070    0.6850 H   0  0  0  0  0  0  0  0  0  0  0  0
   -5.7048   -2.3662   -0.2560 H   0  0  0  0  0  0  0  0  0  0  0  0
   -6.7514   -4.0755    1.1080 H   0  0  0  0  0  0  0  0  0  0  0  0
   -8.1144   -3.4540    3.0975 H   0  0  0  0  0  0  0  0  0  0  0  0
   -8.3760   -1.0931    3.6402 H   0  0  0  0  0  0  0  0  0  0  0  0
   -7.3043    0.6920    2.2386 H   0  0  0  0  0  0  0  0  0  0  0  0
   -5.8277   -1.1032   -2.2558 H   0  0  0  0  0  0  0  0  0  0  0  0
   -7.1241   -0.6608   -4.2784 H   0  0  0  0  0  0  0  0  0  0  0  0
   -8.6176    1.2487   -4.4546 H   0  0  0  0  0  0  0  0  0  0  0  0
   -8.8153    2.7574   -2.5368 H   0  0  0  0  0  0  0  0  0  0  0  0
   -7.5126    2.3456   -0.4449 H   0  0  0  0  0  0  0  0  0  0  0  0
   -3.0246    2.3185   -1.2261 H   0  0  0  0  0  0  0  0  0  0  0  0
   -3.1025    0.6876   -1.8794 H   0  0  0  0  0  0  0  0  0  0  0  0
   -1.0046   -0.0058   -1.0889 H   0  0  0  0  0  0  0  0  0  0  0  0
   -0.7937    1.6507   -1.6883 H   0  0  0  0  0  0  0  0  0  0  0  0
    4.9999   -0.4630    1.7485 H   0  0  0  0  0  0  0  0  0  0  0  0
    7.2680   -1.4090    1.4604 H   0  0  0  0  0  0  0  0  0  0  0  0
  1  2  1  0
  2  3  1  0
  2  4  1  0
  2  5  1  0
  5  6  2  0
  6  7  1  0
  7  8  2  0
  8  9  1  0
  9 10  2  0
  9 11  1  0
 11 12  1  0
 12 13  1  0
 13 14  1  0
 14 15  1  0
 15 16  1  0
 16 17  1  0
 17 18  1  0
 18 19  1  0
 19 20  1  0
 20 21  2  0
 21 22  1  0
 22 23  2  0
 23 24  1  0
 24 25  2  0
 19 26  1  0
 26 27  2  0
 27 28  1  0
 28 29  2  0
 29 30  1  0
 30 31  2  0
 17 32  1  0
 32 33  1  0
  8 34  1  0
 34 35  2  0
 35  5  1  0
 33 14  1  0
 25 20  1  0
 31 26  1  0
  1 36  1  0
  1 37  1  0
  1 38  1  0
  3 39  1  0
  3 40  1  0
  3 41  1  0
  4 42  1  0
  4 43  1  0
  4 44  1  0
  6 45  1  0
  7 46  1  0
 11 47  1  0
 11 48  1  0
 12 49  1  0
 12 50  1  0
 13 51  1  0
 13 52  1  0
 15 53  1  0
 15 54  1  0
 16 55  1  0
 16 56  1  0
 17 57  1  0
 19 58  1  0
 21 59  1  0
 22 60  1  0
 23 61  1  0
 24 62  1  0
 25 63  1  0
 27 64  1  0
 28 65  1  0
 29 66  1  0
 30 67  1  0
 31 68  1  0
 32 69  1  0
 32 70  1  0
 33 71  1  0
 33 72  1  0
 34 73  1  0
 35 74  1  0
M  END
$$$$
