@<TRIPOS>MOLECULE
*****
 74 77 0 0 0
SMALL
GASTEIGER

@<TRIPOS>ATOM
      1 C           8.8145   -2.3196   -1.3610 C.3     1  UNL1       -0.0560
      2 C           8.9635   -1.0043   -0.6209 C.3     1  UNL1       -0.0127
      3 C           9.5565   -1.2063    0.7614 C.3     1  UNL1       -0.0560
      4 C           9.8175   -0.0348   -1.4020 C.3     1  UNL1       -0.0560
      5 C           7.5896   -0.4329   -0.4434 C.ar    1  UNL1       -0.0419
      6 C           7.0146    0.4004   -1.3666 C.ar    1  UNL1       -0.0574
      7 C           5.7531    0.9101   -1.1789 C.ar    1  UNL1       -0.0510
      8 C           5.0028    0.6139   -0.0615 C.ar    1  UNL1        0.0174
      9 C           3.6654    1.1420    0.1553 C.2     1  UNL1        0.1632
     10 O           3.1581    1.8951   -0.6933 O.2     1  UNL1       -0.2921
     11 C           2.9382    0.7705    1.3817 C.3     1  UNL1        0.0116
     12 C           1.5459    1.3412    1.4173 C.3     1  UNL1       -0.0332
     13 C           0.6656    0.8836    0.3233 C.3     1  UNL1       -0.0007
     14 N          -0.6740    1.4296    0.3576 N.3     1  UNL1       -0.3021
     15 C          -1.4242    0.9263    1.4881 C.3     1  UNL1        0.0012
     16 C          -2.5189   -0.0183    1.0555 C.3     1  UNL1       -0.0137
     17 C          -3.5231    0.7607    0.2036 C.3     1  UNL1        0.0622
     18 O          -4.5403   -0.0234   -0.2459 O.3     1  UNL1       -0.3640
     19 C          -5.8115    0.3650    0.0772 C.3     1  UNL1        0.1090
     20 C          -6.4339   -0.7124    0.8954 C.ar    1  UNL1       -0.0145
     21 C          -6.3049   -2.0578    0.6154 C.ar    1  UNL1       -0.0558
     22 C          -6.8810   -3.0422    1.3671 C.ar    1  UNL1       -0.0614
     23 C          -7.6310   -2.7081    2.4611 C.ar    1  UNL1       -0.0617
     24 C          -7.7765   -1.3671    2.7648 C.ar    1  UNL1       -0.0614
     25 C          -7.2005   -0.3681    2.0142 C.ar    1  UNL1       -0.0558
     26 C          -6.5709    0.5883   -1.1876 C.ar    1  UNL1       -0.0145
     27 C          -6.4766   -0.2467   -2.2809 C.ar    1  UNL1       -0.0558
     28 C          -7.2138    0.0010   -3.4424 C.ar    1  UNL1       -0.0614
     29 C          -8.0606    1.0834   -3.5435 C.ar    1  UNL1       -0.0617
     30 C          -8.1549    1.9187   -2.4499 C.ar    1  UNL1       -0.0614
     31 C          -7.4327    1.6824   -1.3021 C.ar    1  UNL1       -0.0558
     32 C          -2.7490    1.2618   -0.9876 C.3     1  UNL1       -0.0137
     33 C          -1.2807    1.0483   -0.9026 C.3     1  UNL1        0.0012
     34 C           5.5991   -0.2357    0.8713 C.ar    1  UNL1       -0.0510
     35 C           6.8605   -0.7483    0.6886 C.ar    1  UNL1       -0.0574
     36 H           9.7785   -2.8183   -1.5260 H       1  UNL1        0.0238
     37 H           8.1415   -2.9695   -0.7705 H       1  UNL1        0.0238
     38 H           8.2874   -2.0772   -2.3132 H       1  UNL1        0.0238
     39 H          10.6630   -1.1677    0.7590 H       1  UNL1        0.0238
     40 H           9.2068   -2.1971    1.1233 H       1  UNL1        0.0238
     41 H           9.1809   -0.4137    1.4682 H       1  UNL1        0.0238
     42 H           9.3654    0.9762   -1.2616 H       1  UNL1        0.0238
     43 H          10.8601    0.0020   -0.9912 H       1  UNL1        0.0238
     44 H           9.7961   -0.2926   -2.4731 H       1  UNL1        0.0238
     45 H           7.5902    0.6416   -2.2470 H       1  UNL1        0.0621
     46 H           5.3035    1.5741   -1.9214 H       1  UNL1        0.0625
     47 H           2.9160   -0.3511    1.5061 H       1  UNL1        0.0345
     48 H           3.4858    1.2166    2.2514 H       1  UNL1        0.0345
     49 H           1.6695    2.4586    1.3019 H       1  UNL1        0.0282
     50 H           1.1394    1.2084    2.4305 H       1  UNL1        0.0282
     51 H           1.0508    1.0287   -0.6974 H       1  UNL1        0.0427
     52 H           0.5565   -0.2374    0.4312 H       1  UNL1        0.0427
     53 H          -1.9202    1.7887    1.9767 H       1  UNL1        0.0427
     54 H          -0.7680    0.4145    2.2150 H       1  UNL1        0.0427
     55 H          -3.0355   -0.4800    1.9058 H       1  UNL1        0.0302
     56 H          -2.0664   -0.8236    0.4489 H       1  UNL1        0.0302
     57 H          -3.8574    1.6458    0.7909 H       1  UNL1        0.0597
     58 H          -5.8246    1.3070    0.6850 H       1  UNL1        0.0697
     59 H          -5.7048   -2.3662   -0.2560 H       1  UNL1        0.0621
     60 H          -6.7514   -4.0755    1.1080 H       1  UNL1        0.0618
     61 H          -8.1144   -3.4540    3.0975 H       1  UNL1        0.0618
     62 H          -8.3760   -1.0931    3.6402 H       1  UNL1        0.0618
     63 H          -7.3043    0.6920    2.2386 H       1  UNL1        0.0621
     64 H          -5.8277   -1.1032   -2.2558 H       1  UNL1        0.0621
     65 H          -7.1241   -0.6608   -4.2784 H       1  UNL1        0.0618
     66 H          -8.6176    1.2487   -4.4546 H       1  UNL1        0.0618
     67 H          -8.8153    2.7574   -2.5368 H       1  UNL1        0.0618
     68 H          -7.5126    2.3456   -0.4449 H       1  UNL1        0.0621
     69 H          -3.0246    2.3185   -1.2261 H       1  UNL1        0.0302
     70 H          -3.1025    0.6876   -1.8794 H       1  UNL1        0.0302
     71 H          -1.0046   -0.0058   -1.0889 H       1  UNL1        0.0427
     72 H          -0.7937    1.6507   -1.6883 H       1  UNL1        0.0427
     73 H           4.9999   -0.4630    1.7485 H       1  UNL1        0.0625
     74 H           7.2680   -1.4090    1.4604 H       1  UNL1        0.0621
@<TRIPOS>BOND
     1     1     2    1
     2     2     3    1
     3     2     4    1
     4     2     5    1
     5     5     6   ar
     6     6     7   ar
     7     7     8   ar
     8     8     9    1
     9     9    10    2
    10     9    11    1
    11    11    12    1
    12    12    13    1
    13    13    14    1
    14    14    15    1
    15    15    16    1
    16    16    17    1
    17    17    18    1
    18    18    19    1
    19    19    20    1
    20    20    21   ar
    21    21    22   ar
    22    22    23   ar
    23    23    24   ar
    24    24    25   ar
    25    19    26    1
    26    26    27   ar
    27    27    28   ar
    28    28    29   ar
    29    29    30   ar
    30    30    31   ar
    31    17    32    1
    32    32    33    1
    33     8    34   ar
    34    34    35   ar
    35    35     5   ar
    36    33    14    1
    37    25    20   ar
    38    31    26   ar
    39     1    36    1
    40     1    37    1
    41     1    38    1
    42     3    39    1
    43     3    40    1
    44     3    41    1
    45     4    42    1
    46     4    43    1
    47     4    44    1
    48     6    45    1
    49     7    46    1
    50    11    47    1
    51    11    48    1
    52    12    49    1
    53    12    50    1
    54    13    51    1
    55    13    52    1
    56    15    53    1
    57    15    54    1
    58    16    55    1
    59    16    56    1
    60    17    57    1
    61    19    58    1
    62    21    59    1
    63    22    60    1
    64    23    61    1
    65    24    62    1
    66    25    63    1
    67    27    64    1
    68    28    65    1
    69    29    66    1
    70    30    67    1
    71    31    68    1
    72    32    69    1
    73    32    70    1
    74    33    71    1
    75    33    72    1
    76    34    73    1
    77    35    74    1
