@<TRIPOS>MOLECULE
*****
 36 37 0 0 0
SMALL
GASTEIGER

@<TRIPOS>ATOM
      1 C          -1.5951   -3.6153   -0.3391 C.3     1  UNL1        0.0817
      2 O          -1.1859   -2.2641   -0.4415 O.3     1  UNL1       -0.4675
      3 C          -0.7736   -1.5965    0.7022 C.2     1  UNL1        0.3158
      4 O          -0.7867   -2.2390    1.7820 O.2     1  UNL1       -0.2501
      5 C          -0.3295   -0.1578    0.6407 C.3     1  UNL1        0.0967
      6 C          -1.4514    0.6195    0.1377 C.ar    1  UNL1       -0.0321
      7 C          -2.0087    1.5792    0.9555 C.ar    1  UNL1       -0.0564
      8 C          -3.0690    2.3599    0.5655 C.ar    1  UNL1       -0.0431
      9 C          -3.5937    2.1686   -0.7027 C.ar    1  UNL1        0.0410
     10 CL         -4.9556    3.1456   -1.2514 Cl      1  UNL1       -0.0835
     11 C          -3.0361    1.2029   -1.5310 C.ar    1  UNL1       -0.0431
     12 C          -1.9725    0.4296   -1.1217 C.ar    1  UNL1       -0.0564
     13 C           0.8957   -0.1335   -0.2312 C.3     1  UNL1        0.0246
     14 C           1.4962    1.1999   -0.4233 C.3     1  UNL1       -0.0364
     15 C           2.7822    1.4325    0.3206 C.3     1  UNL1       -0.0505
     16 C           3.7124    0.2758    0.3179 C.3     1  UNL1       -0.0404
     17 C           3.0900   -0.9422   -0.3493 C.3     1  UNL1       -0.0038
     18 N           1.8067   -1.1332    0.2974 N.3     1  UNL1       -0.3121
     19 H          -0.9830   -4.1762   -1.0915 H       1  UNL1        0.0661
     20 H          -2.6454   -3.7717   -0.6204 H       1  UNL1        0.0661
     21 H          -1.3312   -4.0577    0.6417 H       1  UNL1        0.0661
     22 H          -0.0492    0.1302    1.6638 H       1  UNL1        0.0478
     23 H          -1.6170    1.7592    1.9715 H       1  UNL1        0.0621
     24 H          -3.4996    3.1160    1.2246 H       1  UNL1        0.0632
     25 H          -3.4825    1.0895   -2.5180 H       1  UNL1        0.0632
     26 H          -1.5618   -0.3231   -1.8090 H       1  UNL1        0.0621
     27 H           0.5690   -0.5339   -1.2367 H       1  UNL1        0.0472
     28 H           1.7211    1.3842   -1.5143 H       1  UNL1        0.0281
     29 H           0.8113    2.0459   -0.1406 H       1  UNL1        0.0281
     30 H           2.5375    1.7929    1.3299 H       1  UNL1        0.0266
     31 H           3.3096    2.2888   -0.1943 H       1  UNL1        0.0266
     32 H           3.8802   -0.0328    1.3914 H       1  UNL1        0.0277
     33 H           4.7077    0.4832   -0.0895 H       1  UNL1        0.0277
     34 H           2.9239   -0.6855   -1.4045 H       1  UNL1        0.0424
     35 H           3.7785   -1.7912   -0.2057 H       1  UNL1        0.0424
     36 H           1.9054   -1.0501    1.3437 H       1  UNL1        0.1222
@<TRIPOS>BOND
     1     1     2    1
     2     2     3    1
     3     3     4    2
     4     3     5    1
     5     5     6    1
     6     6     7   ar
     7     7     8   ar
     8     8     9   ar
     9     9    10    1
    10     9    11   ar
    11    11    12   ar
    12     5    13    1
    13    13    14    1
    14    14    15    1
    15    15    16    1
    16    16    17    1
    17    17    18    1
    18    12     6   ar
    19    18    13    1
    20     1    19    1
    21     1    20    1
    22     1    21    1
    23     5    22    1
    24     7    23    1
    25     8    24    1
    26    11    25    1
    27    12    26    1
    28    13    27    1
    29    14    28    1
    30    14    29    1
    31    15    30    1
    32    15    31    1
    33    16    32    1
    34    16    33    1
    35    17    34    1
    36    17    35    1
    37    18    36    1
