@<TRIPOS>MOLECULE
*****
 36 37 0 0 0
SMALL
GASTEIGER

@<TRIPOS>ATOM
      1 C           3.1182   -2.0367   -0.0358 C.3     1  UNL1       -0.0127
      2 N           2.9653   -0.6566    0.3638 N.3     1  UNL1       -0.3047
      3 C           4.2811   -0.0471    0.2892 C.3     1  UNL1       -0.0127
      4 C           2.0417    0.0493   -0.5492 C.3     1  UNL1        0.0174
      5 C           0.7055   -0.4871   -0.3576 C.2     1  UNL1       -0.0618
      6 C          -0.4327    0.0871   -0.0474 C.2     1  UNL1       -0.0120
      7 C          -1.5839   -0.7963    0.0742 C.ar    1  UNL1       -0.0175
      8 C          -1.5144   -2.1707    0.1107 C.ar    1  UNL1       -0.0530
      9 C          -2.5724   -3.0401    0.1680 C.ar    1  UNL1       -0.0472
     10 C          -3.8522   -2.5274    0.1938 C.ar    1  UNL1        0.0179
     11 BR         -5.3563   -3.6893    0.2753 Br      1  UNL1       -0.0503
     12 C          -4.0069   -1.1552    0.1597 C.ar    1  UNL1       -0.0472
     13 C          -2.8821   -0.3624    0.1016 C.ar    1  UNL1       -0.0530
     14 C          -0.5237    1.5142    0.0305 C.ar    1  UNL1        0.0005
     15 C          -1.3702    2.2489    0.8288 C.ar    1  UNL1       -0.0511
     16 C          -1.5703    3.6083    0.8380 C.ar    1  UNL1       -0.0430
     17 C          -0.8422    4.3603   -0.0562 C.ar    1  UNL1        0.0276
     18 N           0.0196    3.7106   -0.8830 N.ar    1  UNL1       -0.2627
     19 C           0.1512    2.3736   -0.8242 C.ar    1  UNL1        0.0353
     20 H           2.3157   -2.6864    0.3597 H       1  UNL1        0.0391
     21 H           3.1861   -2.1742   -1.1394 H       1  UNL1        0.0391
     22 H           4.0843   -2.3957    0.3810 H       1  UNL1        0.0391
     23 H           4.1771    0.9702    0.7289 H       1  UNL1        0.0391
     24 H           4.9736   -0.6227    0.9143 H       1  UNL1        0.0391
     25 H           4.6391   -0.0137   -0.7515 H       1  UNL1        0.0391
     26 H           2.1772    1.1289   -0.2471 H       1  UNL1        0.0470
     27 H           2.4038   -0.1214   -1.5652 H       1  UNL1        0.0470
     28 H           0.8377   -1.5387   -0.5454 H       1  UNL1        0.0591
     29 H          -0.5633   -2.6792    0.1037 H       1  UNL1        0.0624
     30 H          -2.4738   -4.1153    0.1951 H       1  UNL1        0.0629
     31 H          -5.0205   -0.7961    0.1814 H       1  UNL1        0.0629
     32 H          -3.1419    0.6769    0.0492 H       1  UNL1        0.0624
     33 H          -1.9623    1.7377    1.5984 H       1  UNL1        0.0625
     34 H          -2.2604    4.1061    1.5015 H       1  UNL1        0.0633
     35 H          -0.9964    5.4295   -0.0521 H       1  UNL1        0.0829
     36 H           0.8487    2.1107   -1.6059 H       1  UNL1        0.0836
@<TRIPOS>BOND
     1     1     2    1
     2     2     3    1
     3     2     4    1
     4     4     5    1
     5     5     6    2
     6     6     7    1
     7     7     8   ar
     8     8     9   ar
     9     9    10   ar
    10    10    11    1
    11    10    12   ar
    12    12    13   ar
    13     6    14    1
    14    14    15   ar
    15    15    16   ar
    16    16    17   ar
    17    17    18   ar
    18    18    19   ar
    19    13     7   ar
    20    19    14   ar
    21     1    20    1
    22     1    21    1
    23     1    22    1
    24     3    23    1
    25     3    24    1
    26     3    25    1
    27     4    26    1
    28     4    27    1
    29     5    28    1
    30     8    29    1
    31     9    30    1
    32    12    31    1
    33    13    32    1
    34    15    33    1
    35    16    34    1
    36    17    35    1
    37    19    36    1
