
     RDKit          3D

 49 51  0  0  0  0  0  0  0  0999 V2000
   -6.1329    4.1727    0.2526 C   0  0  0  0  0  0  0  0  0  0  0  0
   -5.4043    3.0526   -0.2533 O   0  0  0  0  0  0  0  0  0  0  0  0
   -4.1298    2.7987    0.1160 C   0  0  0  0  0  0  0  0  0  0  0  0
   -3.2023    1.8420   -0.1840 C   0  0  0  0  0  0  0  0  0  0  0  0
   -1.9893    1.7990    0.3137 C   0  0  0  0  0  0  0  0  0  0  0  0
   -0.9007    0.7992    0.0567 C   0  0  0  0  0  0  0  0  0  0  0  0
    0.3681    0.9143    0.6507 C   0  0  0  0  0  0  0  0  0  0  0  0
    1.1668   -0.0917    0.1800 C   0  0  0  0  0  0  0  0  0  0  0  0
    2.5815   -0.2713    0.5960 C   0  0  0  0  0  0  0  0  0  0  0  0
    3.3616    0.4475   -0.2839 O   0  0  0  0  0  0  0  0  0  0  0  0
    4.7100    0.3792   -0.0202 C   0  0  0  0  0  0  0  0  0  0  0  0
    5.0631    0.9144    1.3549 C   0  0  0  0  0  0  0  0  0  0  0  0
    5.2262   -1.0575   -0.1247 C   0  0  0  0  0  0  0  0  0  0  0  0
    5.4297    1.1780   -1.0482 C   0  0  0  0  0  0  0  0  0  0  0  0
    4.8207    1.7880   -1.9739 O   0  0  0  0  0  0  0  0  0  0  0  0
    6.8246    1.2635   -0.9968 O   0  0  0  0  0  0  0  0  0  0  0  0
    0.4514   -0.7912   -0.6491 N   0  0  0  0  0  0  0  0  0  0  0  0
   -0.8141   -0.2453   -0.7200 N   0  0  0  0  0  0  0  0  0  0  0  0
   -1.8077   -0.9630   -1.4971 C   0  0  0  0  0  0  0  0  0  0  0  0
   -2.1956   -2.2733   -0.8902 C   0  0  0  0  0  0  0  0  0  0  0  0
   -1.6921   -3.4570   -1.4692 C   0  0  0  0  0  0  0  0  0  0  0  0
   -1.9888   -4.7062   -0.9911 C   0  0  0  0  0  0  0  0  0  0  0  0
   -2.8092   -4.8731    0.1001 C   0  0  0  0  0  0  0  0  0  0  0  0
   -3.3087   -3.7307    0.6773 C   0  0  0  0  0  0  0  0  0  0  0  0
   -3.0014   -2.4494    0.1831 C   0  0  0  0  0  0  0  0  0  0  0  0
   -3.7205   -1.1256    1.0501 Cl  0  0  0  0  0  0  0  0  0  0  0  0
   -1.6770    2.8892    1.2531 C   0  0  0  0  0  0  0  0  0  0  0  0
   -3.1861    3.8474    1.3002 S   0  0  0  0  0  0  0  0  0  0  0  0
   -5.6296    4.6187    1.1350 H   0  0  0  0  0  0  0  0  0  0  0  0
   -7.1264    3.8088    0.6001 H   0  0  0  0  0  0  0  0  0  0  0  0
   -6.3165    4.9056   -0.5524 H   0  0  0  0  0  0  0  0  0  0  0  0
   -3.5883    1.0754   -0.9185 H   0  0  0  0  0  0  0  0  0  0  0  0
    0.6717    1.6780    1.3717 H   0  0  0  0  0  0  0  0  0  0  0  0
    2.6901    0.0561    1.6489 H   0  0  0  0  0  0  0  0  0  0  0  0
    2.7853   -1.3646    0.5753 H   0  0  0  0  0  0  0  0  0  0  0  0
    5.0065    0.1204    2.1140 H   0  0  0  0  0  0  0  0  0  0  0  0
    4.3930    1.7857    1.5957 H   0  0  0  0  0  0  0  0  0  0  0  0
    6.1039    1.3335    1.3079 H   0  0  0  0  0  0  0  0  0  0  0  0
    4.7455   -1.5114   -0.9981 H   0  0  0  0  0  0  0  0  0  0  0  0
    4.9274   -1.6330    0.7882 H   0  0  0  0  0  0  0  0  0  0  0  0
    6.3168   -1.0353   -0.2271 H   0  0  0  0  0  0  0  0  0  0  0  0
    7.3108    1.3404   -1.8976 H   0  0  0  0  0  0  0  0  0  0  0  0
   -2.6407   -0.3667   -1.8082 H   0  0  0  0  0  0  0  0  0  0  0  0
   -1.2895   -1.2504   -2.4941 H   0  0  0  0  0  0  0  0  0  0  0  0
   -1.0519   -3.3635   -2.3123 H   0  0  0  0  0  0  0  0  0  0  0  0
   -1.5932   -5.6151   -1.4483 H   0  0  0  0  0  0  0  0  0  0  0  0
   -3.0399   -5.8622    0.4701 H   0  0  0  0  0  0  0  0  0  0  0  0
   -3.9488   -3.8305    1.5278 H   0  0  0  0  0  0  0  0  0  0  0  0
   -0.7696    3.0600    1.7751 H   0  0  0  0  0  0  0  0  0  0  0  0
  1  2  1  0
  2  3  1  0
  3  4  2  0
  4  5  1  0
  5  6  1  0
  6  7  2  0
  7  8  1  0
  8  9  1  0
  9 10  1  0
 10 11  1  0
 11 12  1  0
 11 13  1  0
 11 14  1  0
 14 15  2  0
 14 16  1  0
  8 17  2  0
 17 18  1  0
 18 19  1  0
 19 20  1  0
 20 21  2  0
 21 22  1  0
 22 23  2  0
 23 24  1  0
 24 25  2  0
 25 26  1  0
  5 27  2  0
 27 28  1  0
 28  3  1  0
 18  6  1  0
 25 20  1  0
  1 29  1  0
  1 30  1  0
  1 31  1  0
  4 32  1  0
  7 33  1  0
  9 34  1  0
  9 35  1  0
 12 36  1  0
 12 37  1  0
 12 38  1  0
 13 39  1  0
 13 40  1  0
 13 41  1  0
 16 42  1  0
 19 43  1  0
 19 44  1  0
 21 45  1  0
 22 46  1  0
 23 47  1  0
 24 48  1  0
 27 49  1  0
M  END
$$$$
