@<TRIPOS>MOLECULE
*****
 49 51 0 0 0
SMALL
GASTEIGER

@<TRIPOS>ATOM
      1 C          -6.1329    4.1727    0.2526 C.3     1  UNL1        0.0794
      2 O          -5.4043    3.0526   -0.2533 O.3     1  UNL1       -0.4887
      3 C          -4.1298    2.7987    0.1160 C.ar    1  UNL1        0.1588
      4 C          -3.2023    1.8420   -0.1840 C.ar    1  UNL1       -0.0032
      5 C          -1.9893    1.7990    0.3137 C.ar    1  UNL1        0.0107
      6 C          -0.9007    0.7992    0.0567 C.ar    1  UNL1        0.0702
      7 C           0.3681    0.9143    0.6507 C.ar    1  UNL1       -0.0108
      8 C           1.1668   -0.0917    0.1800 C.ar    1  UNL1        0.0892
      9 C           2.5815   -0.2713    0.5960 C.3     1  UNL1        0.0928
     10 O           3.3616    0.4475   -0.2839 O.3     1  UNL1       -0.3566
     11 C           4.7100    0.3792   -0.0202 C.3     1  UNL1        0.1602
     12 C           5.0631    0.9144    1.3549 C.3     1  UNL1       -0.0256
     13 C           5.2262   -1.0575   -0.1247 C.3     1  UNL1       -0.0256
     14 C           5.4297    1.1780   -1.0482 C.2     1  UNL1        0.3365
     15 O           4.8207    1.7880   -1.9739 O.2     1  UNL1       -0.2478
     16 O           6.8246    1.2635   -0.9968 O.3     1  UNL1       -0.4786
     17 N           0.4514   -0.7912   -0.6491 N.ar    1  UNL1       -0.1730
     18 N          -0.8141   -0.2453   -0.7200 N.ar    1  UNL1       -0.2590
     19 C          -1.8077   -0.9630   -1.4971 C.3     1  UNL1        0.0685
     20 C          -2.1956   -2.2733   -0.8902 C.ar    1  UNL1       -0.0078
     21 C          -1.6921   -3.4570   -1.4692 C.ar    1  UNL1       -0.0554
     22 C          -1.9888   -4.7062   -0.9911 C.ar    1  UNL1       -0.0614
     23 C          -2.8092   -4.8731    0.1001 C.ar    1  UNL1       -0.0604
     24 C          -3.3087   -3.7307    0.6773 C.ar    1  UNL1       -0.0431
     25 C          -3.0014   -2.4494    0.1831 C.ar    1  UNL1        0.0459
     26 CL         -3.7205   -1.1256    1.0501 Cl      1  UNL1       -0.0832
     27 C          -1.6770    2.8892    1.2531 C.ar    1  UNL1       -0.0117
     28 S          -3.1861    3.8474    1.3002 S.2     1  UNL1       -0.0597
     29 H          -5.6296    4.6187    1.1350 H       1  UNL1        0.0660
     30 H          -7.1264    3.8088    0.6001 H       1  UNL1        0.0660
     31 H          -6.3165    4.9056   -0.5524 H       1  UNL1        0.0660
     32 H          -3.5883    1.0754   -0.9185 H       1  UNL1        0.0666
     33 H           0.6717    1.6780    1.3717 H       1  UNL1        0.0658
     34 H           2.6901    0.0561    1.6489 H       1  UNL1        0.0626
     35 H           2.7853   -1.3646    0.5753 H       1  UNL1        0.0626
     36 H           5.0065    0.1204    2.1140 H       1  UNL1        0.0263
     37 H           4.3930    1.7857    1.5957 H       1  UNL1        0.0263
     38 H           6.1039    1.3335    1.3079 H       1  UNL1        0.0263
     39 H           4.7455   -1.5114   -0.9981 H       1  UNL1        0.0263
     40 H           4.9274   -1.6330    0.7882 H       1  UNL1        0.0263
     41 H           6.3168   -1.0353   -0.2271 H       1  UNL1        0.0263
     42 H           7.3108    1.3404   -1.8976 H       1  UNL1        0.2951
     43 H          -2.6407   -0.3667   -1.8082 H       1  UNL1        0.0559
     44 H          -1.2895   -1.2504   -2.4941 H       1  UNL1        0.0559
     45 H          -1.0519   -3.3635   -2.3123 H       1  UNL1        0.0621
     46 H          -1.5932   -5.6151   -1.4483 H       1  UNL1        0.0618
     47 H          -3.0399   -5.8622    0.4701 H       1  UNL1        0.0618
     48 H          -3.9488   -3.8305    1.5278 H       1  UNL1        0.0632
     49 H          -0.7696    3.0600    1.7751 H       1  UNL1        0.0701
@<TRIPOS>BOND
     1     1     2    1
     2     2     3    1
     3     3     4   ar
     4     4     5   ar
     5     5     6    1
     6     6     7   ar
     7     7     8   ar
     8     8     9    1
     9     9    10    1
    10    10    11    1
    11    11    12    1
    12    11    13    1
    13    11    14    1
    14    14    15    2
    15    14    16    1
    16     8    17   ar
    17    17    18   ar
    18    18    19    1
    19    19    20    1
    20    20    21   ar
    21    21    22   ar
    22    22    23   ar
    23    23    24   ar
    24    24    25   ar
    25    25    26    1
    26     5    27   ar
    27    27    28   ar
    28    28     3   ar
    29    18     6   ar
    30    25    20   ar
    31     1    29    1
    32     1    30    1
    33     1    31    1
    34     4    32    1
    35     7    33    1
    36     9    34    1
    37     9    35    1
    38    12    36    1
    39    12    37    1
    40    12    38    1
    41    13    39    1
    42    13    40    1
    43    13    41    1
    44    16    42    1
    45    19    43    1
    46    19    44    1
    47    21    45    1
    48    22    46    1
    49    23    47    1
    50    24    48    1
    51    27    49    1
