@<TRIPOS>MOLECULE
*****
 56 60 0 0 0
SMALL
GASTEIGER

@<TRIPOS>ATOM
      1 C          -8.9736    1.3056    0.9438 C.3     1  UNL1        0.0790
      2 O          -8.0300    0.8511    0.0012 O.3     1  UNL1       -0.4914
      3 C          -6.6967    0.7756    0.3693 C.ar    1  UNL1        0.1635
      4 C          -6.2898    1.1373    1.6353 C.ar    1  UNL1        0.0098
      5 C          -4.9453    1.0484    1.9680 C.ar    1  UNL1        0.0782
      6 N          -4.5959    1.4125    3.2106 N.ar    1  UNL1       -0.2546
      7 C          -3.3176    1.3444    3.5710 C.ar    1  UNL1        0.0318
      8 C          -2.3250    0.9044    2.6939 C.ar    1  UNL1       -0.0006
      9 C          -2.6308    0.5173    1.4023 C.ar    1  UNL1        0.1393
     10 O          -1.8091    0.0837    0.4675 O.3     1  UNL1       -0.4524
     11 C          -0.5562   -0.2015    0.1432 C.ar    1  UNL1        0.1641
     12 C           0.5658   -0.0619    0.9676 C.ar    1  UNL1       -0.0158
     13 C           1.8470   -0.3897    0.5364 C.ar    1  UNL1       -0.0497
     14 C           2.0312   -0.8665   -0.7369 C.ar    1  UNL1       -0.0028
     15 C           3.3075   -1.1849   -1.1406 C.ar    1  UNL1        0.0448
     16 C           4.4873   -1.0416   -0.2852 C.2     1  UNL1        0.2488
     17 O           4.6099   -1.5751    0.8454 O.2     1  UNL1       -0.2698
     18 N           5.5689   -0.2490   -0.7576 N.am    1  UNL1       -0.2815
     19 C           6.7233   -0.0892    0.0431 C.ar    1  UNL1        0.0338
     20 C           7.8122   -0.9309    0.0046 C.ar    1  UNL1       -0.0391
     21 C           8.9219   -0.7020    0.8280 C.ar    1  UNL1       -0.0416
     22 C           8.9398    0.3743    1.6932 C.ar    1  UNL1        0.0411
     23 CL         10.3628    0.6292    2.7182 Cl      1  UNL1       -0.0835
     24 C           7.8660    1.2082    1.7342 C.ar    1  UNL1       -0.0416
     25 C           6.7723    0.9742    0.9160 C.ar    1  UNL1       -0.0391
     26 C           3.4462   -1.6685   -2.4480 C.ar    1  UNL1       -0.0490
     27 C           2.3666   -1.8199   -3.2907 C.ar    1  UNL1       -0.0604
     28 C           1.1158   -1.4990   -2.8702 C.ar    1  UNL1       -0.0511
     29 C           0.9282   -1.0136   -1.5759 C.ar    1  UNL1        0.0217
     30 C          -0.3269   -0.6944   -1.1586 C.ar    1  UNL1        0.1731
     31 F          -1.3919   -0.8367   -1.9671 F       1  UNL1       -0.2010
     32 C          -4.0085    0.6111    1.0747 C.ar    1  UNL1        0.0463
     33 C          -4.4082    0.2481   -0.1921 C.ar    1  UNL1       -0.0036
     34 C          -5.7595    0.3291   -0.5517 C.ar    1  UNL1        0.1623
     35 O          -6.1893   -0.0288   -1.8167 O.3     1  UNL1       -0.4914
     36 C          -5.2371   -0.4821   -2.7539 C.3     1  UNL1        0.0790
     37 H          -9.9942    1.3409    0.5558 H       1  UNL1        0.0660
     38 H          -8.7011    2.3310    1.2657 H       1  UNL1        0.0660
     39 H          -8.9397    0.6327    1.8105 H       1  UNL1        0.0660
     40 H          -7.0110    1.4866    2.3595 H       1  UNL1        0.0677
     41 H          -3.0049    1.6341    4.5743 H       1  UNL1        0.0831
     42 H          -1.3111    0.8710    3.0464 H       1  UNL1        0.0670
     43 H           0.4890    0.3012    1.9591 H       1  UNL1        0.0655
     44 H           2.7118   -0.2813    1.1708 H       1  UNL1        0.0625
     45 H           5.5175    0.2261   -1.7094 H       1  UNL1        0.1551
     46 H           7.8131   -1.7628   -0.6544 H       1  UNL1        0.0636
     47 H           9.7810   -1.3559    0.8047 H       1  UNL1        0.0633
     48 H           7.8880    2.0632    2.4250 H       1  UNL1        0.0633
     49 H           5.9511    1.6581    0.9833 H       1  UNL1        0.0636
     50 H           4.4518   -1.9198   -2.7658 H       1  UNL1        0.0625
     51 H           2.5334   -2.2020   -4.3024 H       1  UNL1        0.0618
     52 H           0.2305   -1.5962   -3.4869 H       1  UNL1        0.0625
     53 H          -3.6926   -0.0925   -0.8952 H       1  UNL1        0.0663
     54 H          -4.7142   -1.3448   -2.2956 H       1  UNL1        0.0660
     55 H          -4.4847    0.3437   -2.9204 H       1  UNL1        0.0660
     56 H          -5.6951   -0.7525   -3.7212 H       1  UNL1        0.0660
@<TRIPOS>BOND
     1     1     2    1
     2     2     3    1
     3     3     4   ar
     4     4     5   ar
     5     5     6   ar
     6     6     7   ar
     7     7     8   ar
     8     8     9   ar
     9     9    10    1
    10    10    11    1
    11    11    12   ar
    12    12    13   ar
    13    13    14   ar
    14    14    15   ar
    15    15    16    1
    16    16    17    2
    17    16    18   am
    18    18    19    1
    19    19    20   ar
    20    20    21   ar
    21    21    22   ar
    22    22    23    1
    23    22    24   ar
    24    24    25   ar
    25    15    26   ar
    26    26    27   ar
    27    27    28   ar
    28    28    29   ar
    29    29    30   ar
    30    30    31    1
    31     9    32   ar
    32    32    33   ar
    33    33    34   ar
    34    34    35    1
    35    35    36    1
    36    34     3   ar
    37    32     5   ar
    38    30    11   ar
    39    29    14   ar
    40    25    19   ar
    41     1    37    1
    42     1    38    1
    43     1    39    1
    44     4    40    1
    45     7    41    1
    46     8    42    1
    47    12    43    1
    48    13    44    1
    49    18    45    1
    50    20    46    1
    51    21    47    1
    52    24    48    1
    53    25    49    1
    54    26    50    1
    55    27    51    1
    56    28    52    1
    57    33    53    1
    58    36    54    1
    59    36    55    1
    60    36    56    1
