@<TRIPOS>MOLECULE
*****
 26 25 0 0 0
SMALL
GASTEIGER

@<TRIPOS>ATOM
      1 N           3.0962    0.6062   -1.6484 N.3     1  ARG1       -0.3184
      2 CA          1.9196    0.5812   -0.7708 C.3     1  ARG1        0.1033
      3 CB          1.5757   -0.8838   -0.5984 C.3     1  ARG1       -0.0245
      4 CG          0.3862   -1.1195    0.2763 C.3     1  ARG1       -0.0203
      5 CD         -0.8090   -0.4205   -0.3589 C.3     1  ARG1        0.0647
      6 NE         -1.9380   -0.6799    0.5287 N.pl3   1  ARG1       -0.2761
      7 CZ         -3.1962   -0.1400    0.1768 C.cat   1  ARG1        0.3762
      8 NH1        -4.1526    0.0362    1.2279 N.pl3   1  ARG1       -0.2893
      9 NH2        -3.4262    0.1661   -1.0562 N.pl3   1  ARG1       -0.1298
     10 C           2.3184    1.1774    0.5270 C.2     1  ARG1        0.3217
     11 O           3.5259    1.6930    0.9556 O.3     1  ARG1       -0.4795
     12 OXT         1.5890    1.3350    1.5413 O.2     1  ARG1       -0.2493
     13 H1          3.1794    1.5561   -2.0980 H       1  ARG1        0.1190
     14 H2          3.0019   -0.1733   -2.3281 H       1  ARG1        0.1190
     15 HA          1.1140    1.1450   -1.2420 H       1  ARG1        0.0574
     16 HB1         2.4571   -1.3678   -0.1291 H       1  ARG1        0.0286
     17 HB2         1.4138   -1.3904   -1.5650 H       1  ARG1        0.0286
     18 HG1         0.2320   -2.2041    0.3393 H       1  ARG1        0.0296
     19 HG2         0.5703   -0.7545    1.2979 H       1  ARG1        0.0296
     20 HD1        -1.0185   -0.8528   -1.3366 H       1  ARG1        0.0655
     21 HD2        -0.6598    0.6785   -0.3441 H       1  ARG1        0.0655
     22 HE         -1.8752   -1.2431    1.4140 H       1  ARG1        0.2579
     23 HH11       -4.6035    0.9863    1.2153 H       1  ARG1        0.2546
     24 HH12       -4.4195   -0.6617    1.9589 H       1  ARG1        0.2546
     25 HH2        -4.3347    0.5635   -1.3528 H       1  ARG1        0.3062
     26 H           4.0539    1.3668    1.7382 H       1  ARG1        0.2951
@<TRIPOS>BOND
     1     1     2    1
     2     2     3    1
     3     3     4    1
     4     4     5    1
     5     5     6    1
     6     6     7    1
     7     7     8    1
     8     7     9    2
     9     2    10    1
    10    10    11    1
    11    10    12    2
    12     1    13    1
    13     1    14    1
    14     2    15    1
    15     3    16    1
    16     3    17    1
    17     4    18    1
    18     4    19    1
    19     5    20    1
    20     5    21    1
    21     6    22    1
    22     8    23    1
    23     8    24    1
    24     9    25    1
    25    11    26    1
