@<TRIPOS>MOLECULE
*****
 80 85 0 0 0
SMALL
GASTEIGER

@<TRIPOS>ATOM
      1 C           3.9934    2.1318   -0.8891 C.3     1  UNL1       -0.0219
      2 C           4.0770    0.8370   -0.1473 C.ar    1  UNL1        0.0464
      3 N           5.2418    0.2391    0.1161 N.ar    1  UNL1       -0.2175
      4 C           5.3121   -0.9267    0.7861 C.ar    1  UNL1        0.2207
      5 O           6.5220   -1.5430    1.0610 O.3     1  UNL1       -0.4380
      6 C           7.6824   -0.9388    0.6520 C.ar    1  UNL1        0.1304
      7 C           8.2571   -1.2409   -0.5553 C.ar    1  UNL1       -0.0185
      8 C           9.4395   -0.5944   -0.9203 C.ar    1  UNL1       -0.0443
      9 C          10.0181    0.3348   -0.0744 C.ar    1  UNL1        0.0591
     10 C          11.2476    0.9957   -0.4672 C.2     1  UNL1        0.3368
     11 O          11.7491    1.8371    0.3254 O.2     1  UNL1       -0.2451
     12 O          11.8361    0.6962   -1.6819 O.3     1  UNL1       -0.4771
     13 C           9.4095    0.6062    1.1221 C.ar    1  UNL1       -0.0443
     14 C           8.2476   -0.0101    1.5121 C.ar    1  UNL1       -0.0185
     15 C           4.1594   -1.5458    1.2260 C.ar    1  UNL1        0.0007
     16 C           2.9472   -0.9498    0.9676 C.ar    1  UNL1       -0.0506
     17 C           2.9111    0.2379    0.2826 C.ar    1  UNL1       -0.0121
     18 C           1.6292    0.9598   -0.0171 C.3     1  UNL1        0.0257
     19 N           0.5360    0.1278    0.1765 N.3     1  UNL1       -0.2980
     20 C           0.3499   -0.9501   -0.6789 C.3     1  UNL1        0.0009
     21 C          -0.5809   -2.0217   -0.2778 C.3     1  UNL1       -0.0213
     22 C          -1.6907   -1.6146    0.6537 C.3     1  UNL1        0.0305
     23 N          -2.7979   -0.9527    0.0199 N.am    1  UNL1       -0.2738
     24 C          -4.1360   -1.4797   -0.0365 C.2     1  UNL1        0.3059
     25 O          -4.6070   -2.3946    0.6896 O.2     1  UNL1       -0.2524
     26 N          -4.8596   -0.8133   -1.0405 N.am    1  UNL1       -0.2802
     27 C          -6.2577   -0.8527   -1.3533 C.3     1  UNL1        0.0317
     28 C          -7.1320   -0.3374   -0.2180 C.3     1  UNL1       -0.0106
     29 C          -8.5577   -0.3298   -0.7844 C.3     1  UNL1        0.0493
     30 O          -8.9506   -1.5963   -1.1525 O.3     1  UNL1       -0.3796
     31 C          -8.1473   -2.2019   -2.0874 C.3     1  UNL1        0.0493
     32 C          -6.7015   -2.2699   -1.6116 C.3     1  UNL1       -0.0106
     33 C          -3.8767   -0.0138   -1.7717 C.3     1  UNL1        0.0393
     34 C          -2.8845    0.3087   -0.6706 C.3     1  UNL1        0.0687
     35 C          -3.2823    1.4512    0.1432 C.ar    1  UNL1       -0.0241
     36 C          -2.6342    2.6583   -0.0135 C.ar    1  UNL1       -0.0567
     37 C          -2.9306    3.7953    0.7009 C.ar    1  UNL1       -0.0601
     38 C          -3.9441    3.7165    1.6343 C.ar    1  UNL1       -0.0434
     39 C          -4.6287    2.5442    1.8397 C.ar    1  UNL1        0.0413
     40 CL         -5.9292    2.4026    3.0196 Cl      1  UNL1       -0.0835
     41 C          -4.2866    1.4167    1.0859 C.ar    1  UNL1       -0.0384
     42 C          -1.0871   -0.8409    1.7710 C.3     1  UNL1       -0.0213
     43 C          -0.1354    0.2137    1.4100 C.3     1  UNL1        0.0009
     44 H           4.9787    2.5525   -1.0901 H       1  UNL1        0.0293
     45 H           3.2933    2.8291   -0.3717 H       1  UNL1        0.0293
     46 H           3.5143    1.9183   -1.8835 H       1  UNL1        0.0293
     47 H           7.8154   -1.9662   -1.2256 H       1  UNL1        0.0654
     48 H           9.8910   -0.8349   -1.8725 H       1  UNL1        0.0627
     49 H          12.5653    1.2834   -2.0774 H       1  UNL1        0.2954
     50 H           9.8563    1.3258    1.7767 H       1  UNL1        0.0627
     51 H           7.7609    0.1966    2.4536 H       1  UNL1        0.0654
     52 H           4.1899   -2.4767    1.7617 H       1  UNL1        0.0671
     53 H           2.0416   -1.4279    1.3181 H       1  UNL1        0.0623
     54 H           1.6707    1.4519   -1.0141 H       1  UNL1        0.0476
     55 H           1.5779    1.8142    0.7172 H       1  UNL1        0.0476
     56 H           0.0309   -0.6121   -1.7178 H       1  UNL1        0.0427
     57 H           1.3468   -1.4167   -0.9034 H       1  UNL1        0.0427
     58 H           0.0224   -2.7928    0.2916 H       1  UNL1        0.0295
     59 H          -0.9337   -2.5706   -1.1731 H       1  UNL1        0.0295
     60 H          -2.0534   -2.5906    1.0973 H       1  UNL1        0.0502
     61 H          -6.4761   -0.1944   -2.2253 H       1  UNL1        0.0502
     62 H          -7.1086   -1.0136    0.6474 H       1  UNL1        0.0305
     63 H          -6.9080    0.7080    0.0350 H       1  UNL1        0.0305
     64 H          -8.6441    0.4079   -1.6054 H       1  UNL1        0.0560
     65 H          -9.2132    0.0090    0.0426 H       1  UNL1        0.0560
     66 H          -8.5064   -3.2383   -2.2210 H       1  UNL1        0.0560
     67 H          -8.1557   -1.6971   -3.0769 H       1  UNL1        0.0560
     68 H          -6.1094   -2.7675   -2.3778 H       1  UNL1        0.0305
     69 H          -6.7221   -2.7869   -0.6329 H       1  UNL1        0.0305
     70 H          -4.3044    0.8650   -2.2513 H       1  UNL1        0.0487
     71 H          -3.3389   -0.6924   -2.4890 H       1  UNL1        0.0487
     72 H          -1.9449    0.5705   -1.1978 H       1  UNL1        0.0567
     73 H          -1.8276    2.7263   -0.7549 H       1  UNL1        0.0621
     74 H          -2.4014    4.7201    0.5528 H       1  UNL1        0.0618
     75 H          -4.2070    4.6042    2.2230 H       1  UNL1        0.0632
     76 H          -4.8046    0.4975    1.2347 H       1  UNL1        0.0635
     77 H          -1.8654   -0.4011    2.4618 H       1  UNL1        0.0295
     78 H          -0.5660   -1.5866    2.4429 H       1  UNL1        0.0295
     79 H           0.6483    0.2761    2.2226 H       1  UNL1        0.0427
     80 H          -0.6406    1.2183    1.4971 H       1  UNL1        0.0427
@<TRIPOS>BOND
     1     1     2    1
     2     2     3   ar
     3     3     4   ar
     4     4     5    1
     5     5     6    1
     6     6     7   ar
     7     7     8   ar
     8     8     9   ar
     9     9    10    1
    10    10    11    2
    11    10    12    1
    12     9    13   ar
    13    13    14   ar
    14     4    15   ar
    15    15    16   ar
    16    16    17   ar
    17    17    18    1
    18    18    19    1
    19    19    20    1
    20    20    21    1
    21    21    22    1
    22    22    23    1
    23    23    24   am
    24    24    25    2
    25    24    26   am
    26    26    27    1
    27    27    28    1
    28    28    29    1
    29    29    30    1
    30    30    31    1
    31    31    32    1
    32    26    33    1
    33    33    34    1
    34    34    35    1
    35    35    36   ar
    36    36    37   ar
    37    37    38   ar
    38    38    39   ar
    39    39    40    1
    40    39    41   ar
    41    22    42    1
    42    42    43    1
    43    17     2   ar
    44    43    19    1
    45    14     6   ar
    46    34    23    1
    47    41    35   ar
    48    32    27    1
    49     1    44    1
    50     1    45    1
    51     1    46    1
    52     7    47    1
    53     8    48    1
    54    12    49    1
    55    13    50    1
    56    14    51    1
    57    15    52    1
    58    16    53    1
    59    18    54    1
    60    18    55    1
    61    20    56    1
    62    20    57    1
    63    21    58    1
    64    21    59    1
    65    22    60    1
    66    27    61    1
    67    28    62    1
    68    28    63    1
    69    29    64    1
    70    29    65    1
    71    31    66    1
    72    31    67    1
    73    32    68    1
    74    32    69    1
    75    33    70    1
    76    33    71    1
    77    34    72    1
    78    36    73    1
    79    37    74    1
    80    38    75    1
    81    41    76    1
    82    42    77    1
    83    42    78    1
    84    43    79    1
    85    43    80    1
