
     RDKit          3D

 80 85  0  0  0  0  0  0  0  0999 V2000
    3.9934    2.1318   -0.8891 C   0  0  0  0  0  0  0  0  0  0  0  0
    4.0770    0.8370   -0.1473 C   0  0  0  0  0  0  0  0  0  0  0  0
    5.2418    0.2391    0.1161 N   0  0  0  0  0  0  0  0  0  0  0  0
    5.3121   -0.9267    0.7861 C   0  0  0  0  0  0  0  0  0  0  0  0
    6.5220   -1.5430    1.0610 O   0  0  0  0  0  0  0  0  0  0  0  0
    7.6824   -0.9388    0.6520 C   0  0  0  0  0  0  0  0  0  0  0  0
    8.2571   -1.2409   -0.5553 C   0  0  0  0  0  0  0  0  0  0  0  0
    9.4395   -0.5944   -0.9203 C   0  0  0  0  0  0  0  0  0  0  0  0
   10.0181    0.3348   -0.0744 C   0  0  0  0  0  0  0  0  0  0  0  0
   11.2476    0.9957   -0.4672 C   0  0  0  0  0  0  0  0  0  0  0  0
   11.7491    1.8371    0.3254 O   0  0  0  0  0  0  0  0  0  0  0  0
   11.8361    0.6962   -1.6819 O   0  0  0  0  0  0  0  0  0  0  0  0
    9.4095    0.6062    1.1221 C   0  0  0  0  0  0  0  0  0  0  0  0
    8.2476   -0.0101    1.5121 C   0  0  0  0  0  0  0  0  0  0  0  0
    4.1594   -1.5458    1.2260 C   0  0  0  0  0  0  0  0  0  0  0  0
    2.9472   -0.9498    0.9676 C   0  0  0  0  0  0  0  0  0  0  0  0
    2.9111    0.2379    0.2826 C   0  0  0  0  0  0  0  0  0  0  0  0
    1.6292    0.9598   -0.0171 C   0  0  0  0  0  0  0  0  0  0  0  0
    0.5360    0.1278    0.1765 N   0  0  0  0  0  0  0  0  0  0  0  0
    0.3499   -0.9501   -0.6789 C   0  0  0  0  0  0  0  0  0  0  0  0
   -0.5809   -2.0217   -0.2778 C   0  0  0  0  0  0  0  0  0  0  0  0
   -1.6907   -1.6146    0.6537 C   0  0  0  0  0  0  0  0  0  0  0  0
   -2.7979   -0.9527    0.0199 N   0  0  0  0  0  0  0  0  0  0  0  0
   -4.1360   -1.4797   -0.0365 C   0  0  0  0  0  0  0  0  0  0  0  0
   -4.6070   -2.3946    0.6896 O   0  0  0  0  0  0  0  0  0  0  0  0
   -4.8596   -0.8133   -1.0405 N   0  0  0  0  0  0  0  0  0  0  0  0
   -6.2577   -0.8527   -1.3533 C   0  0  0  0  0  0  0  0  0  0  0  0
   -7.1320   -0.3374   -0.2180 C   0  0  0  0  0  0  0  0  0  0  0  0
   -8.5577   -0.3298   -0.7844 C   0  0  0  0  0  0  0  0  0  0  0  0
   -8.9506   -1.5963   -1.1525 O   0  0  0  0  0  0  0  0  0  0  0  0
   -8.1473   -2.2019   -2.0874 C   0  0  0  0  0  0  0  0  0  0  0  0
   -6.7015   -2.2699   -1.6116 C   0  0  0  0  0  0  0  0  0  0  0  0
   -3.8767   -0.0138   -1.7717 C   0  0  0  0  0  0  0  0  0  0  0  0
   -2.8845    0.3087   -0.6706 C   0  0  1  0  0  0  0  0  0  0  0  0
   -3.2823    1.4512    0.1432 C   0  0  0  0  0  0  0  0  0  0  0  0
   -2.6342    2.6583   -0.0135 C   0  0  0  0  0  0  0  0  0  0  0  0
   -2.9306    3.7953    0.7009 C   0  0  0  0  0  0  0  0  0  0  0  0
   -3.9441    3.7165    1.6343 C   0  0  0  0  0  0  0  0  0  0  0  0
   -4.6287    2.5442    1.8397 C   0  0  0  0  0  0  0  0  0  0  0  0
   -5.9292    2.4026    3.0196 Cl  0  0  0  0  0  0  0  0  0  0  0  0
   -4.2866    1.4167    1.0859 C   0  0  0  0  0  0  0  0  0  0  0  0
   -1.0871   -0.8409    1.7710 C   0  0  0  0  0  0  0  0  0  0  0  0
   -0.1354    0.2137    1.4100 C   0  0  0  0  0  0  0  0  0  0  0  0
    4.9787    2.5525   -1.0901 H   0  0  0  0  0  0  0  0  0  0  0  0
    3.2933    2.8291   -0.3717 H   0  0  0  0  0  0  0  0  0  0  0  0
    3.5143    1.9183   -1.8835 H   0  0  0  0  0  0  0  0  0  0  0  0
    7.8154   -1.9662   -1.2256 H   0  0  0  0  0  0  0  0  0  0  0  0
    9.8910   -0.8349   -1.8725 H   0  0  0  0  0  0  0  0  0  0  0  0
   12.5653    1.2834   -2.0774 H   0  0  0  0  0  0  0  0  0  0  0  0
    9.8563    1.3258    1.7767 H   0  0  0  0  0  0  0  0  0  0  0  0
    7.7609    0.1966    2.4536 H   0  0  0  0  0  0  0  0  0  0  0  0
    4.1899   -2.4767    1.7617 H   0  0  0  0  0  0  0  0  0  0  0  0
    2.0416   -1.4279    1.3181 H   0  0  0  0  0  0  0  0  0  0  0  0
    1.6707    1.4519   -1.0141 H   0  0  0  0  0  0  0  0  0  0  0  0
    1.5779    1.8142    0.7172 H   0  0  0  0  0  0  0  0  0  0  0  0
    0.0309   -0.6121   -1.7178 H   0  0  0  0  0  0  0  0  0  0  0  0
    1.3468   -1.4167   -0.9034 H   0  0  0  0  0  0  0  0  0  0  0  0
    0.0224   -2.7928    0.2916 H   0  0  0  0  0  0  0  0  0  0  0  0
   -0.9337   -2.5706   -1.1731 H   0  0  0  0  0  0  0  0  0  0  0  0
   -2.0534   -2.5906    1.0973 H   0  0  0  0  0  0  0  0  0  0  0  0
   -6.4761   -0.1944   -2.2253 H   0  0  0  0  0  0  0  0  0  0  0  0
   -7.1086   -1.0136    0.6474 H   0  0  0  0  0  0  0  0  0  0  0  0
   -6.9080    0.7080    0.0350 H   0  0  0  0  0  0  0  0  0  0  0  0
   -8.6441    0.4079   -1.6054 H   0  0  0  0  0  0  0  0  0  0  0  0
   -9.2132    0.0090    0.0426 H   0  0  0  0  0  0  0  0  0  0  0  0
   -8.5064   -3.2383   -2.2210 H   0  0  0  0  0  0  0  0  0  0  0  0
   -8.1557   -1.6971   -3.0769 H   0  0  0  0  0  0  0  0  0  0  0  0
   -6.1094   -2.7675   -2.3778 H   0  0  0  0  0  0  0  0  0  0  0  0
   -6.7221   -2.7869   -0.6329 H   0  0  0  0  0  0  0  0  0  0  0  0
   -4.3044    0.8650   -2.2513 H   0  0  0  0  0  0  0  0  0  0  0  0
   -3.3389   -0.6924   -2.4890 H   0  0  0  0  0  0  0  0  0  0  0  0
   -1.9449    0.5705   -1.1978 H   0  0  0  0  0  0  0  0  0  0  0  0
   -1.8276    2.7263   -0.7549 H   0  0  0  0  0  0  0  0  0  0  0  0
   -2.4014    4.7201    0.5528 H   0  0  0  0  0  0  0  0  0  0  0  0
   -4.2070    4.6042    2.2230 H   0  0  0  0  0  0  0  0  0  0  0  0
   -4.8046    0.4975    1.2347 H   0  0  0  0  0  0  0  0  0  0  0  0
   -1.8654   -0.4011    2.4618 H   0  0  0  0  0  0  0  0  0  0  0  0
   -0.5660   -1.5866    2.4429 H   0  0  0  0  0  0  0  0  0  0  0  0
    0.6483    0.2761    2.2226 H   0  0  0  0  0  0  0  0  0  0  0  0
   -0.6406    1.2183    1.4971 H   0  0  0  0  0  0  0  0  0  0  0  0
  1  2  1  0
  2  3  2  0
  3  4  1  0
  4  5  1  0
  5  6  1  0
  6  7  2  0
  7  8  1  0
  8  9  2  0
  9 10  1  0
 10 11  2  0
 10 12  1  0
  9 13  1  0
 13 14  2  0
  4 15  2  0
 15 16  1  0
 16 17  2  0
 17 18  1  0
 18 19  1  0
 19 20  1  0
 20 21  1  0
 21 22  1  0
 22 23  1  0
 23 24  1  0
 24 25  2  0
 24 26  1  0
 26 27  1  0
 27 28  1  0
 28 29  1  0
 29 30  1  0
 30 31  1  0
 31 32  1  0
 26 33  1  0
 33 34  1  0
 34 35  1  0
 35 36  2  0
 36 37  1  0
 37 38  2  0
 38 39  1  0
 39 40  1  0
 39 41  2  0
 22 42  1  0
 42 43  1  0
 17  2  1  0
 43 19  1  0
 14  6  1  0
 34 23  1  0
 41 35  1  0
 32 27  1  0
  1 44  1  0
  1 45  1  0
  1 46  1  0
  7 47  1  0
  8 48  1  0
 12 49  1  0
 13 50  1  0
 14 51  1  0
 15 52  1  0
 16 53  1  0
 18 54  1  0
 18 55  1  0
 20 56  1  0
 20 57  1  0
 21 58  1  0
 21 59  1  0
 22 60  1  0
 27 61  1  0
 28 62  1  0
 28 63  1  0
 29 64  1  0
 29 65  1  0
 31 66  1  0
 31 67  1  0
 32 68  1  0
 32 69  1  0
 33 70  1  0
 33 71  1  0
 34 72  1  6
 36 73  1  0
 37 74  1  0
 38 75  1  0
 41 76  1  0
 42 77  1  0
 42 78  1  0
 43 79  1  0
 43 80  1  0
M  END
$$$$
