@<TRIPOS>MOLECULE
*****
 67 68 0 0 0
SMALL
GASTEIGER

@<TRIPOS>ATOM
      1 C          -1.5719   -3.2789   -0.5907 C.3     1  UNL1        0.0861
      2 O          -1.7135   -4.5991   -1.0079 O.3     1  UNL1       -0.3891
      3 C          -2.2965   -2.3853   -1.5825 C.3     1  UNL1        0.0069
      4 C          -1.9260   -0.9552   -1.4841 C.3     1  UNL1        0.1149
      5 O          -2.6320   -0.1846   -0.5988 O.3     1  UNL1       -0.3403
      6 C          -3.4257    0.8053   -1.0578 C.3     1  UNL1        0.1883
      7 O          -2.8666    2.0634   -0.7322 O.3     1  UNL1       -0.3431
      8 C          -2.8691    2.2508    0.6419 C.3     1  UNL1        0.0873
      9 C          -1.9264    3.3138    1.0917 C.3     1  UNL1       -0.0361
     10 C          -4.2650    2.4915    1.1295 C.3     1  UNL1        0.1095
     11 O          -4.3998    3.8495    1.3410 O.3     1  UNL1       -0.3866
     12 C          -5.2883    1.9560    0.1494 C.3     1  UNL1        0.1140
     13 O          -5.6740    2.9059   -0.7775 O.3     1  UNL1       -0.3864
     14 C          -4.7970    0.6718   -0.4843 C.3     1  UNL1        0.1341
     15 O          -4.8179   -0.3163    0.4998 O.3     1  UNL1       -0.3841
     16 C          -0.4266   -0.7790   -1.3503 C.3     1  UNL1        0.1858
     17 O           0.0830    0.2085   -2.1075 O.3     1  UNL1       -0.3488
     18 C           0.5899    1.3428   -1.6430 C.3     1  UNL1        0.0508
     19 C           1.7859    1.2351   -0.6974 C.3     1  UNL1       -0.0294
     20 C           2.8836    0.5398   -1.4433 C.3     1  UNL1       -0.0510
     21 C           4.1524    0.3690   -0.6194 C.3     1  UNL1       -0.0530
     22 C           3.9271   -0.4419    0.6074 C.3     1  UNL1       -0.0531
     23 C           5.1948   -0.6124    1.3862 C.3     1  UNL1       -0.0533
     24 C           5.7724    0.7008    1.8369 C.3     1  UNL1       -0.0559
     25 C           7.0448    0.4385    2.6292 C.3     1  UNL1       -0.0653
     26 O           0.1960   -1.9849   -1.5445 O.3     1  UNL1       -0.3407
     27 C          -0.0894   -2.9654   -0.6041 C.3     1  UNL1        0.1106
     28 C           0.7309   -4.2082   -0.8680 C.3     1  UNL1        0.0729
     29 O           0.4334   -5.1955    0.0880 O.3     1  UNL1       -0.3924
     30 H          -1.9760   -3.1927    0.4184 H       1  UNL1        0.0621
     31 H          -2.6791   -4.8532   -0.8906 H       1  UNL1        0.2099
     32 H          -3.3752   -2.5994   -1.4584 H       1  UNL1        0.0318
     33 H          -2.0537   -2.8220   -2.6004 H       1  UNL1        0.0318
     34 H          -2.1838   -0.5227   -2.5013 H       1  UNL1        0.0648
     35 H          -3.4689    0.8052   -2.1622 H       1  UNL1        0.0938
     36 H          -2.5138    1.2983    1.0853 H       1  UNL1        0.0621
     37 H          -1.4169    3.8044    0.2190 H       1  UNL1        0.0255
     38 H          -2.4062    4.1018    1.6996 H       1  UNL1        0.0255
     39 H          -1.0843    2.9120    1.7303 H       1  UNL1        0.0255
     40 H          -4.4266    1.9819    2.1037 H       1  UNL1        0.0646
     41 H          -4.4688    4.0911    2.3158 H       1  UNL1        0.2100
     42 H          -6.1872    1.6876    0.7451 H       1  UNL1        0.0648
     43 H          -6.3133    3.5468   -0.3808 H       1  UNL1        0.2100
     44 H          -5.5061    0.3816   -1.2701 H       1  UNL1        0.0671
     45 H          -5.4721   -0.0703    1.1850 H       1  UNL1        0.2101
     46 H          -0.2019   -0.4744   -0.2626 H       1  UNL1        0.0937
     47 H          -0.2132    1.8723   -1.0360 H       1  UNL1        0.0561
     48 H           0.9000    2.0890   -2.4123 H       1  UNL1        0.0561
     49 H           2.1453    2.3052   -0.5840 H       1  UNL1        0.0287
     50 H           1.5198    0.7873    0.2591 H       1  UNL1        0.0287
     51 H           3.1689    1.2306   -2.2925 H       1  UNL1        0.0266
     52 H           2.5612   -0.4191   -1.8713 H       1  UNL1        0.0266
     53 H           4.8722   -0.1725   -1.2631 H       1  UNL1        0.0265
     54 H           4.5903    1.3805   -0.4248 H       1  UNL1        0.0265
     55 H           3.1492    0.1028    1.2143 H       1  UNL1        0.0265
     56 H           3.5181   -1.4204    0.2904 H       1  UNL1        0.0265
     57 H           5.9897   -1.1278    0.8104 H       1  UNL1        0.0265
     58 H           4.9729   -1.2799    2.2667 H       1  UNL1        0.0265
     59 H           5.0705    1.2988    2.4597 H       1  UNL1        0.0263
     60 H           6.0600    1.2752    0.9129 H       1  UNL1        0.0263
     61 H           7.3389   -0.6208    2.4908 H       1  UNL1        0.0230
     62 H           6.8272    0.6316    3.6998 H       1  UNL1        0.0230
     63 H           7.8344    1.1250    2.2968 H       1  UNL1        0.0230
     64 H           0.1856   -2.5860    0.3902 H       1  UNL1        0.0646
     65 H           1.8019   -3.9780   -0.7513 H       1  UNL1        0.0584
     66 H           0.5297   -4.6551   -1.8636 H       1  UNL1        0.0584
     67 H           1.1028   -5.1508    0.8434 H       1  UNL1        0.2095
@<TRIPOS>BOND
     1     1     2    1
     2     1     3    1
     3     3     4    1
     4     4     5    1
     5     5     6    1
     6     6     7    1
     7     7     8    1
     8     8     9    1
     9     8    10    1
    10    10    11    1
    11    10    12    1
    12    12    13    1
    13    12    14    1
    14    14    15    1
    15     4    16    1
    16    16    17    1
    17    17    18    1
    18    18    19    1
    19    19    20    1
    20    20    21    1
    21    21    22    1
    22    22    23    1
    23    23    24    1
    24    24    25    1
    25    16    26    1
    26    26    27    1
    27    27    28    1
    28    28    29    1
    29    27     1    1
    30    14     6    1
    31     1    30    1
    32     2    31    1
    33     3    32    1
    34     3    33    1
    35     4    34    1
    36     6    35    1
    37     8    36    1
    38     9    37    1
    39     9    38    1
    40     9    39    1
    41    10    40    1
    42    11    41    1
    43    12    42    1
    44    13    43    1
    45    14    44    1
    46    15    45    1
    47    16    46    1
    48    18    47    1
    49    18    48    1
    50    19    49    1
    51    19    50    1
    52    20    51    1
    53    20    52    1
    54    21    53    1
    55    21    54    1
    56    22    55    1
    57    22    56    1
    58    23    57    1
    59    23    58    1
    60    24    59    1
    61    24    60    1
    62    25    61    1
    63    25    62    1
    64    25    63    1
    65    27    64    1
    66    28    65    1
    67    28    66    1
    68    29    67    1
