
     RDKit          3D

 63 67  0  0  0  0  0  0  0  0999 V2000
    7.3991    1.2084   -1.6572 C   0  0  0  0  0  0  0  0  0  0  0  0
    6.1108    0.6263   -1.9895 C   0  0  0  0  0  0  0  0  0  0  0  0
    5.6825    0.8996   -3.1938 O   0  0  0  0  0  0  0  0  0  0  0  0
    5.2654   -0.1768   -1.2157 N   0  0  0  0  0  0  0  0  0  0  0  0
    3.9710   -0.6276   -1.7929 C   0  0  0  0  0  0  0  0  0  0  0  0
    2.7974   -0.2237   -0.9716 C   0  0  0  0  0  0  0  0  0  0  0  0
    3.0783   -0.0492    0.4513 N   0  0  0  0  0  0  0  0  0  0  0  0
    1.9854    0.0005    1.3481 C   0  0  0  0  0  0  0  0  0  0  0  0
    2.0769   -0.0073    2.7199 C   0  0  0  0  0  0  0  0  0  0  0  0
    0.9749    0.0656    3.5705 C   0  0  0  0  0  0  0  0  0  0  0  0
   -0.2794    0.1498    3.0145 C   0  0  0  0  0  0  0  0  0  0  0  0
   -0.4346    0.1614    1.6443 C   0  0  0  0  0  0  0  0  0  0  0  0
   -1.7366    0.2497    0.9996 C   0  0  0  0  0  0  0  0  0  0  0  0
   -2.8157   -0.4689    1.3733 C   0  0  0  0  0  0  0  0  0  0  0  0
   -3.9386   -0.1364    0.5425 C   0  0  0  0  0  0  0  0  0  0  0  0
   -5.2142   -0.8154    0.6830 C   0  0  0  0  0  0  0  0  0  0  0  0
   -5.2849   -2.0317    1.3869 C   0  0  0  0  0  0  0  0  0  0  0  0
   -6.5693   -2.2512    1.7461 C   0  0  0  0  0  0  0  0  0  0  0  0
   -7.2656   -1.2400    1.3001 N   0  0  0  0  0  0  0  0  0  0  0  0
   -6.4444   -0.3505    0.6453 N   0  0  0  0  0  0  0  0  0  0  0  0
   -7.1290    0.8063    0.1190 C   0  0  0  0  0  0  0  0  0  0  0  0
   -8.0728    0.5512   -0.9989 C   0  0  0  0  0  0  0  0  0  0  0  0
   -8.6249    1.7632   -1.4429 F   0  0  0  0  0  0  0  0  0  0  0  0
   -9.2359   -0.1210   -0.4289 F   0  0  0  0  0  0  0  0  0  0  0  0
   -7.7449   -0.2401   -2.0211 F   0  0  0  0  0  0  0  0  0  0  0  0
   -3.3984    0.7845   -0.3052 C   0  0  0  0  0  0  0  0  0  0  0  0
   -3.8596    1.4461   -1.4120 C   0  0  0  0  0  0  0  0  0  0  0  0
   -5.0972    1.0248   -1.9836 N   0  0  0  0  0  0  0  0  0  0  0  0
   -3.1076    2.2903   -2.1644 N   0  0  0  0  0  0  0  0  0  0  0  0
   -1.8302    2.5048   -1.8399 C   0  0  0  0  0  0  0  0  0  0  0  0
   -1.3532    1.8561   -0.7729 N   0  0  0  0  0  0  0  0  0  0  0  0
   -2.0743    1.0324   -0.0350 N   0  0  0  0  0  0  0  0  0  0  0  0
    0.6792    0.0881    0.8438 C   0  0  0  0  0  0  0  0  0  0  0  0
    4.3955    0.0464    0.9199 C   0  0  0  0  0  0  0  0  0  0  0  0
    4.7124    0.6651    1.9299 O   0  0  0  0  0  0  0  0  0  0  0  0
    5.4538   -0.6520    0.1230 C   0  0  0  0  0  0  0  0  0  0  0  0
    5.1357   -2.1565    0.0732 C   0  0  0  0  0  0  0  0  0  0  0  0
    6.7979   -0.5283    0.7034 C   0  0  0  0  0  0  0  0  0  0  0  0
    8.1863    0.5287   -1.3130 H   0  0  0  0  0  0  0  0  0  0  0  0
    7.3201    2.0498   -0.9092 H   0  0  0  0  0  0  0  0  0  0  0  0
    7.8578    1.7459   -2.5586 H   0  0  0  0  0  0  0  0  0  0  0  0
    4.0365   -1.7294   -1.8978 H   0  0  0  0  0  0  0  0  0  0  0  0
    3.9519   -0.2275   -2.8228 H   0  0  0  0  0  0  0  0  0  0  0  0
    1.9798   -1.0094   -1.0184 H   0  0  0  0  0  0  0  0  0  0  0  0
    2.3506    0.6824   -1.4259 H   0  0  0  0  0  0  0  0  0  0  0  0
    3.0690   -0.0856    3.1957 H   0  0  0  0  0  0  0  0  0  0  0  0
    1.0732    0.0581    4.6306 H   0  0  0  0  0  0  0  0  0  0  0  0
   -1.1756    0.2090    3.6326 H   0  0  0  0  0  0  0  0  0  0  0  0
   -2.8899   -1.1985    2.1764 H   0  0  0  0  0  0  0  0  0  0  0  0
   -4.4385   -2.7092    1.6115 H   0  0  0  0  0  0  0  0  0  0  0  0
   -6.9650   -3.1161    2.3062 H   0  0  0  0  0  0  0  0  0  0  0  0
   -6.4751    1.6819    0.0195 H   0  0  0  0  0  0  0  0  0  0  0  0
   -7.8419    1.1890    0.9808 H   0  0  0  0  0  0  0  0  0  0  0  0
   -5.2794    0.0072   -2.1412 H   0  0  0  0  0  0  0  0  0  0  0  0
   -5.8105    1.7120   -2.2613 H   0  0  0  0  0  0  0  0  0  0  0  0
   -1.1919    3.1778   -2.4122 H   0  0  0  0  0  0  0  0  0  0  0  0
    0.5290    0.1041   -0.2237 H   0  0  0  0  0  0  0  0  0  0  0  0
    5.5954   -2.5274   -0.8607 H   0  0  0  0  0  0  0  0  0  0  0  0
    5.6073   -2.6804    0.9228 H   0  0  0  0  0  0  0  0  0  0  0  0
    4.0613   -2.3544    0.0386 H   0  0  0  0  0  0  0  0  0  0  0  0
    7.5309   -1.1292    0.1334 H   0  0  0  0  0  0  0  0  0  0  0  0
    6.7911   -1.0264    1.7357 H   0  0  0  0  0  0  0  0  0  0  0  0
    7.1229    0.5038    0.7906 H   0  0  0  0  0  0  0  0  0  0  0  0
  1  2  1  0
  2  3  2  0
  2  4  1  0
  4  5  1  0
  5  6  1  0
  6  7  1  0
  7  8  1  0
  8  9  2  0
  9 10  1  0
 10 11  2  0
 11 12  1  0
 12 13  1  0
 13 14  2  0
 14 15  1  0
 15 16  1  0
 16 17  2  0
 17 18  1  0
 18 19  2  0
 19 20  1  0
 20 21  1  0
 21 22  1  0
 22 23  1  0
 22 24  1  0
 22 25  1  0
 15 26  2  0
 26 27  1  0
 27 28  1  0
 27 29  2  0
 29 30  1  0
 30 31  2  0
 31 32  1  0
 12 33  2  0
  7 34  1  0
 34 35  2  0
 34 36  1  0
 36 37  1  0
 36 38  1  0
 36  4  1  0
 33  8  1  0
 32 13  1  0
 20 16  1  0
 32 26  1  0
  1 39  1  0
  1 40  1  0
  1 41  1  0
  5 42  1  0
  5 43  1  0
  6 44  1  0
  6 45  1  0
  9 46  1  0
 10 47  1  0
 11 48  1  0
 14 49  1  0
 17 50  1  0
 18 51  1  0
 21 52  1  0
 21 53  1  0
 28 54  1  0
 28 55  1  0
 30 56  1  0
 33 57  1  0
 37 58  1  0
 37 59  1  0
 37 60  1  0
 38 61  1  0
 38 62  1  0
 38 63  1  0
M  END
$$$$
