@<TRIPOS>MOLECULE
*****
 63 67 0 0 0
SMALL
GASTEIGER

@<TRIPOS>ATOM
      1 C           7.3991    1.2084   -1.6572 C.3     1  UNL1        0.0124
      2 C           6.1108    0.6263   -1.9895 C.2     1  UNL1        0.2133
      3 O           5.6825    0.8996   -3.1938 O.2     1  UNL1       -0.2759
      4 N           5.2654   -0.1768   -1.2157 N.am    1  UNL1       -0.2865
      5 C           3.9710   -0.6276   -1.7929 C.3     1  UNL1        0.0319
      6 C           2.7974   -0.2237   -0.9716 C.3     1  UNL1        0.0357
      7 N           3.0783   -0.0492    0.4513 N.am    1  UNL1       -0.2681
      8 C           1.9854    0.0005    1.3481 C.ar    1  UNL1        0.0370
      9 C           2.0769   -0.0073    2.7199 C.ar    1  UNL1       -0.0402
     10 C           0.9749    0.0656    3.5705 C.ar    1  UNL1       -0.0594
     11 C          -0.2794    0.1498    3.0145 C.ar    1  UNL1       -0.0525
     12 C          -0.4346    0.1614    1.6443 C.ar    1  UNL1        0.0022
     13 C          -1.7366    0.2497    0.9996 C.ar    1  UNL1        0.0741
     14 C          -2.8157   -0.4689    1.3733 C.ar    1  UNL1       -0.0243
     15 C          -3.9386   -0.1364    0.5425 C.ar    1  UNL1        0.0308
     16 C          -5.2142   -0.8154    0.6830 C.ar    1  UNL1        0.0714
     17 C          -5.2849   -2.0317    1.3869 C.ar    1  UNL1       -0.0162
     18 C          -6.5693   -2.2512    1.7461 C.ar    1  UNL1        0.0500
     19 N          -7.2656   -1.2400    1.3001 N.ar    1  UNL1       -0.1788
     20 N          -6.4444   -0.3505    0.6453 N.ar    1  UNL1       -0.2550
     21 C          -7.1290    0.8063    0.1190 C.3     1  UNL1        0.1371
     22 C          -8.0728    0.5512   -0.9989 C.3     1  UNL1        0.4089
     23 F          -8.6249    1.7632   -1.4429 F       1  UNL1       -0.1687
     24 F          -9.2359   -0.1210   -0.4289 F       1  UNL1       -0.1687
     25 F          -7.7449   -0.2401   -2.0211 F       1  UNL1       -0.1687
     26 C          -3.3984    0.7845   -0.3052 C.ar    1  UNL1        0.1146
     27 C          -3.8596    1.4461   -1.4120 C.ar    1  UNL1        0.1443
     28 N          -5.0972    1.0248   -1.9836 N.pl3   1  UNL1       -0.3414
     29 N          -3.1076    2.2903   -2.1644 N.ar    1  UNL1       -0.2172
     30 C          -1.8302    2.5048   -1.8399 C.ar    1  UNL1        0.1388
     31 N          -1.3532    1.8561   -0.7729 N.ar    1  UNL1       -0.1543
     32 N          -2.0743    1.0324   -0.0350 N.ar    1  UNL1       -0.2268
     33 C           0.6792    0.0881    0.8438 C.ar    1  UNL1       -0.0311
     34 C           4.3955    0.0464    0.9199 C.2     1  UNL1        0.2430
     35 O           4.7124    0.6651    1.9299 O.2     1  UNL1       -0.2729
     36 C           5.4538   -0.6520    0.1230 C.3     1  UNL1        0.1082
     37 C           5.1357   -2.1565    0.0732 C.3     1  UNL1       -0.0352
     38 C           6.7979   -0.5283    0.7034 C.3     1  UNL1       -0.0352
     39 H           8.1863    0.5287   -1.3130 H       1  UNL1        0.0323
     40 H           7.3201    2.0498   -0.9092 H       1  UNL1        0.0323
     41 H           7.8578    1.7459   -2.5586 H       1  UNL1        0.0323
     42 H           4.0365   -1.7294   -1.8978 H       1  UNL1        0.0480
     43 H           3.9519   -0.2275   -2.8228 H       1  UNL1        0.0480
     44 H           1.9798   -1.0094   -1.0184 H       1  UNL1        0.0484
     45 H           2.3506    0.6824   -1.4259 H       1  UNL1        0.0484
     46 H           3.0690   -0.0856    3.1957 H       1  UNL1        0.0636
     47 H           1.0732    0.0581    4.6306 H       1  UNL1        0.0618
     48 H          -1.1756    0.2090    3.6326 H       1  UNL1        0.0624
     49 H          -2.8899   -1.1985    2.1764 H       1  UNL1        0.0646
     50 H          -4.4385   -2.7092    1.6115 H       1  UNL1        0.0654
     51 H          -6.9650   -3.1161    2.3062 H       1  UNL1        0.0848
     52 H          -6.4751    1.6819    0.0195 H       1  UNL1        0.0598
     53 H          -7.8419    1.1890    0.9808 H       1  UNL1        0.0598
     54 H          -5.2794    0.0072   -2.1412 H       1  UNL1        0.1438
     55 H          -5.8105    1.7120   -2.2613 H       1  UNL1        0.1438
     56 H          -1.1919    3.1778   -2.4122 H       1  UNL1        0.1066
     57 H           0.5290    0.1041   -0.2237 H       1  UNL1        0.0643
     58 H           5.5954   -2.5274   -0.8607 H       1  UNL1        0.0255
     59 H           5.6073   -2.6804    0.9228 H       1  UNL1        0.0255
     60 H           4.0613   -2.3544    0.0386 H       1  UNL1        0.0255
     61 H           7.5309   -1.1292    0.1334 H       1  UNL1        0.0255
     62 H           6.7911   -1.0264    1.7357 H       1  UNL1        0.0255
     63 H           7.1229    0.5038    0.7906 H       1  UNL1        0.0255
@<TRIPOS>BOND
     1     1     2    1
     2     2     3    2
     3     2     4   am
     4     4     5    1
     5     5     6    1
     6     6     7    1
     7     7     8    1
     8     8     9   ar
     9     9    10   ar
    10    10    11   ar
    11    11    12   ar
    12    12    13    1
    13    13    14   ar
    14    14    15   ar
    15    15    16    1
    16    16    17   ar
    17    17    18   ar
    18    18    19   ar
    19    19    20   ar
    20    20    21    1
    21    21    22    1
    22    22    23    1
    23    22    24    1
    24    22    25    1
    25    15    26   ar
    26    26    27   ar
    27    27    28    1
    28    27    29   ar
    29    29    30   ar
    30    30    31   ar
    31    31    32   ar
    32    12    33   ar
    33     7    34   am
    34    34    35    2
    35    34    36    1
    36    36    37    1
    37    36    38    1
    38    36     4    1
    39    33     8   ar
    40    32    13   ar
    41    20    16   ar
    42    32    26   ar
    43     1    39    1
    44     1    40    1
    45     1    41    1
    46     5    42    1
    47     5    43    1
    48     6    44    1
    49     6    45    1
    50     9    46    1
    51    10    47    1
    52    11    48    1
    53    14    49    1
    54    17    50    1
    55    18    51    1
    56    21    52    1
    57    21    53    1
    58    28    54    1
    59    28    55    1
    60    30    56    1
    61    33    57    1
    62    37    58    1
    63    37    59    1
    64    37    60    1
    65    38    61    1
    66    38    62    1
    67    38    63    1
