
     RDKit          3D

 38 41  0  0  0  0  0  0  0  0999 V2000
    8.0532    0.1204    1.4528 O   0  0  0  0  0  0  0  0  0  0  0  0
    8.1318    0.8670    0.4657 C   0  0  0  0  0  0  0  0  0  0  0  0
    8.7902    2.1014    0.4949 O   0  0  0  0  0  0  0  0  0  0  0  0
    7.5200    0.4757   -0.8178 C   0  0  0  0  0  0  0  0  0  0  0  0
    6.0764    0.5972   -0.8090 N   0  0  0  0  0  0  0  0  0  0  0  0
    5.3441    1.6461   -1.1238 N   0  0  0  0  0  0  0  0  0  0  0  0
    4.0533    1.3599   -1.0083 N   0  0  0  0  0  0  0  0  0  0  0  0
    3.9447    0.0879   -0.6078 C   0  0  0  0  0  0  0  0  0  0  0  0
    2.7208   -0.6257   -0.3778 C   0  0  0  0  0  0  0  0  0  0  0  0
    2.4211   -1.7979    0.2221 C   0  0  0  0  0  0  0  0  0  0  0  0
    1.1692   -2.1711    0.2423 N   0  0  0  0  0  0  0  0  0  0  0  0
    0.2385   -1.6064   -0.2049 C   0  0  0  0  0  0  0  0  0  0  0  0
   -1.2167   -1.7674   -0.3347 C   0  0  0  0  0  0  0  0  0  0  0  0
   -2.1109   -0.9105   -0.9409 C   0  0  0  0  0  0  0  0  0  0  0  0
   -3.3494   -1.4328   -0.8370 N   0  0  0  0  0  0  0  0  0  0  0  0
   -4.5910   -0.8333   -1.3538 C   0  0  0  0  0  0  0  0  0  0  0  0
   -5.2139    0.0402   -0.3547 C   0  0  0  0  0  0  0  0  0  0  0  0
   -4.9195    1.3859   -0.3580 C   0  0  0  0  0  0  0  0  0  0  0  0
   -5.5130    2.1835    0.6072 C   0  0  0  0  0  0  0  0  0  0  0  0
   -5.1751    3.8863    0.6377 Cl  0  0  0  0  0  0  0  0  0  0  0  0
   -6.3763    1.6249    1.5421 C   0  0  0  0  0  0  0  0  0  0  0  0
   -7.0943    2.6659    2.7342 Cl  0  0  0  0  0  0  0  0  0  0  0  0
   -6.6691    0.2809    1.5422 C   0  0  0  0  0  0  0  0  0  0  0  0
   -7.7662   -0.4006    2.7270 Cl  0  0  0  0  0  0  0  0  0  0  0  0
   -6.0708   -0.4981    0.5755 C   0  0  0  0  0  0  0  0  0  0  0  0
   -3.2272   -2.5726   -0.1899 N   0  0  0  0  0  0  0  0  0  0  0  0
   -1.9609   -2.7825    0.1144 N   0  0  0  0  0  0  0  0  0  0  0  0
    1.0665   -0.0708   -0.9254 S   0  0  0  0  0  0  0  0  0  0  0  0
    5.2003   -0.3674   -0.4891 N   0  0  0  0  0  0  0  0  0  0  0  0
    9.5813    2.1805    1.1540 H   0  0  0  0  0  0  0  0  0  0  0  0
    7.9865    0.9673   -1.6761 H   0  0  0  0  0  0  0  0  0  0  0  0
    7.7381   -0.6277   -0.9232 H   0  0  0  0  0  0  0  0  0  0  0  0
    3.2186   -2.4166    0.6810 H   0  0  0  0  0  0  0  0  0  0  0  0
   -1.8320    0.0079   -1.4077 H   0  0  0  0  0  0  0  0  0  0  0  0
   -5.2493   -1.6528   -1.6769 H   0  0  0  0  0  0  0  0  0  0  0  0
   -4.3604   -0.2175   -2.2502 H   0  0  0  0  0  0  0  0  0  0  0  0
   -4.2399    1.8380   -1.0905 H   0  0  0  0  0  0  0  0  0  0  0  0
   -6.3187   -1.5652    0.5971 H   0  0  0  0  0  0  0  0  0  0  0  0
  1  2  2  0
  2  3  1  0
  2  4  1  0
  4  5  1  0
  5  6  1  0
  6  7  2  0
  7  8  1  0
  8  9  1  0
  9 10  2  0
 10 11  1  0
 11 12  2  0
 12 13  1  0
 13 14  2  0
 14 15  1  0
 15 16  1  0
 16 17  1  0
 17 18  2  0
 18 19  1  0
 19 20  1  0
 19 21  2  0
 21 22  1  0
 21 23  1  0
 23 24  1  0
 23 25  2  0
 15 26  1  0
 26 27  2  0
 12 28  1  0
  8 29  2  0
 29  5  1  0
 28  9  1  0
 27 13  1  0
 25 17  1  0
  3 30  1  0
  4 31  1  0
  4 32  1  0
 10 33  1  0
 14 34  1  0
 16 35  1  0
 16 36  1  0
 18 37  1  0
 25 38  1  0
M  END
$$$$
