@<TRIPOS>MOLECULE
*****
 38 41 0 0 0
SMALL
GASTEIGER

@<TRIPOS>ATOM
      1 O           8.0532    0.1204    1.4528 O.2     1  UNL1       -0.2489
      2 C           8.1318    0.8670    0.4657 C.2     1  UNL1        0.3282
      3 O           8.7902    2.1014    0.4949 O.3     1  UNL1       -0.4793
      4 C           7.5200    0.4757   -0.8178 C.3     1  UNL1        0.1593
      5 N           6.0764    0.5972   -0.8090 N.ar    1  UNL1       -0.1519
      6 N           5.3441    1.6461   -1.1238 N.ar    1  UNL1       -0.0452
      7 N           4.0533    1.3599   -1.0083 N.ar    1  UNL1       -0.1072
      8 C           3.9447    0.0879   -0.6078 C.ar    1  UNL1        0.2126
      9 C           2.7208   -0.6257   -0.3778 C.ar    1  UNL1        0.0799
     10 C           2.4211   -1.7979    0.2221 C.ar    1  UNL1        0.0464
     11 N           1.1692   -2.1711    0.2423 N.ar    1  UNL1       -0.2449
     12 C           0.2385   -1.6064   -0.2049 C.ar    1  UNL1        0.1304
     13 C          -1.2167   -1.7674   -0.3347 C.ar    1  UNL1        0.1374
     14 C          -2.1109   -0.9105   -0.9409 C.ar    1  UNL1        0.0558
     15 N          -3.3494   -1.4328   -0.8370 N.ar    1  UNL1       -0.2467
     16 C          -4.5910   -0.8333   -1.3538 C.3     1  UNL1        0.0683
     17 C          -5.2139    0.0402   -0.3547 C.ar    1  UNL1       -0.0232
     18 C          -4.9195    1.3859   -0.3580 C.ar    1  UNL1       -0.0369
     19 C          -5.5130    2.1835    0.6072 C.ar    1  UNL1        0.0610
     20 CL         -5.1751    3.8863    0.6377 Cl      1  UNL1       -0.0820
     21 C          -6.3763    1.6249    1.5421 C.ar    1  UNL1        0.0775
     22 CL         -7.0943    2.6659    2.7342 Cl      1  UNL1       -0.0805
     23 C          -6.6691    0.2809    1.5422 C.ar    1  UNL1        0.0610
     24 CL         -7.7662   -0.4006    2.7270 Cl      1  UNL1       -0.0820
     25 C          -6.0708   -0.4981    0.5755 C.ar    1  UNL1       -0.0369
     26 N          -3.2272   -2.5726   -0.1899 N.ar    1  UNL1       -0.0647
     27 N          -1.9609   -2.7825    0.1144 N.ar    1  UNL1       -0.1274
     28 S           1.0665   -0.0708   -0.9254 S.2     1  UNL1       -0.0624
     29 N           5.2003   -0.3674   -0.4891 N.ar    1  UNL1       -0.1293
     30 H           9.5813    2.1805    1.1540 H       1  UNL1        0.2951
     31 H           7.9865    0.9673   -1.6761 H       1  UNL1        0.0644
     32 H           7.7381   -0.6277   -0.9232 H       1  UNL1        0.0644
     33 H           3.2186   -2.4166    0.6810 H       1  UNL1        0.0842
     34 H          -1.8320    0.0079   -1.4077 H       1  UNL1        0.0849
     35 H          -5.2493   -1.6528   -1.6769 H       1  UNL1        0.0559
     36 H          -4.3604   -0.2175   -2.2502 H       1  UNL1        0.0559
     37 H          -4.2399    1.8380   -1.0905 H       1  UNL1        0.0636
     38 H          -6.3187   -1.5652    0.5971 H       1  UNL1        0.0636
@<TRIPOS>BOND
     1     1     2    2
     2     2     3    1
     3     2     4    1
     4     4     5    1
     5     5     6   ar
     6     6     7   ar
     7     7     8   ar
     8     8     9    1
     9     9    10   ar
    10    10    11   ar
    11    11    12   ar
    12    12    13    1
    13    13    14   ar
    14    14    15   ar
    15    15    16    1
    16    16    17    1
    17    17    18   ar
    18    18    19   ar
    19    19    20    1
    20    19    21   ar
    21    21    22    1
    22    21    23   ar
    23    23    24    1
    24    23    25   ar
    25    15    26   ar
    26    26    27   ar
    27    12    28   ar
    28     8    29   ar
    29    29     5   ar
    30    28     9   ar
    31    27    13   ar
    32    25    17   ar
    33     3    30    1
    34     4    31    1
    35     4    32    1
    36    10    33    1
    37    14    34    1
    38    16    35    1
    39    16    36    1
    40    18    37    1
    41    25    38    1
