
     RDKit          3D

  8  7  0  0  0  0  0  0  0  0999 V2000
   -0.9482   -0.0212   -0.0798 C   0  0  0  0  0  0  0  0  0  0  0  0
    0.8474    0.0769    0.0907 P   0  0  0  0  0  0  0  0  0  0  0  0
    1.6092   -1.0252   -0.9587 O   0  0  0  0  0  1  0  0  0  0  0  0
    1.1729   -0.2813    1.5339 O   0  0  0  0  0  0  0  0  0  0  0  0
   -1.1455   -0.5137   -1.0659 H   0  0  0  0  0  0  0  0  0  0  0  0
   -1.4233   -0.5970    0.7517 H   0  0  0  0  0  0  0  0  0  0  0  0
   -1.4088    0.9946   -0.0429 H   0  0  0  0  0  0  0  0  0  0  0  0
    1.2963    1.3669   -0.2289 H   0  0  0  0  0  0  0  0  0  0  0  0
  1  2  1  0
  2  3  1  0
  2  4  2  0
  1  5  1  0
  1  6  1  0
  1  7  1  0
  2  8  1  0
M  CHG  1   3  -1
M  END
$$$$
