@<TRIPOS>MOLECULE
*****
 8 7 0 0 0
SMALL
GASTEIGER

@<TRIPOS>ATOM
      1 C          -0.9482   -0.0212   -0.0798 C.3     1  UNL1       -0.0262
      2 P           0.8474    0.0769    0.0907 P.3     1  UNL1        0.0001
      3 O           1.6092   -1.0252   -0.9587 O.co2   1  UNL1       -0.8040
      4 O           1.1729   -0.2813    1.5339 O.2     1  UNL1       -0.3405
      5 H          -1.1455   -0.5137   -1.0659 H       1  UNL1        0.0293
      6 H          -1.4233   -0.5970    0.7517 H       1  UNL1        0.0293
      7 H          -1.4088    0.9946   -0.0429 H       1  UNL1        0.0293
      8 H           1.2963    1.3669   -0.2289 H       1  UNL1        0.0828
@<TRIPOS>UNITY_ATOM_ATTR
3 1
charge -1
@<TRIPOS>BOND
     1     1     2    1
     2     2     3    1
     3     2     4    2
     4     1     5    1
     5     1     6    1
     6     1     7    1
     7     2     8    1
