@<TRIPOS>MOLECULE
*****
 63 66 0 0 0
SMALL
GASTEIGER

@<TRIPOS>ATOM
      1 C          -8.9542    3.2376   -0.4723 C.3     1  UNL1       -0.0653
      2 C          -8.9287    1.9139    0.2567 C.3     1  UNL1       -0.0559
      3 C          -7.5354    1.6588    0.8057 C.3     1  UNL1       -0.0533
      4 C          -7.5515    0.3192    1.5312 C.3     1  UNL1       -0.0530
      5 C          -6.1678    0.0573    2.0814 C.3     1  UNL1       -0.0516
      6 C          -5.1366    0.0107    0.9961 C.3     1  UNL1       -0.0373
      7 C          -5.4636   -1.0836    0.0277 C.3     1  UNL1        0.0147
      8 N          -4.4960   -1.1791   -1.0485 N.am    1  UNL1       -0.2808
      9 C          -3.1251   -1.4398   -0.8341 C.2     1  UNL1        0.4056
     10 O          -2.6787   -1.6039    0.3274 O.2     1  UNL1       -0.2260
     11 O          -2.2109   -1.5269   -1.8866 O.3     1  UNL1       -0.4115
     12 C          -0.8648   -1.7812   -1.6993 C.ar    1  UNL1        0.1334
     13 C          -0.4447   -3.0936   -1.6975 C.ar    1  UNL1       -0.0172
     14 C           0.8938   -3.3946   -1.5135 C.ar    1  UNL1       -0.0327
     15 C           1.8459   -2.4171   -1.3278 C.ar    1  UNL1        0.0672
     16 N           3.2224   -2.6826   -1.1365 N.ar    1  UNL1       -0.2197
     17 C           3.9781   -2.5301   -0.0356 C.ar    1  UNL1        0.0577
     18 C           5.2788   -2.9039   -0.2662 C.ar    1  UNL1        0.1204
     19 C           6.4715   -2.9188    0.5933 C.3     1  UNL1        0.1346
     20 O           7.2594   -1.8308    0.4298 O.3     1  UNL1       -0.4856
     21 C           7.1042   -0.5314    0.6407 C.ar    1  UNL1        0.1246
     22 C           5.9985    0.0723    1.1523 C.ar    1  UNL1       -0.0191
     23 C           5.8995    1.4577    1.3457 C.ar    1  UNL1       -0.0476
     24 C           6.9902    2.2419    0.9951 C.ar    1  UNL1        0.0178
     25 C           6.9697    3.6111    1.1556 C.ar    1  UNL1       -0.0443
     26 C           8.0807    4.3269    0.7897 C.ar    1  UNL1        0.0236
     27 C           9.1933    3.7056    0.2745 C.ar    1  UNL1        0.3372
     28 O          10.2024    4.3980   -0.0531 O.2     1  UNL1       -0.2452
     29 O           9.1647    2.4137    0.1422 O.2     1  UNL1       -0.4220
     30 C           8.1202    1.6510    0.4762 C.ar    1  UNL1        0.1425
     31 C           8.1846    0.3025    0.3003 C.ar    1  UNL1        0.0231
     32 N           5.2548   -3.2941   -1.5876 N.ar    1  UNL1       -0.1307
     33 N           4.0439   -3.1507   -2.0566 N.ar    1  UNL1       -0.0604
     34 C           1.4148   -1.1027   -1.3311 C.ar    1  UNL1       -0.0327
     35 C           0.0829   -0.8017   -1.5141 C.ar    1  UNL1       -0.0172
     36 H          -9.2195    4.0615    0.2120 H       1  UNL1        0.0230
     37 H          -9.7537    3.1774   -1.2622 H       1  UNL1        0.0230
     38 H          -8.0076    3.4329   -1.0253 H       1  UNL1        0.0230
     39 H          -9.6360    2.0091    1.1116 H       1  UNL1        0.0263
     40 H          -9.2779    1.1298   -0.4146 H       1  UNL1        0.0263
     41 H          -6.8553    1.6516   -0.0654 H       1  UNL1        0.0265
     42 H          -7.3010    2.4446    1.5385 H       1  UNL1        0.0265
     43 H          -8.2270    0.4619    2.4175 H       1  UNL1        0.0265
     44 H          -7.9412   -0.5016    0.9330 H       1  UNL1        0.0265
     45 H          -5.9612    0.9183    2.7836 H       1  UNL1        0.0266
     46 H          -6.1534   -0.8582    2.7021 H       1  UNL1        0.0266
     47 H          -4.1671   -0.2316    1.4786 H       1  UNL1        0.0280
     48 H          -5.0121    0.9580    0.4624 H       1  UNL1        0.0280
     49 H          -5.4036   -2.0771    0.5609 H       1  UNL1        0.0463
     50 H          -6.4870   -0.9963   -0.3889 H       1  UNL1        0.0463
     51 H          -4.8441   -1.0457   -2.0318 H       1  UNL1        0.1520
     52 H          -1.1867   -3.8870   -1.8437 H       1  UNL1        0.0655
     53 H           1.2345   -4.4181   -1.5102 H       1  UNL1        0.0640
     54 H           3.5657   -2.1619    0.8922 H       1  UNL1        0.0851
     55 H           6.1886   -3.0079    1.6816 H       1  UNL1        0.0764
     56 H           7.0530   -3.8515    0.3121 H       1  UNL1        0.0764
     57 H           5.1517   -0.5151    1.4495 H       1  UNL1        0.0654
     58 H           5.0274    1.9258    1.7475 H       1  UNL1        0.0626
     59 H           6.0735    4.0531    1.5642 H       1  UNL1        0.0627
     60 H           8.0808    5.4137    0.9106 H       1  UNL1        0.0689
     61 H           9.0823   -0.1391   -0.1088 H       1  UNL1        0.0691
     62 H           2.1193   -0.2846   -1.1893 H       1  UNL1        0.0640
     63 H          -0.2387    0.2264   -1.5144 H       1  UNL1        0.0655
@<TRIPOS>BOND
     1     1     2    1
     2     2     3    1
     3     3     4    1
     4     4     5    1
     5     5     6    1
     6     6     7    1
     7     7     8    1
     8     8     9   am
     9     9    10    2
    10     9    11    1
    11    11    12    1
    12    12    13   ar
    13    13    14   ar
    14    14    15   ar
    15    15    16    1
    16    16    17   ar
    17    17    18   ar
    18    18    19    1
    19    19    20    1
    20    20    21    1
    21    21    22   ar
    22    22    23   ar
    23    23    24   ar
    24    24    25   ar
    25    25    26   ar
    26    26    27   ar
    27    27    28    2
    28    27    29   ar
    29    29    30   ar
    30    30    31   ar
    31    18    32   ar
    32    32    33   ar
    33    15    34   ar
    34    34    35   ar
    35    35    12   ar
    36    33    16   ar
    37    31    21   ar
    38    30    24   ar
    39     1    36    1
    40     1    37    1
    41     1    38    1
    42     2    39    1
    43     2    40    1
    44     3    41    1
    45     3    42    1
    46     4    43    1
    47     4    44    1
    48     5    45    1
    49     5    46    1
    50     6    47    1
    51     6    48    1
    52     7    49    1
    53     7    50    1
    54     8    51    1
    55    13    52    1
    56    14    53    1
    57    17    54    1
    58    19    55    1
    59    19    56    1
    60    22    57    1
    61    23    58    1
    62    25    59    1
    63    26    60    1
    64    31    61    1
    65    34    62    1
    66    35    63    1
