@<TRIPOS>MOLECULE
*****
 52 54 0 0 0
SMALL
GASTEIGER

@<TRIPOS>ATOM
      1 C          -0.7344   -1.0617   -3.8286 C.3     1  UNL1       -0.0511
      2 C          -0.3723   -1.4955   -2.4382 C.3     1  UNL1        0.0489
      3 C          -0.4316   -2.9935   -2.3261 C.3     1  UNL1       -0.0511
      4 C           1.0556   -1.0518   -2.1960 C.2     1  UNL1        0.2219
      5 O           2.0009   -1.1920   -3.0467 O.2     1  UNL1       -0.2750
      6 N           1.1658   -0.4719   -0.9073 N.am    1  UNL1       -0.2976
      7 C           2.3875    0.1933   -0.4066 C.3     1  UNL1        0.0260
      8 C           2.1271    1.6455   -0.1883 C.3     1  UNL1       -0.0343
      9 C           3.4308    2.4082   -0.4760 C.3     1  UNL1       -0.0514
     10 C           4.5388    1.6914    0.2772 C.3     1  UNL1       -0.0530
     11 C           4.0731    1.4971    1.6802 C.3     1  UNL1       -0.0530
     12 C           3.3212    0.2386    1.9438 C.3     1  UNL1       -0.0514
     13 C           2.9349   -0.5595    0.7487 C.3     1  UNL1       -0.0343
     14 C          -0.0793   -0.6516   -0.2259 C.3     1  UNL1        0.0218
     15 C          -1.0763   -0.7400   -1.3602 C.3     1  UNL1        0.0224
     16 C          -2.4079   -1.3337   -0.9378 C.3     1  UNL1        0.0964
     17 O          -3.0694   -0.7148   -0.0035 O.3     1  UNL1       -0.4760
     18 C          -3.7266   -0.0984    0.9233 C.ar    1  UNL1        0.2147
     19 C          -4.0718   -0.7082    2.1502 C.ar    1  UNL1        0.0012
     20 C          -4.7559   -0.1036    3.1438 C.ar    1  UNL1       -0.0379
     21 C          -5.1504    1.2047    2.9561 C.ar    1  UNL1        0.0701
     22 C          -5.8808    1.8862    3.9792 C.1     1  UNL1        0.1007
     23 N          -6.4632    2.4292    4.8101 N.1     1  UNL1       -0.1908
     24 C          -4.8230    1.8171    1.7655 C.ar    1  UNL1        0.0487
     25 N          -4.1542    1.2038    0.8122 N.ar    1  UNL1       -0.2200
     26 H          -1.8040   -0.8144   -3.9559 H       1  UNL1        0.0240
     27 H          -0.4176   -1.8660   -4.5274 H       1  UNL1        0.0240
     28 H          -0.1001   -0.1852   -4.1055 H       1  UNL1        0.0240
     29 H          -0.5505   -3.3233   -1.2957 H       1  UNL1        0.0240
     30 H          -1.1484   -3.3509   -3.0605 H       1  UNL1        0.0240
     31 H           0.5674   -3.3778   -2.6517 H       1  UNL1        0.0240
     32 H           3.1777    0.1470   -1.2177 H       1  UNL1        0.0500
     33 H           1.7704    1.9223    0.8193 H       1  UNL1        0.0283
     34 H           1.4216    1.9904   -0.9907 H       1  UNL1        0.0283
     35 H           3.6051    2.4008   -1.5702 H       1  UNL1        0.0266
     36 H           3.3633    3.4214   -0.0881 H       1  UNL1        0.0266
     37 H           5.4120    2.3822    0.2767 H       1  UNL1        0.0265
     38 H           4.8577    0.7689   -0.2195 H       1  UNL1        0.0265
     39 H           4.9797    1.6102    2.3454 H       1  UNL1        0.0265
     40 H           3.4108    2.3768    1.9377 H       1  UNL1        0.0265
     41 H           2.4367    0.3823    2.6101 H       1  UNL1        0.0266
     42 H           4.0042   -0.4139    2.5657 H       1  UNL1        0.0266
     43 H           2.1849   -1.3219    1.1039 H       1  UNL1        0.0283
     44 H           3.8243   -1.1981    0.4653 H       1  UNL1        0.0283
     45 H          -0.1102   -1.6108    0.3609 H       1  UNL1        0.0469
     46 H          -0.3272    0.1390    0.5101 H       1  UNL1        0.0469
     47 H          -1.2865    0.2890   -1.7217 H       1  UNL1        0.0359
     48 H          -2.1514   -2.3980   -0.6091 H       1  UNL1        0.0700
     49 H          -3.0242   -1.5294   -1.8873 H       1  UNL1        0.0700
     50 H          -3.7478   -1.7472    2.2774 H       1  UNL1        0.0671
     51 H          -5.0169   -0.5917    4.0930 H       1  UNL1        0.0632
     52 H          -5.1697    2.8591    1.6862 H       1  UNL1        0.0844
@<TRIPOS>BOND
     1     1     2    1
     2     2     3    1
     3     2     4    1
     4     4     5    2
     5     4     6   am
     6     6     7    1
     7     7     8    1
     8     8     9    1
     9     9    10    1
    10    10    11    1
    11    11    12    1
    12    12    13    1
    13     6    14    1
    14    14    15    1
    15    15    16    1
    16    16    17    1
    17    17    18    1
    18    18    19   ar
    19    19    20   ar
    20    20    21   ar
    21    21    22    1
    22    22    23    3
    23    21    24   ar
    24    24    25   ar
    25    15     2    1
    26    25    18   ar
    27    13     7    1
    28     1    26    1
    29     1    27    1
    30     1    28    1
    31     3    29    1
    32     3    30    1
    33     3    31    1
    34     7    32    1
    35     8    33    1
    36     8    34    1
    37     9    35    1
    38     9    36    1
    39    10    37    1
    40    10    38    1
    41    11    39    1
    42    11    40    1
    43    12    41    1
    44    12    42    1
    45    13    43    1
    46    13    44    1
    47    14    45    1
    48    14    46    1
    49    15    47    1
    50    16    48    1
    51    16    49    1
    52    19    50    1
    53    20    51    1
    54    24    52    1
