@<TRIPOS>MOLECULE
*****
 52 56 0 0 0
SMALL
GASTEIGER

@<TRIPOS>ATOM
      1 C          -6.0631    3.1327    0.8483 C.3     1  UNL1        0.0788
      2 O          -5.4091    2.7592   -0.3387 O.3     1  UNL1       -0.4951
      3 C          -4.2082    2.0704   -0.3393 C.ar    1  UNL1        0.1201
      4 C          -3.5512    1.6918    0.8094 C.ar    1  UNL1       -0.0196
      5 C          -2.3560    1.0064    0.7955 C.ar    1  UNL1       -0.0505
      6 C          -1.8005    0.6896   -0.4112 C.ar    1  UNL1        0.0123
      7 C          -0.5159   -0.0460   -0.5521 C.3     1  UNL1        0.2765
      8 C           0.6530    0.8120   -0.2536 C.ar    1  UNL1        0.0126
      9 C           0.4909    2.1111    0.1671 C.ar    1  UNL1       -0.0539
     10 C           1.5970    2.9236    0.4527 C.ar    1  UNL1       -0.0608
     11 C           2.8730    2.4226    0.3131 C.ar    1  UNL1       -0.0539
     12 C           3.0474    1.1210   -0.1083 C.ar    1  UNL1       -0.0146
     13 C           4.4088    0.5635   -0.2645 C.ar    1  UNL1        0.0183
     14 C           5.4288    0.9870    0.5516 C.ar    1  UNL1        0.0385
     15 N           6.6657    0.5075    0.4391 N.ar    1  UNL1       -0.2431
     16 C           6.9234   -0.4171   -0.4995 C.ar    1  UNL1        0.1159
     17 N           5.9365   -0.8570   -1.3226 N.ar    1  UNL1       -0.2431
     18 C           4.6812   -0.3849   -1.2247 C.ar    1  UNL1        0.0385
     19 C           1.9376    0.3317   -0.3864 C.ar    1  UNL1       -0.0462
     20 N          -0.4217   -0.6144   -1.8661 N.2     1  UNL1       -0.0797
     21 C          -0.4412   -1.8917   -1.8348 C.cat   1  UNL1        0.4035
     22 N          -0.3646   -2.7459   -2.9763 N.pl3   1  UNL1       -0.2440
     23 N          -0.5470   -2.3624   -0.4980 N.pl3   1  UNL1       -0.1308
     24 C          -0.6099   -3.7216    0.0509 C.3     1  UNL1        0.0948
     25 C           0.0822   -3.6701    1.3943 C.3     1  UNL1        0.0258
     26 C          -0.7467   -2.7036    2.2409 C.3     1  UNL1        0.1354
     27 N          -0.6889   -1.3636    1.6370 N.2     1  UNL1       -0.0826
     28 C          -0.5932   -1.2233    0.3363 C.2     1  UNL1        0.3456
     29 C          -2.4571    1.0680   -1.5680 C.ar    1  UNL1       -0.0505
     30 C          -3.6396    1.7461   -1.5494 C.ar    1  UNL1       -0.0196
     31 H          -6.5868    2.2448    1.2595 H       1  UNL1        0.0660
     32 H          -6.7621    3.9847    0.6805 H       1  UNL1        0.0660
     33 H          -5.2953    3.5198    1.5546 H       1  UNL1        0.0660
     34 H          -4.0108    1.9537    1.7748 H       1  UNL1        0.0654
     35 H          -1.8550    0.7176    1.7201 H       1  UNL1        0.0623
     36 H          -0.5061    2.5121    0.2772 H       1  UNL1        0.0622
     37 H           1.3828    3.9313    0.7775 H       1  UNL1        0.0618
     38 H           3.7087    3.0675    0.5391 H       1  UNL1        0.0624
     39 H           5.2000    1.7313    1.3001 H       1  UNL1        0.0837
     40 H           7.9379   -0.7941   -0.5738 H       1  UNL1        0.1047
     41 H           3.8740   -0.7346   -1.8868 H       1  UNL1        0.0837
     42 H           2.1398   -0.6902   -0.7161 H       1  UNL1        0.0628
     43 H           0.1216   -3.6608   -2.8833 H       1  UNL1        0.2420
     44 H          -0.7696   -2.5051   -3.9027 H       1  UNL1        0.2420
     45 H          -1.6753   -3.9996    0.1629 H       1  UNL1        0.0733
     46 H          -0.1102   -4.4176   -0.6507 H       1  UNL1        0.0733
     47 H           0.0810   -4.6257    1.9282 H       1  UNL1        0.0341
     48 H           1.0874   -3.2527    1.2306 H       1  UNL1        0.0341
     49 H          -1.7895   -3.0754    2.2466 H       1  UNL1        0.0792
     50 H          -0.3852   -2.6678    3.2807 H       1  UNL1        0.0792
     51 H          -1.9965    0.8051   -2.5334 H       1  UNL1        0.0623
     52 H          -4.1027    2.0132   -2.5028 H       1  UNL1        0.0654
@<TRIPOS>BOND
     1     1     2    1
     2     2     3    1
     3     3     4   ar
     4     4     5   ar
     5     5     6   ar
     6     6     7    1
     7     7     8    1
     8     8     9   ar
     9     9    10   ar
    10    10    11   ar
    11    11    12   ar
    12    12    13    1
    13    13    14   ar
    14    14    15   ar
    15    15    16   ar
    16    16    17   ar
    17    17    18   ar
    18    12    19   ar
    19     7    20    1
    20    20    21    2
    21    21    22    1
    22    21    23    1
    23    23    24    1
    24    24    25    1
    25    25    26    1
    26    26    27    1
    27    27    28    2
    28     6    29   ar
    29    29    30   ar
    30    30     3   ar
    31    28     7    1
    32    19     8   ar
    33    28    23    1
    34    18    13   ar
    35     1    31    1
    36     1    32    1
    37     1    33    1
    38     4    34    1
    39     5    35    1
    40     9    36    1
    41    10    37    1
    42    11    38    1
    43    14    39    1
    44    16    40    1
    45    18    41    1
    46    19    42    1
    47    22    43    1
    48    22    44    1
    49    24    45    1
    50    24    46    1
    51    25    47    1
    52    25    48    1
    53    26    49    1
    54    26    50    1
    55    29    51    1
    56    30    52    1
