
     RDKit          3D

 30 30  0  0  0  0  0  0  0  0999 V2000
    4.4083   -0.0368    0.0421 C   0  0  0  0  0  0  0  0  0  0  0  0
    2.9553   -0.1469    0.4084 C   0  0  0  0  0  0  0  0  0  0  0  0
    2.1004   -0.0031   -0.8302 C   0  0  0  0  0  0  0  0  0  0  0  0
    0.6629   -0.1003   -0.5538 C   0  0  0  0  0  0  0  0  0  0  0  0
   -0.1800    0.9998   -0.5228 C   0  0  0  0  0  0  0  0  0  0  0  0
   -1.5242    0.9159   -0.2651 C   0  0  0  0  0  0  0  0  0  0  0  0
   -2.3665    2.0247   -0.2352 O   0  0  0  0  0  0  0  0  0  0  0  0
   -1.8240    3.2894   -0.4783 C   0  0  0  0  0  0  0  0  0  0  0  0
   -2.0940   -0.3155   -0.0205 C   0  0  0  0  0  0  0  0  0  0  0  0
   -3.4685   -0.4202    0.2447 O   0  0  0  0  0  0  0  0  0  0  0  0
   -4.0627   -1.6656    0.4948 C   0  0  0  0  0  0  0  0  0  0  0  0
   -1.2916   -1.4360   -0.0417 C   0  0  0  0  0  0  0  0  0  0  0  0
    0.0375   -1.3167   -0.3005 C   0  0  0  0  0  0  0  0  0  0  0  0
    0.8294   -2.4498   -0.3184 O   0  0  0  0  0  0  0  0  0  0  0  0
    4.9848   -0.6620    0.7557 H   0  0  0  0  0  0  0  0  0  0  0  0
    4.5564   -0.4872   -0.9622 H   0  0  0  0  0  0  0  0  0  0  0  0
    4.8055    0.9846    0.1275 H   0  0  0  0  0  0  0  0  0  0  0  0
    2.7892   -1.1809    0.8142 H   0  0  0  0  0  0  0  0  0  0  0  0
    2.6717    0.5926    1.1569 H   0  0  0  0  0  0  0  0  0  0  0  0
    2.4577   -0.6786   -1.6327 H   0  0  0  0  0  0  0  0  0  0  0  0
    2.2935    1.0385   -1.2136 H   0  0  0  0  0  0  0  0  0  0  0  0
    0.2568    1.9898   -0.7155 H   0  0  0  0  0  0  0  0  0  0  0  0
   -2.6327    4.0727   -0.4011 H   0  0  0  0  0  0  0  0  0  0  0  0
   -0.9796    3.5294    0.2005 H   0  0  0  0  0  0  0  0  0  0  0  0
   -1.4001    3.2782   -1.5097 H   0  0  0  0  0  0  0  0  0  0  0  0
   -5.1712   -1.5840    0.4023 H   0  0  0  0  0  0  0  0  0  0  0  0
   -3.7137   -2.4898   -0.1261 H   0  0  0  0  0  0  0  0  0  0  0  0
   -3.8395   -1.9393    1.5645 H   0  0  0  0  0  0  0  0  0  0  0  0
   -1.7013   -2.4356    0.1477 H   0  0  0  0  0  0  0  0  0  0  0  0
    0.4400   -3.3674   -0.2479 H   0  0  0  0  0  0  0  0  0  0  0  0
  1  2  1  0
  2  3  1  0
  3  4  1  0
  4  5  2  0
  5  6  1  0
  6  7  1  0
  7  8  1  0
  6  9  2  0
  9 10  1  0
 10 11  1  0
  9 12  1  0
 12 13  2  0
 13 14  1  0
 13  4  1  0
  1 15  1  0
  1 16  1  0
  1 17  1  0
  2 18  1  0
  2 19  1  0
  3 20  1  0
  3 21  1  0
  5 22  1  0
  8 23  1  0
  8 24  1  0
  8 25  1  0
 11 26  1  0
 11 27  1  0
 11 28  1  0
 12 29  1  0
 14 30  1  0
M  END
$$$$
