@<TRIPOS>MOLECULE
*****
 30 30 0 0 0
SMALL
GASTEIGER

@<TRIPOS>ATOM
      1 C           4.4083   -0.0368    0.0421 C.3     1  UNL1       -0.0650
      2 C           2.9553   -0.1469    0.4084 C.3     1  UNL1       -0.0518
      3 C           2.1004   -0.0031   -0.8302 C.3     1  UNL1       -0.0244
      4 C           0.6629   -0.1003   -0.5538 C.ar    1  UNL1       -0.0023
      5 C          -0.1800    0.9998   -0.5228 C.ar    1  UNL1       -0.0097
      6 C          -1.5242    0.9159   -0.2651 C.ar    1  UNL1        0.1620
      7 O          -2.3665    2.0247   -0.2352 O.3     1  UNL1       -0.4914
      8 C          -1.8240    3.2894   -0.4783 C.3     1  UNL1        0.0790
      9 C          -2.0940   -0.3155   -0.0205 C.ar    1  UNL1        0.1650
     10 O          -3.4685   -0.4202    0.2447 O.3     1  UNL1       -0.4913
     11 C          -4.0627   -1.6656    0.4948 C.3     1  UNL1        0.0790
     12 C          -1.2916   -1.4360   -0.0417 C.ar    1  UNL1        0.0254
     13 C           0.0375   -1.3167   -0.3005 C.ar    1  UNL1        0.1237
     14 O           0.8294   -2.4498   -0.3184 O.3     1  UNL1       -0.5064
     15 H           4.9848   -0.6620    0.7557 H       1  UNL1        0.0230
     16 H           4.5564   -0.4872   -0.9622 H       1  UNL1        0.0230
     17 H           4.8055    0.9846    0.1275 H       1  UNL1        0.0230
     18 H           2.7892   -1.1809    0.8142 H       1  UNL1        0.0266
     19 H           2.6717    0.5926    1.1569 H       1  UNL1        0.0266
     20 H           2.4577   -0.6786   -1.6327 H       1  UNL1        0.0314
     21 H           2.2935    1.0385   -1.2136 H       1  UNL1        0.0314
     22 H           0.2568    1.9898   -0.7155 H       1  UNL1        0.0659
     23 H          -2.6327    4.0727   -0.4011 H       1  UNL1        0.0660
     24 H          -0.9796    3.5294    0.2005 H       1  UNL1        0.0660
     25 H          -1.4001    3.2782   -1.5097 H       1  UNL1        0.0660
     26 H          -5.1712   -1.5840    0.4023 H       1  UNL1        0.0660
     27 H          -3.7137   -2.4898   -0.1261 H       1  UNL1        0.0660
     28 H          -3.8395   -1.9393    1.5645 H       1  UNL1        0.0660
     29 H          -1.7013   -2.4356    0.1477 H       1  UNL1        0.0692
     30 H           0.4400   -3.3674   -0.2479 H       1  UNL1        0.2921
@<TRIPOS>BOND
     1     1     2    1
     2     2     3    1
     3     3     4    1
     4     4     5   ar
     5     5     6   ar
     6     6     7    1
     7     7     8    1
     8     6     9   ar
     9     9    10    1
    10    10    11    1
    11     9    12   ar
    12    12    13   ar
    13    13    14    1
    14    13     4   ar
    15     1    15    1
    16     1    16    1
    17     1    17    1
    18     2    18    1
    19     2    19    1
    20     3    20    1
    21     3    21    1
    22     5    22    1
    23     8    23    1
    24     8    24    1
    25     8    25    1
    26    11    26    1
    27    11    27    1
    28    11    28    1
    29    12    29    1
    30    14    30    1
