@<TRIPOS>MOLECULE
*****
 22 23 0 0 0
SMALL
GASTEIGER

@<TRIPOS>ATOM
      1 O          -0.7073    1.1877   -1.2135 O.2     1  UNL1       -0.2681
      2 C          -1.1682    0.3088   -0.4416 C.2     1  UNL1        0.2699
      3 N          -0.2752   -0.4601    0.3516 N.am    1  UNL1       -0.2789
      4 C           1.1283   -0.2525    0.2871 C.ar    1  UNL1        0.0522
      5 C           1.9279   -0.9409   -0.6047 C.ar    1  UNL1       -0.0377
      6 C           3.2900   -0.7280   -0.6551 C.ar    1  UNL1       -0.0415
      7 C           3.9091    0.1720    0.1732 C.ar    1  UNL1        0.0425
      8 CL          5.6387    0.4723    0.1409 Cl      1  UNL1       -0.0835
      9 C           3.1214    0.8673    1.0698 C.ar    1  UNL1       -0.0232
     10 C           1.7589    0.6525    1.1184 C.ar    1  UNL1        0.0635
     11 CL          0.7266    1.5269    2.2543 Cl      1  UNL1       -0.0816
     12 C          -2.6039    0.0669   -0.3482 C.ar    1  UNL1        0.1669
     13 C          -3.5877    0.7306   -1.0520 C.ar    1  UNL1        0.0815
     14 N          -4.8019    0.2282   -0.6974 N.ar    1  UNL1       -0.1625
     15 N          -4.5755   -0.7183    0.1992 N.ar    1  UNL1       -0.1960
     16 N          -3.2566   -0.8246    0.4175 N.ar    1  UNL1       -0.1502
     17 H          -0.6729   -1.1788    0.9809 H       1  UNL1        0.1552
     18 H           1.4364   -1.6539   -1.2606 H       1  UNL1        0.0637
     19 H           3.8888   -1.2714   -1.3524 H       1  UNL1        0.0633
     20 H           3.5891    1.5882    1.7391 H       1  UNL1        0.0647
     21 H          -3.4379    1.5226   -1.7714 H       1  UNL1        0.0872
     22 H          -5.3281   -1.2956    0.6651 H       1  UNL1        0.2125
@<TRIPOS>BOND
     1     1     2    2
     2     2     3   am
     3     3     4    1
     4     4     5   ar
     5     5     6   ar
     6     6     7   ar
     7     7     8    1
     8     7     9   ar
     9     9    10   ar
    10    10    11    1
    11     2    12    1
    12    12    13   ar
    13    13    14   ar
    14    14    15   ar
    15    15    16   ar
    16    10     4   ar
    17    16    12   ar
    18     3    17    1
    19     5    18    1
    20     6    19    1
    21     9    20    1
    22    13    21    1
    23    15    22    1
