
     RDKit          3D

 22 23  0  0  0  0  0  0  0  0999 V2000
   -0.7073    1.1877   -1.2135 O   0  0  0  0  0  0  0  0  0  0  0  0
   -1.1682    0.3088   -0.4416 C   0  0  0  0  0  0  0  0  0  0  0  0
   -0.2752   -0.4601    0.3516 N   0  0  0  0  0  0  0  0  0  0  0  0
    1.1283   -0.2525    0.2871 C   0  0  0  0  0  0  0  0  0  0  0  0
    1.9279   -0.9409   -0.6047 C   0  0  0  0  0  0  0  0  0  0  0  0
    3.2900   -0.7280   -0.6551 C   0  0  0  0  0  0  0  0  0  0  0  0
    3.9091    0.1720    0.1732 C   0  0  0  0  0  0  0  0  0  0  0  0
    5.6387    0.4723    0.1409 Cl  0  0  0  0  0  0  0  0  0  0  0  0
    3.1214    0.8673    1.0698 C   0  0  0  0  0  0  0  0  0  0  0  0
    1.7589    0.6525    1.1184 C   0  0  0  0  0  0  0  0  0  0  0  0
    0.7266    1.5269    2.2543 Cl  0  0  0  0  0  0  0  0  0  0  0  0
   -2.6039    0.0669   -0.3482 C   0  0  0  0  0  0  0  0  0  0  0  0
   -3.5877    0.7306   -1.0520 C   0  0  0  0  0  0  0  0  0  0  0  0
   -4.8019    0.2282   -0.6974 N   0  0  0  0  0  0  0  0  0  0  0  0
   -4.5755   -0.7183    0.1992 N   0  0  0  0  0  0  0  0  0  0  0  0
   -3.2566   -0.8246    0.4175 N   0  0  0  0  0  0  0  0  0  0  0  0
   -0.6729   -1.1788    0.9809 H   0  0  0  0  0  0  0  0  0  0  0  0
    1.4364   -1.6539   -1.2606 H   0  0  0  0  0  0  0  0  0  0  0  0
    3.8888   -1.2714   -1.3524 H   0  0  0  0  0  0  0  0  0  0  0  0
    3.5891    1.5882    1.7391 H   0  0  0  0  0  0  0  0  0  0  0  0
   -3.4379    1.5226   -1.7714 H   0  0  0  0  0  0  0  0  0  0  0  0
   -5.3281   -1.2956    0.6651 H   0  0  0  0  0  0  0  0  0  0  0  0
  1  2  2  0
  2  3  1  0
  3  4  1  0
  4  5  2  0
  5  6  1  0
  6  7  2  0
  7  8  1  0
  7  9  1  0
  9 10  2  0
 10 11  1  0
  2 12  1  0
 12 13  1  0
 13 14  2  0
 14 15  1  0
 15 16  1  0
 10  4  1  0
 16 12  2  0
  3 17  1  0
  5 18  1  0
  6 19  1  0
  9 20  1  0
 13 21  1  0
 15 22  1  0
M  END
$$$$
