
     RDKit          3D

 50 53  0  0  0  0  0  0  0  0999 V2000
    7.5832   -0.3852    1.2999 C   0  0  0  0  0  0  0  0  0  0  0  0
    6.2330   -0.8941    1.0307 N   0  0  0  0  0  0  0  0  0  0  0  0
    5.0925   -0.0285    0.8595 C   0  0  0  0  0  0  0  0  0  0  0  0
    5.2961    1.1996    0.9500 O   0  0  0  0  0  0  0  0  0  0  0  0
    3.8948   -0.9043    0.6024 C   0  0  0  0  0  0  0  0  0  0  0  0
    2.7333   -0.0948    0.4248 N   0  0  0  0  0  0  0  0  0  0  0  0
    1.5333   -0.8686    0.1713 C   0  0  0  0  0  0  0  0  0  0  0  0
    0.2771   -0.0840    0.4595 C   0  0  0  0  0  0  0  0  0  0  0  0
    0.4482    1.3947    0.2858 C   0  0  0  0  0  0  0  0  0  0  0  0
    1.6789    1.9507    0.9634 C   0  0  0  0  0  0  0  0  0  0  0  0
    2.4278    0.7585    1.5446 C   0  0  0  0  0  0  0  0  0  0  0  0
    0.3239    1.8456   -1.0699 N   0  0  0  0  0  0  0  0  0  0  0  0
   -0.8615    1.6709   -1.8305 C   0  0  0  0  0  0  0  0  0  0  0  0
   -1.9661    1.0747   -1.3539 N   0  0  0  0  0  0  0  0  0  0  0  0
   -3.0737    0.9233   -2.0984 C   0  0  0  0  0  0  0  0  0  0  0  0
   -3.1086    1.3846   -3.3978 C   0  0  0  0  0  0  0  0  0  0  0  0
   -1.9923    1.9939   -3.8979 C   0  0  0  0  0  0  0  0  0  0  0  0
   -0.9233    2.1101   -3.0975 N   0  0  0  0  0  0  0  0  0  0  0  0
   -4.2590    0.2721   -1.5546 C   0  0  0  0  0  0  0  0  0  0  0  0
   -5.4603    0.0494   -2.2022 C   0  0  0  0  0  0  0  0  0  0  0  0
   -6.3461   -0.5877   -1.3830 N   0  0  0  0  0  0  0  0  0  0  0  0
   -5.6970   -0.7644   -0.2184 C   0  0  0  0  0  0  0  0  0  0  0  0
   -6.1050   -1.3577    0.9813 C   0  0  0  0  0  0  0  0  0  0  0  0
   -5.2578   -1.4299    2.0667 C   0  0  0  0  0  0  0  0  0  0  0  0
   -3.9988   -0.8918    1.9099 C   0  0  0  0  0  0  0  0  0  0  0  0
   -3.6068   -0.3087    0.7214 C   0  0  0  0  0  0  0  0  0  0  0  0
   -4.4439   -0.2459   -0.3277 N   0  0  0  0  0  0  0  0  0  0  0  0
    7.9322   -0.6841    2.3060 H   0  0  0  0  0  0  0  0  0  0  0  0
    7.5838    0.7204    1.1943 H   0  0  0  0  0  0  0  0  0  0  0  0
    8.2747   -0.7462    0.5001 H   0  0  0  0  0  0  0  0  0  0  0  0
    6.3113   -1.9332    0.9999 H   0  0  0  0  0  0  0  0  0  0  0  0
    4.1122   -1.3828   -0.3783 H   0  0  0  0  0  0  0  0  0  0  0  0
    3.8019   -1.6820    1.3837 H   0  0  0  0  0  0  0  0  0  0  0  0
    1.5606   -1.2252   -0.8690 H   0  0  0  0  0  0  0  0  0  0  0  0
    1.5571   -1.7195    0.8846 H   0  0  0  0  0  0  0  0  0  0  0  0
   -0.4705   -0.4296   -0.2840 H   0  0  0  0  0  0  0  0  0  0  0  0
   -0.1581   -0.3201    1.4617 H   0  0  0  0  0  0  0  0  0  0  0  0
   -0.4158    1.8715    0.8379 H   0  0  0  0  0  0  0  0  0  0  0  0
    1.4724    2.7149    1.7274 H   0  0  0  0  0  0  0  0  0  0  0  0
    2.3278    2.3624    0.1367 H   0  0  0  0  0  0  0  0  0  0  0  0
    3.2971    1.0406    2.1526 H   0  0  0  0  0  0  0  0  0  0  0  0
    1.7011    0.2521    2.2415 H   0  0  0  0  0  0  0  0  0  0  0  0
    1.1377    2.3096   -1.4833 H   0  0  0  0  0  0  0  0  0  0  0  0
   -4.0143    1.2508   -3.9797 H   0  0  0  0  0  0  0  0  0  0  0  0
   -1.9703    2.3725   -4.9116 H   0  0  0  0  0  0  0  0  0  0  0  0
   -5.6926    0.3380   -3.2371 H   0  0  0  0  0  0  0  0  0  0  0  0
   -7.1169   -1.7584    1.0203 H   0  0  0  0  0  0  0  0  0  0  0  0
   -5.6768   -1.9085    2.9404 H   0  0  0  0  0  0  0  0  0  0  0  0
   -3.3702   -0.9775    2.8037 H   0  0  0  0  0  0  0  0  0  0  0  0
   -2.6064    0.0767    0.7131 H   0  0  0  0  0  0  0  0  0  0  0  0
  1  2  1  0
  2  3  1  0
  3  4  2  0
  3  5  1  0
  5  6  1  0
  6  7  1  0
  7  8  1  0
  8  9  1  0
  9 10  1  0
 10 11  1  0
  9 12  1  0
 12 13  1  0
 13 14  2  0
 14 15  1  0
 15 16  2  0
 16 17  1  0
 17 18  2  0
 15 19  1  0
 19 20  2  0
 20 21  1  0
 21 22  2  0
 22 23  1  0
 23 24  2  0
 24 25  1  0
 25 26  2  0
 26 27  1  0
 11  6  1  0
 18 13  1  0
 27 19  1  0
 27 22  1  0
  1 28  1  0
  1 29  1  0
  1 30  1  0
  2 31  1  0
  5 32  1  0
  5 33  1  0
  7 34  1  0
  7 35  1  0
  8 36  1  0
  8 37  1  0
  9 38  1  0
 10 39  1  0
 10 40  1  0
 11 41  1  0
 11 42  1  0
 12 43  1  0
 16 44  1  0
 17 45  1  0
 20 46  1  0
 23 47  1  0
 24 48  1  0
 25 49  1  0
 26 50  1  0
M  END
$$$$
