@<TRIPOS>MOLECULE
*****
 50 53 0 0 0
SMALL
GASTEIGER

@<TRIPOS>ATOM
      1 N          -7.1214    3.5711    0.1904 N.am    1  UNL1       -0.3253
      2 C          -7.5254    2.4941   -0.6181 C.2     1  UNL1        0.2431
      3 O          -8.4355    2.5835   -1.4618 O.2     1  UNL1       -0.2704
      4 C          -6.8506    1.1908   -0.4729 C.ar    1  UNL1        0.0580
      5 C          -7.2419    0.1307   -1.2623 C.ar    1  UNL1        0.0399
      6 N          -6.6608   -1.0751   -1.1696 N.ar    1  UNL1       -0.2589
      7 C          -5.6654   -1.2836   -0.2897 C.ar    1  UNL1        0.0692
      8 C          -5.2331   -0.2558    0.5263 C.ar    1  UNL1        0.1397
      9 O          -4.2462   -0.3781    1.4291 O.3     1  UNL1       -0.4858
     10 C          -3.3690   -1.2821    1.9094 C.3     1  UNL1        0.1148
     11 C          -2.3730   -1.8564    0.9737 C.ar    1  UNL1       -0.0087
     12 C          -2.5746   -3.0590    0.3569 C.ar    1  UNL1       -0.0552
     13 C          -1.6095   -3.5458   -0.5179 C.ar    1  UNL1       -0.0596
     14 C          -0.4447   -2.8064   -0.7598 C.ar    1  UNL1       -0.0404
     15 C          -0.2422   -1.5939   -0.1370 C.ar    1  UNL1        0.0340
     16 N           0.9606   -0.8874   -0.4217 N.am    1  UNL1       -0.2815
     17 C           2.1238   -1.1024    0.3664 C.2     1  UNL1        0.2483
     18 O           1.9946   -1.9537    1.3150 O.2     1  UNL1       -0.2699
     19 C           3.3950   -0.4471    0.1736 C.ar    1  UNL1        0.0371
     20 C           4.4434   -0.7605    1.0254 C.ar    1  UNL1       -0.0490
     21 C           5.6594   -0.1557    0.8671 C.ar    1  UNL1       -0.0528
     22 C           5.8117    0.7557   -0.1419 C.ar    1  UNL1       -0.0113
     23 C           7.0996    1.4352   -0.3556 C.ar    1  UNL1        0.0193
     24 C           8.2614    1.3314    0.3001 C.ar    1  UNL1       -0.0469
     25 C           9.3257    2.0530   -0.0660 C.ar    1  UNL1       -0.0541
     26 C           9.1560    2.9157   -1.1651 C.ar    1  UNL1       -0.0237
     27 S           7.4361    2.6198   -1.6037 S.2     1  UNL1       -0.0967
     28 C           4.7853    1.0800   -0.9966 C.ar    1  UNL1       -0.0528
     29 C           3.5552    0.4700   -0.8385 C.ar    1  UNL1       -0.0490
     30 C          -1.2134   -1.1337    0.7248 C.ar    1  UNL1       -0.0341
     31 C          -5.8452    1.0147    0.4290 C.ar    1  UNL1       -0.0048
     32 H          -6.1353    3.8885    0.2089 H       1  UNL1        0.1453
     33 H          -7.8008    4.0784    0.7917 H       1  UNL1        0.1453
     34 H          -8.0388    0.2286   -1.9937 H       1  UNL1        0.0837
     35 H          -5.2134   -2.2672   -0.2237 H       1  UNL1        0.0867
     36 H          -3.8580   -2.1339    2.4690 H       1  UNL1        0.0748
     37 H          -2.7820   -0.7749    2.7505 H       1  UNL1        0.0748
     38 H          -3.4564   -3.6629    0.5209 H       1  UNL1        0.0621
     39 H          -1.7808   -4.4831   -0.9905 H       1  UNL1        0.0618
     40 H           0.2685   -3.2403   -1.4517 H       1  UNL1        0.0636
     41 H           0.9974   -0.2179   -1.1975 H       1  UNL1        0.1551
     42 H           4.3124   -1.4934    1.8328 H       1  UNL1        0.0625
     43 H           6.4999   -0.3786    1.5164 H       1  UNL1        0.0624
     44 H           8.3149    0.6131    1.1750 H       1  UNL1        0.0629
     45 H          10.3198    2.0010    0.4514 H       1  UNL1        0.0623
     46 H           9.8732    3.6138   -1.6625 H       1  UNL1        0.0693
     47 H           4.9219    1.7977   -1.7834 H       1  UNL1        0.0624
     48 H           2.7421    0.7168   -1.5036 H       1  UNL1        0.0625
     49 H          -1.0267   -0.1795    1.1986 H       1  UNL1        0.0640
     50 H          -5.5139    1.8247    1.0634 H       1  UNL1        0.0663
@<TRIPOS>BOND
     1     1     2   am
     2     2     3    2
     3     2     4    1
     4     4     5   ar
     5     5     6   ar
     6     6     7   ar
     7     7     8   ar
     8     8     9    1
     9     9    10    1
    10    10    11    1
    11    11    12   ar
    12    12    13   ar
    13    13    14   ar
    14    14    15   ar
    15    15    16    1
    16    16    17   am
    17    17    18    2
    18    17    19    1
    19    19    20   ar
    20    20    21   ar
    21    21    22   ar
    22    22    23    1
    23    23    24   ar
    24    24    25   ar
    25    25    26   ar
    26    26    27   ar
    27    22    28   ar
    28    28    29   ar
    29    15    30   ar
    30     8    31   ar
    31    31     4   ar
    32    30    11   ar
    33    29    19   ar
    34    27    23   ar
    35     1    32    1
    36     1    33    1
    37     5    34    1
    38     7    35    1
    39    10    36    1
    40    10    37    1
    41    12    38    1
    42    13    39    1
    43    14    40    1
    44    16    41    1
    45    20    42    1
    46    21    43    1
    47    24    44    1
    48    25    45    1
    49    26    46    1
    50    28    47    1
    51    29    48    1
    52    30    49    1
    53    31    50    1
