@<TRIPOS>MOLECULE
*****
 44 47 0 0 0
SMALL
GASTEIGER

@<TRIPOS>ATOM
      1 F          -4.7244    4.1086   -1.4525 F       1  UNL1       -0.2055
      2 C          -4.1390    2.9775   -0.9563 C.ar    1  UNL1        0.1234
      3 C          -4.2614    1.8215   -1.6976 C.ar    1  UNL1       -0.0262
      4 C          -3.6679    0.6855   -1.1894 C.ar    1  UNL1       -0.0556
      5 C          -2.9817    0.6999    0.0061 C.ar    1  UNL1       -0.0436
      6 C          -2.3776   -0.5749    0.4678 C.3     1  UNL1       -0.0076
      7 C          -2.9360   -0.9243    1.8307 C.3     1  UNL1       -0.0332
      8 C          -2.0539   -2.0300    2.3879 C.3     1  UNL1       -0.0035
      9 N          -1.3492   -2.7401    1.3262 N.3     1  UNL1       -0.3156
     10 C          -0.3494   -1.8649    0.6903 C.3     1  UNL1        0.0024
     11 C          -0.8694   -0.4572    0.6432 C.3     1  UNL1        0.0125
     12 C          -0.2550    0.3045   -0.5138 C.3     1  UNL1        0.0941
     13 O           1.0326    0.5063   -0.5095 O.3     1  UNL1       -0.4915
     14 C           2.2961    0.1100   -0.5343 C.ar    1  UNL1        0.1242
     15 C           2.7340   -1.1893   -0.6233 C.ar    1  UNL1       -0.0162
     16 C           4.0731   -1.5359   -0.6410 C.ar    1  UNL1       -0.0127
     17 C           5.0508   -0.5598   -0.5685 C.ar    1  UNL1        0.1665
     18 C           4.6603    0.7474   -0.4795 C.ar    1  UNL1        0.1697
     19 C           3.3413    1.0644   -0.4634 C.ar    1  UNL1        0.0256
     20 O           5.8589    1.4836   -0.4231 O.3     1  UNL1       -0.4525
     21 C           6.8946    0.5842   -0.0640 C.3     1  UNL1        0.2332
     22 O           6.4209   -0.6596   -0.5687 O.3     1  UNL1       -0.4526
     23 C          -2.8806    1.8700    0.7170 C.ar    1  UNL1       -0.0556
     24 C          -3.4608    3.0225    0.2394 C.ar    1  UNL1       -0.0262
     25 H          -4.8024    1.7952   -2.6466 H       1  UNL1        0.0646
     26 H          -3.7647   -0.2384   -1.7803 H       1  UNL1        0.0621
     27 H          -2.5656   -1.3935   -0.2350 H       1  UNL1        0.0353
     28 H          -2.8476   -0.0497    2.5100 H       1  UNL1        0.0283
     29 H          -3.9917   -1.1964    1.7833 H       1  UNL1        0.0283
     30 H          -1.3862   -1.6858    3.1896 H       1  UNL1        0.0424
     31 H          -2.7489   -2.7766    2.8315 H       1  UNL1        0.0424
     32 H          -0.8056   -3.4875    1.7900 H       1  UNL1        0.1219
     33 H           0.6127   -1.9484    1.2144 H       1  UNL1        0.0428
     34 H          -0.3118   -2.2346   -0.3685 H       1  UNL1        0.0428
     35 H          -0.6393    0.0388    1.6053 H       1  UNL1        0.0352
     36 H          -0.8086    1.3055   -0.6232 H       1  UNL1        0.0700
     37 H          -0.5883   -0.2053   -1.4832 H       1  UNL1        0.0700
     38 H           2.0402   -1.9967   -0.6994 H       1  UNL1        0.0655
     39 H           4.3713   -2.5790   -0.7120 H       1  UNL1        0.0656
     40 H           3.0270    2.0931   -0.3935 H       1  UNL1        0.0692
     41 H           7.0245    0.4842    1.0240 H       1  UNL1        0.1166
     42 H           7.8423    0.8023   -0.5906 H       1  UNL1        0.1166
     43 H          -2.3406    1.8677    1.6517 H       1  UNL1        0.0621
     44 H          -3.3729    3.9550    0.8183 H       1  UNL1        0.0646
@<TRIPOS>BOND
     1     1     2    1
     2     2     3   ar
     3     3     4   ar
     4     4     5   ar
     5     5     6    1
     6     6     7    1
     7     7     8    1
     8     8     9    1
     9     9    10    1
    10    10    11    1
    11    11    12    1
    12    12    13    1
    13    13    14    1
    14    14    15   ar
    15    15    16   ar
    16    16    17   ar
    17    17    18   ar
    18    18    19   ar
    19    18    20    1
    20    20    21    1
    21    21    22    1
    22     5    23   ar
    23    23    24   ar
    24    24     2   ar
    25    11     6    1
    26    19    14   ar
    27    22    17    1
    28     3    25    1
    29     4    26    1
    30     6    27    1
    31     7    28    1
    32     7    29    1
    33     8    30    1
    34     8    31    1
    35     9    32    1
    36    10    33    1
    37    10    34    1
    38    11    35    1
    39    12    36    1
    40    12    37    1
    41    15    38    1
    42    16    39    1
    43    19    40    1
    44    21    41    1
    45    21    42    1
    46    23    43    1
    47    24    44    1
