@<TRIPOS>MOLECULE
*****
 52 55 0 0 0
SMALL
GASTEIGER

@<TRIPOS>ATOM
      1 N          -4.1633   -1.5762    1.3982 N.pl3   1  UNL1       -0.3400
      2 C          -5.5801   -1.6064    1.2127 C.ar    1  UNL1        0.1675
      3 N          -6.3957   -2.6220    1.4923 N.ar    1  UNL1       -0.0623
      4 O          -7.6066   -2.2628    1.1792 O.2     1  UNL1       -0.3528
      5 C          -7.6461   -1.0511    0.7003 C.ar    1  UNL1        0.1699
      6 C          -8.6506   -0.2125    0.2303 C.ar    1  UNL1       -0.0160
      7 C          -8.3482    1.0471   -0.2194 C.ar    1  UNL1       -0.0574
      8 C          -7.0512    1.4925   -0.2092 C.ar    1  UNL1       -0.0487
      9 C          -6.0195    0.6760    0.2574 C.ar    1  UNL1        0.0511
     10 C          -4.6704    1.1804    0.2821 C.2     1  UNL1        0.2491
     11 O          -4.2867    1.9069    1.2850 O.2     1  UNL1       -0.2698
     12 N          -3.7294    0.9275   -0.7517 N.am    1  UNL1       -0.2815
     13 C          -2.4196    1.4985   -0.6232 C.ar    1  UNL1        0.0340
     14 C          -2.2162    2.8213   -1.0294 C.ar    1  UNL1       -0.0405
     15 C          -0.9781    3.3970   -0.8822 C.ar    1  UNL1       -0.0597
     16 C           0.0739    2.6978   -0.3419 C.ar    1  UNL1       -0.0570
     17 C          -0.1829    1.3885    0.0418 C.ar    1  UNL1       -0.0285
     18 C           0.9693    0.6630    0.6824 C.3     1  UNL1        0.0384
     19 N           1.8872    0.3140   -0.3829 N.am    1  UNL1       -0.2950
     20 C           3.2118   -0.1309    0.0369 C.2     1  UNL1        0.3041
     21 O           3.4349   -0.2120    1.2683 O.2     1  UNL1       -0.2525
     22 N           4.1887   -0.4466   -0.9044 N.am    1  UNL1       -0.2695
     23 C           5.4833   -0.8970   -0.5413 C.ar    1  UNL1        0.0348
     24 C           6.5333   -0.7599   -1.4788 C.ar    1  UNL1       -0.0399
     25 C           7.8012   -1.1956   -1.1816 C.ar    1  UNL1       -0.0484
     26 C           8.1291   -1.7909    0.0402 C.ar    1  UNL1        0.0549
     27 C           9.5325   -2.2064    0.2830 C.3     1  UNL1        0.4174
     28 F          10.3212   -1.1110    0.6016 F       1  UNL1       -0.1659
     29 F          10.0316   -2.8830   -0.8066 F       1  UNL1       -0.1659
     30 F           9.5391   -3.0920    1.3396 F       1  UNL1       -0.1659
     31 C           7.1078   -1.9273    0.9521 C.ar    1  UNL1       -0.0484
     32 C           5.8282   -1.4844    0.6463 C.ar    1  UNL1       -0.0399
     33 C          -1.4028    0.7715   -0.0860 C.ar    1  UNL1       -0.0358
     34 C          -6.3430   -0.5708    0.6990 C.ar    1  UNL1        0.0746
     35 H          -3.5239   -1.8903    0.6221 H       1  UNL1        0.1438
     36 H          -3.8014   -1.2319    2.3332 H       1  UNL1        0.1438
     37 H          -9.7004   -0.5458    0.2177 H       1  UNL1        0.0655
     38 H          -9.1533    1.7039   -0.5898 H       1  UNL1        0.0619
     39 H          -6.7861    2.4893   -0.5573 H       1  UNL1        0.0625
     40 H          -3.9400    0.3651   -1.5807 H       1  UNL1        0.1551
     41 H          -3.0647    3.3685   -1.4599 H       1  UNL1        0.0636
     42 H          -0.8231    4.4359   -1.2054 H       1  UNL1        0.0618
     43 H           1.0607    3.1340   -0.2202 H       1  UNL1        0.0621
     44 H           0.6021   -0.2786    1.1793 H       1  UNL1        0.0512
     45 H           1.4256    1.3431    1.4439 H       1  UNL1        0.0512
     46 H           1.6494    0.3580   -1.3755 H       1  UNL1        0.1506
     47 H           3.9574   -0.3505   -1.9413 H       1  UNL1        0.1564
     48 H           6.2849   -0.2940   -2.4296 H       1  UNL1        0.0636
     49 H           8.5663   -1.0519   -1.9434 H       1  UNL1        0.0624
     50 H           7.3393   -2.3901    1.9025 H       1  UNL1        0.0624
     51 H           5.0615   -1.6404    1.4070 H       1  UNL1        0.0636
     52 H          -1.5371   -0.2677    0.2368 H       1  UNL1        0.0639
@<TRIPOS>BOND
     1     1     2    1
     2     2     3   ar
     3     3     4   ar
     4     4     5   ar
     5     5     6   ar
     6     6     7   ar
     7     7     8   ar
     8     8     9   ar
     9     9    10    1
    10    10    11    2
    11    10    12   am
    12    12    13    1
    13    13    14   ar
    14    14    15   ar
    15    15    16   ar
    16    16    17   ar
    17    17    18    1
    18    18    19    1
    19    19    20   am
    20    20    21    2
    21    20    22   am
    22    22    23    1
    23    23    24   ar
    24    24    25   ar
    25    25    26   ar
    26    26    27    1
    27    27    28    1
    28    27    29    1
    29    27    30    1
    30    26    31   ar
    31    31    32   ar
    32    17    33   ar
    33     9    34   ar
    34    34     2   ar
    35    34     5   ar
    36    33    13   ar
    37    32    23   ar
    38     1    35    1
    39     1    36    1
    40     6    37    1
    41     7    38    1
    42     8    39    1
    43    12    40    1
    44    14    41    1
    45    15    42    1
    46    16    43    1
    47    18    44    1
    48    18    45    1
    49    19    46    1
    50    22    47    1
    51    24    48    1
    52    25    49    1
    53    31    50    1
    54    32    51    1
    55    33    52    1
