@<TRIPOS>MOLECULE
*****
 49 51 0 0 0
SMALL
GASTEIGER

@<TRIPOS>ATOM
      1 O          -1.0285    0.4568    1.7830 O.2     1  UNL1       -0.2736
      2 C          -2.0381    0.1869    1.0956 C.2     1  UNL1        0.2361
      3 C          -1.9640   -1.0420    0.2650 C.3     1  UNL1        0.1024
      4 C          -2.8699   -2.1454    0.7621 C.3     1  UNL1       -0.0243
      5 C          -1.9046   -2.9246    1.6733 C.3     1  UNL1       -0.0350
      6 C          -0.7177   -3.0145    0.6979 C.3     1  UNL1        0.0155
      7 N          -0.6383   -1.6183    0.2902 N.am    1  UNL1       -0.2899
      8 C           0.5623   -0.9442   -0.0261 C.2     1  UNL1        0.2162
      9 O           0.4839    0.2733   -0.3619 O.2     1  UNL1       -0.2756
     10 C           1.8310   -1.7042    0.0575 C.3     1  UNL1        0.0245
     11 C           2.9702   -0.8748   -0.4487 C.3     1  UNL1       -0.0408
     12 C           2.7631   -0.5285   -1.8857 C.3     1  UNL1       -0.0272
     13 C           3.8844    0.2934   -2.4303 C.ar    1  UNL1       -0.0473
     14 C           4.9432   -0.3694   -2.9914 C.ar    1  UNL1       -0.0586
     15 C           5.9939    0.3973   -3.4950 C.ar    1  UNL1       -0.0615
     16 C           5.9842    1.7756   -3.4387 C.ar    1  UNL1       -0.0617
     17 C           4.9085    2.4469   -2.8689 C.ar    1  UNL1       -0.0615
     18 C           3.8732    1.6655   -2.3737 C.ar    1  UNL1       -0.0586
     19 N          -3.1684    1.0383    1.1378 N.am    1  UNL1       -0.2999
     20 C          -4.4277    0.9200    0.4328 C.3     1  UNL1        0.0148
     21 C          -5.2145    2.1859    0.7876 C.3     1  UNL1       -0.0357
     22 C          -4.0969    3.1503    1.1190 C.3     1  UNL1       -0.0357
     23 C          -3.2022    2.2528    1.9694 C.3     1  UNL1        0.0148
     24 H          -2.2508   -0.8403   -0.7896 H       1  UNL1        0.0597
     25 H          -3.2429   -2.7863   -0.0390 H       1  UNL1        0.0288
     26 H          -3.6110   -1.7093    1.4334 H       1  UNL1        0.0288
     27 H          -2.3365   -3.9166    1.8461 H       1  UNL1        0.0281
     28 H          -1.6485   -2.3509    2.5603 H       1  UNL1        0.0281
     29 H           0.1621   -3.2895    1.3120 H       1  UNL1        0.0465
     30 H          -0.9409   -3.6886   -0.1303 H       1  UNL1        0.0465
     31 H           1.7546   -2.6864   -0.4602 H       1  UNL1        0.0358
     32 H           2.0566   -1.9500    1.1392 H       1  UNL1        0.0358
     33 H           3.9338   -1.4419   -0.3669 H       1  UNL1        0.0273
     34 H           3.0040    0.0353    0.2101 H       1  UNL1        0.0273
     35 H           1.8367   -0.0170   -2.1361 H       1  UNL1        0.0313
     36 H           2.7310   -1.5038   -2.4455 H       1  UNL1        0.0313
     37 H           4.9900   -1.4562   -3.0556 H       1  UNL1        0.0620
     38 H           6.8546   -0.0686   -3.9475 H       1  UNL1        0.0618
     39 H           6.7913    2.3918   -3.8251 H       1  UNL1        0.0618
     40 H           4.8526    3.5235   -2.7994 H       1  UNL1        0.0618
     41 H           3.0310    2.1553   -1.9303 H       1  UNL1        0.0620
     42 H          -5.0034    0.0233    0.6629 H       1  UNL1        0.0464
     43 H          -4.2720    0.9891   -0.6845 H       1  UNL1        0.0464
     44 H          -5.8491    2.5218   -0.0378 H       1  UNL1        0.0281
     45 H          -5.7934    1.9465    1.7098 H       1  UNL1        0.0281
     46 H          -3.5734    3.4230    0.1847 H       1  UNL1        0.0281
     47 H          -4.4664    4.0396    1.6736 H       1  UNL1        0.0281
     48 H          -2.2054    2.6931    2.0961 H       1  UNL1        0.0464
     49 H          -3.7314    2.0859    2.9261 H       1  UNL1        0.0464
@<TRIPOS>BOND
     1     1     2    2
     2     2     3    1
     3     3     4    1
     4     4     5    1
     5     5     6    1
     6     6     7    1
     7     7     8   am
     8     8     9    2
     9     8    10    1
    10    10    11    1
    11    11    12    1
    12    12    13    1
    13    13    14   ar
    14    14    15   ar
    15    15    16   ar
    16    16    17   ar
    17    17    18   ar
    18     2    19   am
    19    19    20    1
    20    20    21    1
    21    21    22    1
    22    22    23    1
    23     7     3    1
    24    18    13   ar
    25    23    19    1
    26     3    24    1
    27     4    25    1
    28     4    26    1
    29     5    27    1
    30     5    28    1
    31     6    29    1
    32     6    30    1
    33    10    31    1
    34    10    32    1
    35    11    33    1
    36    11    34    1
    37    12    35    1
    38    12    36    1
    39    14    37    1
    40    15    38    1
    41    16    39    1
    42    17    40    1
    43    18    41    1
    44    20    42    1
    45    20    43    1
    46    21    44    1
    47    21    45    1
    48    22    46    1
    49    22    47    1
    50    23    48    1
    51    23    49    1
