
     RDKit          3D

 49 51  0  0  0  0  0  0  0  0999 V2000
   -1.0285    0.4568    1.7830 O   0  0  0  0  0  0  0  0  0  0  0  0
   -2.0381    0.1869    1.0956 C   0  0  0  0  0  0  0  0  0  0  0  0
   -1.9640   -1.0420    0.2650 C   0  0  2  0  0  0  0  0  0  0  0  0
   -2.8699   -2.1454    0.7621 C   0  0  0  0  0  0  0  0  0  0  0  0
   -1.9046   -2.9246    1.6733 C   0  0  0  0  0  0  0  0  0  0  0  0
   -0.7177   -3.0145    0.6979 C   0  0  0  0  0  0  0  0  0  0  0  0
   -0.6383   -1.6183    0.2902 N   0  0  0  0  0  0  0  0  0  0  0  0
    0.5623   -0.9442   -0.0261 C   0  0  0  0  0  0  0  0  0  0  0  0
    0.4839    0.2733   -0.3619 O   0  0  0  0  0  0  0  0  0  0  0  0
    1.8310   -1.7042    0.0575 C   0  0  0  0  0  0  0  0  0  0  0  0
    2.9702   -0.8748   -0.4487 C   0  0  0  0  0  0  0  0  0  0  0  0
    2.7631   -0.5285   -1.8857 C   0  0  0  0  0  0  0  0  0  0  0  0
    3.8844    0.2934   -2.4303 C   0  0  0  0  0  0  0  0  0  0  0  0
    4.9432   -0.3694   -2.9914 C   0  0  0  0  0  0  0  0  0  0  0  0
    5.9939    0.3973   -3.4950 C   0  0  0  0  0  0  0  0  0  0  0  0
    5.9842    1.7756   -3.4387 C   0  0  0  0  0  0  0  0  0  0  0  0
    4.9085    2.4469   -2.8689 C   0  0  0  0  0  0  0  0  0  0  0  0
    3.8732    1.6655   -2.3737 C   0  0  0  0  0  0  0  0  0  0  0  0
   -3.1684    1.0383    1.1378 N   0  0  0  0  0  0  0  0  0  0  0  0
   -4.4277    0.9200    0.4328 C   0  0  0  0  0  0  0  0  0  0  0  0
   -5.2145    2.1859    0.7876 C   0  0  0  0  0  0  0  0  0  0  0  0
   -4.0969    3.1503    1.1190 C   0  0  0  0  0  0  0  0  0  0  0  0
   -3.2022    2.2528    1.9694 C   0  0  0  0  0  0  0  0  0  0  0  0
   -2.2508   -0.8403   -0.7896 H   0  0  0  0  0  0  0  0  0  0  0  0
   -3.2429   -2.7863   -0.0390 H   0  0  0  0  0  0  0  0  0  0  0  0
   -3.6110   -1.7093    1.4334 H   0  0  0  0  0  0  0  0  0  0  0  0
   -2.3365   -3.9166    1.8461 H   0  0  0  0  0  0  0  0  0  0  0  0
   -1.6485   -2.3509    2.5603 H   0  0  0  0  0  0  0  0  0  0  0  0
    0.1621   -3.2895    1.3120 H   0  0  0  0  0  0  0  0  0  0  0  0
   -0.9409   -3.6886   -0.1303 H   0  0  0  0  0  0  0  0  0  0  0  0
    1.7546   -2.6864   -0.4602 H   0  0  0  0  0  0  0  0  0  0  0  0
    2.0566   -1.9500    1.1392 H   0  0  0  0  0  0  0  0  0  0  0  0
    3.9338   -1.4419   -0.3669 H   0  0  0  0  0  0  0  0  0  0  0  0
    3.0040    0.0353    0.2101 H   0  0  0  0  0  0  0  0  0  0  0  0
    1.8367   -0.0170   -2.1361 H   0  0  0  0  0  0  0  0  0  0  0  0
    2.7310   -1.5038   -2.4455 H   0  0  0  0  0  0  0  0  0  0  0  0
    4.9900   -1.4562   -3.0556 H   0  0  0  0  0  0  0  0  0  0  0  0
    6.8546   -0.0686   -3.9475 H   0  0  0  0  0  0  0  0  0  0  0  0
    6.7913    2.3918   -3.8251 H   0  0  0  0  0  0  0  0  0  0  0  0
    4.8526    3.5235   -2.7994 H   0  0  0  0  0  0  0  0  0  0  0  0
    3.0310    2.1553   -1.9303 H   0  0  0  0  0  0  0  0  0  0  0  0
   -5.0034    0.0233    0.6629 H   0  0  0  0  0  0  0  0  0  0  0  0
   -4.2720    0.9891   -0.6845 H   0  0  0  0  0  0  0  0  0  0  0  0
   -5.8491    2.5218   -0.0378 H   0  0  0  0  0  0  0  0  0  0  0  0
   -5.7934    1.9465    1.7098 H   0  0  0  0  0  0  0  0  0  0  0  0
   -3.5734    3.4230    0.1847 H   0  0  0  0  0  0  0  0  0  0  0  0
   -4.4664    4.0396    1.6736 H   0  0  0  0  0  0  0  0  0  0  0  0
   -2.2054    2.6931    2.0961 H   0  0  0  0  0  0  0  0  0  0  0  0
   -3.7314    2.0859    2.9261 H   0  0  0  0  0  0  0  0  0  0  0  0
  1  2  2  0
  2  3  1  0
  3  4  1  0
  4  5  1  0
  5  6  1  0
  6  7  1  0
  7  8  1  0
  8  9  2  0
  8 10  1  0
 10 11  1  0
 11 12  1  0
 12 13  1  0
 13 14  2  0
 14 15  1  0
 15 16  2  0
 16 17  1  0
 17 18  2  0
  2 19  1  0
 19 20  1  0
 20 21  1  0
 21 22  1  0
 22 23  1  0
  7  3  1  0
 18 13  1  0
 23 19  1  0
  3 24  1  6
  4 25  1  0
  4 26  1  0
  5 27  1  0
  5 28  1  0
  6 29  1  0
  6 30  1  0
 10 31  1  0
 10 32  1  0
 11 33  1  0
 11 34  1  0
 12 35  1  0
 12 36  1  0
 14 37  1  0
 15 38  1  0
 16 39  1  0
 17 40  1  0
 18 41  1  0
 20 42  1  0
 20 43  1  0
 21 44  1  0
 21 45  1  0
 22 46  1  0
 22 47  1  0
 23 48  1  0
 23 49  1  0
M  END
$$$$
