@<TRIPOS>MOLECULE
*****
 51 54 0 0 0
SMALL
GASTEIGER

@<TRIPOS>ATOM
      1 N          -0.3525   -1.2323    4.5461 N.1     1  UNL1       -0.1907
      2 C          -0.1518   -1.2328    3.3860 C.1     1  UNL1        0.1029
      3 C           0.1036   -1.2562    1.9716 C.ar    1  UNL1        0.0946
      4 C          -0.8126   -0.7224    1.1000 C.ar    1  UNL1       -0.0215
      5 C          -2.0791   -0.1211    1.4913 C.3     1  UNL1       -0.0122
      6 C          -2.0103    1.3540    1.8396 C.3     1  UNL1       -0.0335
      7 C          -3.3081    1.7553    2.5164 C.3     1  UNL1       -0.0036
      8 N          -4.4374    0.9868    2.0474 N.3     1  UNL1       -0.3159
      9 C          -4.3505   -0.4222    2.2545 C.3     1  UNL1       -0.0036
     10 C          -2.8786   -0.8038    2.5419 C.3     1  UNL1       -0.0335
     11 C          -0.4478   -0.7948   -0.2575 C.ar    1  UNL1       -0.0307
     12 C           0.7250   -1.3518   -0.6832 C.ar    1  UNL1        0.0804
     13 C           1.0273   -1.3884   -2.0905 C.ar    1  UNL1        0.0834
     14 C           0.6188   -2.4826   -2.8265 C.ar    1  UNL1        0.1295
     15 O          -0.0629   -3.5074   -2.2030 O.3     1  UNL1       -0.5060
     16 C           0.8953   -2.5495   -4.1954 C.ar    1  UNL1       -0.0193
     17 C           1.5776   -1.5127   -4.7945 C.ar    1  UNL1       -0.0548
     18 C           1.9700   -0.4402   -4.0378 C.ar    1  UNL1       -0.0190
     19 C           1.7039   -0.3561   -2.6750 C.ar    1  UNL1        0.1332
     20 O           2.0892    0.7163   -1.8872 O.3     1  UNL1       -0.4909
     21 C           2.7828    1.7972   -2.4332 C.3     1  UNL1        0.0924
     22 C           3.0762    2.8195   -1.3555 C.3     1  UNL1       -0.0068
     23 C           1.9316    3.4503   -0.6203 C.3     1  UNL1       -0.0468
     24 C           2.8323    2.4434    0.0800 C.3     1  UNL1       -0.0468
     25 N           1.5840   -1.8583    0.2022 N.ar    1  UNL1       -0.2309
     26 C           1.2931   -1.8199    1.5219 C.ar    1  UNL1        0.1346
     27 N           2.1834   -2.3489    2.4894 N.pl3   1  UNL1       -0.3421
     28 H          -2.7319   -0.1394    0.5563 H       1  UNL1        0.0350
     29 H          -1.1866    1.5367    2.5270 H       1  UNL1        0.0283
     30 H          -1.8680    1.9818    0.9380 H       1  UNL1        0.0283
     31 H          -3.1644    1.6762    3.5966 H       1  UNL1        0.0424
     32 H          -3.5005    2.8122    2.2432 H       1  UNL1        0.0424
     33 H          -4.8067    1.2928    1.1443 H       1  UNL1        0.1219
     34 H          -4.6988   -1.0398    1.4072 H       1  UNL1        0.0424
     35 H          -4.9688   -0.6922    3.1329 H       1  UNL1        0.0424
     36 H          -2.7190   -0.3923    3.5636 H       1  UNL1        0.0283
     37 H          -2.7658   -1.8815    2.5823 H       1  UNL1        0.0283
     38 H          -1.1769   -0.3685   -0.9486 H       1  UNL1        0.0642
     39 H          -0.6280   -3.3868   -1.3743 H       1  UNL1        0.2922
     40 H           0.5837   -3.3982   -4.7880 H       1  UNL1        0.0654
     41 H           1.7966   -1.5615   -5.8706 H       1  UNL1        0.0620
     42 H           2.5057    0.3715   -4.5144 H       1  UNL1        0.0654
     43 H           3.7252    1.4783   -2.9139 H       1  UNL1        0.0699
     44 H           2.1990    2.3401   -3.2189 H       1  UNL1        0.0699
     45 H           4.0143    3.3846   -1.5355 H       1  UNL1        0.0334
     46 H           2.0186    4.5222   -0.3008 H       1  UNL1        0.0269
     47 H           0.9167    3.1401   -0.9385 H       1  UNL1        0.0269
     48 H           3.4625    2.8462    0.8725 H       1  UNL1        0.0269
     49 H           2.4677    1.4092    0.2183 H       1  UNL1        0.0269
     50 H           2.7080   -1.6888    3.0914 H       1  UNL1        0.1437
     51 H           2.3151   -3.3644    2.6012 H       1  UNL1        0.1437
@<TRIPOS>BOND
     1     1     2    3
     2     2     3    1
     3     3     4   ar
     4     4     5    1
     5     5     6    1
     6     6     7    1
     7     7     8    1
     8     8     9    1
     9     9    10    1
    10     4    11   ar
    11    11    12   ar
    12    12    13    1
    13    13    14   ar
    14    14    15    1
    15    14    16   ar
    16    16    17   ar
    17    17    18   ar
    18    18    19   ar
    19    19    20    1
    20    20    21    1
    21    21    22    1
    22    22    23    1
    23    23    24    1
    24    12    25   ar
    25    25    26   ar
    26    26    27    1
    27    26     3   ar
    28    10     5    1
    29    19    13   ar
    30    24    22    1
    31     5    28    1
    32     6    29    1
    33     6    30    1
    34     7    31    1
    35     7    32    1
    36     8    33    1
    37     9    34    1
    38     9    35    1
    39    10    36    1
    40    10    37    1
    41    11    38    1
    42    15    39    1
    43    16    40    1
    44    17    41    1
    45    18    42    1
    46    21    43    1
    47    21    44    1
    48    22    45    1
    49    23    46    1
    50    23    47    1
    51    24    48    1
    52    24    49    1
    53    27    50    1
    54    27    51    1
