
     RDKit          3D

 51 54  0  0  0  0  0  0  0  0999 V2000
   -0.3525   -1.2323    4.5461 N   0  0  0  0  0  0  0  0  0  0  0  0
   -0.1518   -1.2328    3.3860 C   0  0  0  0  0  0  0  0  0  0  0  0
    0.1036   -1.2562    1.9716 C   0  0  0  0  0  0  0  0  0  0  0  0
   -0.8126   -0.7224    1.1000 C   0  0  0  0  0  0  0  0  0  0  0  0
   -2.0791   -0.1211    1.4913 C   0  0  0  0  0  0  0  0  0  0  0  0
   -2.0103    1.3540    1.8396 C   0  0  0  0  0  0  0  0  0  0  0  0
   -3.3081    1.7553    2.5164 C   0  0  0  0  0  0  0  0  0  0  0  0
   -4.4374    0.9868    2.0474 N   0  0  0  0  0  0  0  0  0  0  0  0
   -4.3505   -0.4222    2.2545 C   0  0  0  0  0  0  0  0  0  0  0  0
   -2.8786   -0.8038    2.5419 C   0  0  0  0  0  0  0  0  0  0  0  0
   -0.4478   -0.7948   -0.2575 C   0  0  0  0  0  0  0  0  0  0  0  0
    0.7250   -1.3518   -0.6832 C   0  0  0  0  0  0  0  0  0  0  0  0
    1.0273   -1.3884   -2.0905 C   0  0  0  0  0  0  0  0  0  0  0  0
    0.6188   -2.4826   -2.8265 C   0  0  0  0  0  0  0  0  0  0  0  0
   -0.0629   -3.5074   -2.2030 O   0  0  0  0  0  0  0  0  0  0  0  0
    0.8953   -2.5495   -4.1954 C   0  0  0  0  0  0  0  0  0  0  0  0
    1.5776   -1.5127   -4.7945 C   0  0  0  0  0  0  0  0  0  0  0  0
    1.9700   -0.4402   -4.0378 C   0  0  0  0  0  0  0  0  0  0  0  0
    1.7039   -0.3561   -2.6750 C   0  0  0  0  0  0  0  0  0  0  0  0
    2.0892    0.7163   -1.8872 O   0  0  0  0  0  0  0  0  0  0  0  0
    2.7828    1.7972   -2.4332 C   0  0  0  0  0  0  0  0  0  0  0  0
    3.0762    2.8195   -1.3555 C   0  0  0  0  0  0  0  0  0  0  0  0
    1.9316    3.4503   -0.6203 C   0  0  0  0  0  0  0  0  0  0  0  0
    2.8323    2.4434    0.0800 C   0  0  0  0  0  0  0  0  0  0  0  0
    1.5840   -1.8583    0.2022 N   0  0  0  0  0  0  0  0  0  0  0  0
    1.2931   -1.8199    1.5219 C   0  0  0  0  0  0  0  0  0  0  0  0
    2.1834   -2.3489    2.4894 N   0  0  0  0  0  0  0  0  0  0  0  0
   -2.7319   -0.1394    0.5563 H   0  0  0  0  0  0  0  0  0  0  0  0
   -1.1866    1.5367    2.5270 H   0  0  0  0  0  0  0  0  0  0  0  0
   -1.8680    1.9818    0.9380 H   0  0  0  0  0  0  0  0  0  0  0  0
   -3.1644    1.6762    3.5966 H   0  0  0  0  0  0  0  0  0  0  0  0
   -3.5005    2.8122    2.2432 H   0  0  0  0  0  0  0  0  0  0  0  0
   -4.8067    1.2928    1.1443 H   0  0  0  0  0  0  0  0  0  0  0  0
   -4.6988   -1.0398    1.4072 H   0  0  0  0  0  0  0  0  0  0  0  0
   -4.9688   -0.6922    3.1329 H   0  0  0  0  0  0  0  0  0  0  0  0
   -2.7190   -0.3923    3.5636 H   0  0  0  0  0  0  0  0  0  0  0  0
   -2.7658   -1.8815    2.5823 H   0  0  0  0  0  0  0  0  0  0  0  0
   -1.1769   -0.3685   -0.9486 H   0  0  0  0  0  0  0  0  0  0  0  0
   -0.6280   -3.3868   -1.3743 H   0  0  0  0  0  0  0  0  0  0  0  0
    0.5837   -3.3982   -4.7880 H   0  0  0  0  0  0  0  0  0  0  0  0
    1.7966   -1.5615   -5.8706 H   0  0  0  0  0  0  0  0  0  0  0  0
    2.5057    0.3715   -4.5144 H   0  0  0  0  0  0  0  0  0  0  0  0
    3.7252    1.4783   -2.9139 H   0  0  0  0  0  0  0  0  0  0  0  0
    2.1990    2.3401   -3.2189 H   0  0  0  0  0  0  0  0  0  0  0  0
    4.0143    3.3846   -1.5355 H   0  0  0  0  0  0  0  0  0  0  0  0
    2.0186    4.5222   -0.3008 H   0  0  0  0  0  0  0  0  0  0  0  0
    0.9167    3.1401   -0.9385 H   0  0  0  0  0  0  0  0  0  0  0  0
    3.4625    2.8462    0.8725 H   0  0  0  0  0  0  0  0  0  0  0  0
    2.4677    1.4092    0.2183 H   0  0  0  0  0  0  0  0  0  0  0  0
    2.7080   -1.6888    3.0914 H   0  0  0  0  0  0  0  0  0  0  0  0
    2.3151   -3.3644    2.6012 H   0  0  0  0  0  0  0  0  0  0  0  0
  1  2  3  0
  2  3  1  0
  3  4  2  0
  4  5  1  0
  5  6  1  0
  6  7  1  0
  7  8  1  0
  8  9  1  0
  9 10  1  0
  4 11  1  0
 11 12  2  0
 12 13  1  0
 13 14  2  0
 14 15  1  0
 14 16  1  0
 16 17  2  0
 17 18  1  0
 18 19  2  0
 19 20  1  0
 20 21  1  0
 21 22  1  0
 22 23  1  0
 23 24  1  0
 12 25  1  0
 25 26  2  0
 26 27  1  0
 26  3  1  0
 10  5  1  0
 19 13  1  0
 24 22  1  0
  5 28  1  0
  6 29  1  0
  6 30  1  0
  7 31  1  0
  7 32  1  0
  8 33  1  0
  9 34  1  0
  9 35  1  0
 10 36  1  0
 10 37  1  0
 11 38  1  0
 15 39  1  0
 16 40  1  0
 17 41  1  0
 18 42  1  0
 21 43  1  0
 21 44  1  0
 22 45  1  0
 23 46  1  0
 23 47  1  0
 24 48  1  0
 24 49  1  0
 27 50  1  0
 27 51  1  0
M  END
$$$$
