@<TRIPOS>MOLECULE
*****
 49 52 0 0 0
SMALL
GASTEIGER

@<TRIPOS>ATOM
      1 O           1.9808    1.1994   -0.9147 O.2     1  UNL1       -0.2265
      2 C           2.4637    0.1837   -0.3815 C.2     1  UNL1        0.4009
      3 N           3.8563    0.0002   -0.3981 N.am    1  UNL1       -0.2770
      4 C           4.7518    0.9580   -1.0180 C.3     1  UNL1        0.0400
      5 C           6.1609    0.5247   -0.8935 C.ar    1  UNL1       -0.0302
      6 C           6.9608    0.8750    0.1753 C.ar    1  UNL1       -0.0571
      7 C           8.2705    0.4731    0.2923 C.ar    1  UNL1       -0.0615
      8 C           8.7774   -0.3160   -0.7229 C.ar    1  UNL1       -0.0617
      9 C           7.9962   -0.6807   -1.8044 C.ar    1  UNL1       -0.0615
     10 C           6.6900   -0.2686   -1.9023 C.ar    1  UNL1       -0.0571
     11 O           1.5772   -0.7097    0.2011 O.3     1  UNL1       -0.4421
     12 C           0.1956   -0.4980    0.2008 C.3     1  UNL1        0.1563
     13 C          -0.6017   -1.5758   -0.4460 C.3     1  UNL1        0.0879
     14 O          -1.9027   -1.2850    0.0296 O.3     1  UNL1       -0.3664
     15 C          -1.6929   -1.1715    1.4156 C.3     1  UNL1        0.1274
     16 C          -2.7146   -0.3069    2.0819 C.3     1  UNL1        0.1550
     17 O          -3.7198    0.0210    1.1191 O.3     1  UNL1       -0.4528
     18 C          -5.0578   -0.2535    1.3558 C.2     1  UNL1        0.3396
     19 O          -5.3235   -0.8025    2.4588 O.2     1  UNL1       -0.2449
     20 C          -6.0552    0.0822    0.3782 C.ar    1  UNL1        0.0590
     21 C          -5.6956    0.6771   -0.7994 C.ar    1  UNL1       -0.0478
     22 C          -6.6476    0.9990   -1.7354 C.ar    1  UNL1       -0.0610
     23 C          -7.9829    0.7394   -1.5283 C.ar    1  UNL1       -0.0617
     24 C          -8.3137    0.1392   -0.3318 C.ar    1  UNL1       -0.0610
     25 C          -7.3785   -0.1931    0.6217 C.ar    1  UNL1       -0.0478
     26 C          -1.9656    0.9387    2.4076 C.3     1  UNL1        0.0879
     27 O          -0.6607    0.8235    2.0204 O.3     1  UNL1       -0.3664
     28 C          -0.3973   -0.4454    1.5890 C.3     1  UNL1        0.1274
     29 H           4.2583   -0.8534    0.0502 H       1  UNL1        0.1523
     30 H           4.5995    1.9276   -0.4921 H       1  UNL1        0.0513
     31 H           4.5297    1.1212   -2.0859 H       1  UNL1        0.0513
     32 H           6.5004    1.5018    0.9468 H       1  UNL1        0.0621
     33 H           8.8987    0.7561    1.1448 H       1  UNL1        0.0618
     34 H           9.8157   -0.6318   -0.6254 H       1  UNL1        0.0618
     35 H           8.4553   -1.3089   -2.5792 H       1  UNL1        0.0618
     36 H           6.1027   -0.5741   -2.7678 H       1  UNL1        0.0621
     37 H          -0.0052    0.4595   -0.3240 H       1  UNL1        0.0785
     38 H          -0.3700   -2.5859   -0.0955 H       1  UNL1        0.0598
     39 H          -0.5956   -1.5578   -1.5488 H       1  UNL1        0.0598
     40 H          -1.6123   -2.1874    1.8690 H       1  UNL1        0.0661
     41 H          -3.1710   -0.7812    2.9744 H       1  UNL1        0.0785
     42 H          -4.6327    0.8919   -0.9815 H       1  UNL1        0.0626
     43 H          -6.3379    1.4722   -2.6659 H       1  UNL1        0.0618
     44 H          -8.7539    0.9930   -2.2712 H       1  UNL1        0.0618
     45 H          -9.3735   -0.0787   -0.1422 H       1  UNL1        0.0618
     46 H          -7.6920   -0.6738    1.5675 H       1  UNL1        0.0626
     47 H          -2.4600    1.8570    1.9851 H       1  UNL1        0.0598
     48 H          -2.0334    1.0884    3.5232 H       1  UNL1        0.0598
     49 H           0.3060   -0.9631    2.2684 H       1  UNL1        0.0661
@<TRIPOS>BOND
     1     1     2    2
     2     2     3   am
     3     3     4    1
     4     4     5    1
     5     5     6   ar
     6     6     7   ar
     7     7     8   ar
     8     8     9   ar
     9     9    10   ar
    10     2    11    1
    11    11    12    1
    12    12    13    1
    13    13    14    1
    14    14    15    1
    15    15    16    1
    16    16    17    1
    17    17    18    1
    18    18    19    2
    19    18    20    1
    20    20    21   ar
    21    21    22   ar
    22    22    23   ar
    23    23    24   ar
    24    24    25   ar
    25    16    26    1
    26    26    27    1
    27    27    28    1
    28    10     5   ar
    29    28    12    1
    30    28    15    1
    31    25    20   ar
    32     3    29    1
    33     4    30    1
    34     4    31    1
    35     6    32    1
    36     7    33    1
    37     8    34    1
    38     9    35    1
    39    10    36    1
    40    12    37    1
    41    13    38    1
    42    13    39    1
    43    15    40    1
    44    16    41    1
    45    21    42    1
    46    22    43    1
    47    23    44    1
    48    24    45    1
    49    25    46    1
    50    26    47    1
    51    26    48    1
    52    28    49    1
