@<TRIPOS>MOLECULE
*****
 46 49 0 0 0
SMALL
GASTEIGER

@<TRIPOS>ATOM
      1 F          -8.8772   -1.1389    3.1848 F       1  UNL1       -0.1659
      2 C          -8.5086   -0.2233    2.2452 C.3     1  UNL1        0.4175
      3 F          -7.6758    0.7044    2.8515 F       1  UNL1       -0.1659
      4 F          -9.5984    0.4882    1.7584 F       1  UNL1       -0.1659
      5 C          -7.7598   -0.8645    1.1198 C.ar    1  UNL1        0.0566
      6 C          -8.1442   -2.0668    0.5559 C.ar    1  UNL1       -0.0500
      7 C          -7.4185   -2.6058   -0.4733 C.ar    1  UNL1       -0.0595
      8 C          -6.2799   -1.9845   -0.9945 C.ar    1  UNL1       -0.0404
      9 C          -5.8754   -0.7847   -0.4499 C.ar    1  UNL1        0.0353
     10 N          -4.7307   -0.0646   -0.9028 N.am    1  UNL1       -0.2692
     11 C          -3.3928   -0.1836   -0.4321 C.2     1  UNL1        0.3096
     12 O          -3.0737   -0.9857    0.4855 O.2     1  UNL1       -0.2521
     13 N          -2.4960    0.6759   -1.0943 N.am    1  UNL1       -0.2482
     14 C          -1.0932    0.6449   -0.6985 C.ar    1  UNL1        0.1658
     15 N          -0.5021    1.4110    0.2762 N.ar    1  UNL1       -0.2327
     16 C           0.7900    1.1386    0.3879 C.ar    1  UNL1        0.0401
     17 C           1.5439    0.2404   -0.3136 C.ar    1  UNL1        0.0125
     18 C           2.9365   -0.0047   -0.1410 C.3     1  UNL1       -0.0043
     19 C           3.5319    0.8501    0.9250 C.3     1  UNL1        0.0150
     20 N           4.9367    0.5504    1.0483 N.pl3   1  UNL1       -0.3278
     21 C           5.7576    0.8147   -0.0526 C.ar    1  UNL1        0.1363
     22 N           5.5096    1.3200   -1.2578 N.ar    1  UNL1       -0.2198
     23 C           6.5222    1.4646   -2.1204 C.ar    1  UNL1        0.1187
     24 N           7.7916    1.1458   -1.8916 N.ar    1  UNL1       -0.2347
     25 C           8.1878    0.6267   -0.7212 C.ar    1  UNL1        0.0831
     26 C           7.1103    0.4838    0.1679 C.ar    1  UNL1        0.0772
     27 S           7.9222   -0.2497    1.7017 S.2     1  UNL1       -0.0917
     28 C           9.6606   -0.2801    0.9507 C.ar    1  UNL1       -0.0216
     29 C           9.4461    0.2724   -0.3942 C.ar    1  UNL1       -0.0285
     30 S           0.2718   -0.4693   -1.4374 S.2     1  UNL1       -0.0569
     31 C          -6.6226   -0.2592    0.5879 C.ar    1  UNL1       -0.0288
     32 H          -9.0347   -2.5758    0.9465 H       1  UNL1        0.0623
     33 H          -7.7297   -3.5540   -0.9110 H       1  UNL1        0.0618
     34 H          -5.6938   -2.3979   -1.8095 H       1  UNL1        0.0636
     35 H          -5.0496    0.5831   -1.6596 H       1  UNL1        0.1564
     36 H          -2.7488    1.3516   -1.8631 H       1  UNL1        0.1583
     37 H           1.1820    1.7922    1.1851 H       1  UNL1        0.0838
     38 H           3.4767    0.1666   -1.0904 H       1  UNL1        0.0334
     39 H           3.1422   -1.0619    0.1336 H       1  UNL1        0.0334
     40 H           3.3775    1.9384    0.7539 H       1  UNL1        0.0465
     41 H           2.9744    0.6251    1.8659 H       1  UNL1        0.0465
     42 H           5.2361    0.1554    1.9581 H       1  UNL1        0.1475
     43 H           6.2870    1.8801   -3.0966 H       1  UNL1        0.1048
     44 H          10.7263   -0.6019    1.2845 H       1  UNL1        0.0694
     45 H          10.3143    0.3519   -1.0172 H       1  UNL1        0.0644
     46 H          -6.3300    0.6806    1.0354 H       1  UNL1        0.0642
@<TRIPOS>BOND
     1     1     2    1
     2     2     3    1
     3     2     4    1
     4     2     5    1
     5     5     6   ar
     6     6     7   ar
     7     7     8   ar
     8     8     9   ar
     9     9    10    1
    10    10    11   am
    11    11    12    2
    12    11    13   am
    13    13    14    1
    14    14    15   ar
    15    15    16   ar
    16    16    17   ar
    17    17    18    1
    18    18    19    1
    19    19    20    1
    20    20    21    1
    21    21    22   ar
    22    22    23   ar
    23    23    24   ar
    24    24    25   ar
    25    25    26   ar
    26    26    27   ar
    27    27    28   ar
    28    28    29   ar
    29    17    30   ar
    30     9    31   ar
    31    31     5   ar
    32    30    14   ar
    33    26    21   ar
    34    29    25   ar
    35     6    32    1
    36     7    33    1
    37     8    34    1
    38    10    35    1
    39    13    36    1
    40    16    37    1
    41    18    38    1
    42    18    39    1
    43    19    40    1
    44    19    41    1
    45    20    42    1
    46    23    43    1
    47    28    44    1
    48    29    45    1
    49    31    46    1
