@<TRIPOS>MOLECULE
*****
 39 41 0 0 0
SMALL
GASTEIGER

@<TRIPOS>ATOM
      1 C          -1.9483   -1.5528    1.5324 C.3     1  UNL1       -0.0443
      2 C          -2.4550   -0.9540    0.2501 C.3     1  UNL1        0.0467
      3 C          -3.8473   -0.3970    0.4736 C.3     1  UNL1        0.0660
      4 O          -3.8630    0.5878    1.4502 O.3     1  UNL1       -0.3764
      5 C          -2.8807    1.5422    1.2989 C.3     1  UNL1        0.0635
      6 C          -2.2903    1.4725   -0.1005 C.3     1  UNL1        0.0386
      7 N          -1.6438    0.1533   -0.2091 N.pl3   1  UNL1       -0.2937
      8 C          -0.3424    0.0348   -0.7244 C.ar    1  UNL1        0.2016
      9 N           0.7605    0.1059    0.0130 N.ar    1  UNL1       -0.2154
     10 C           2.0252   -0.0075   -0.4714 C.ar    1  UNL1        0.0825
     11 C           3.1610    0.0867    0.4305 C.ar    1  UNL1        0.0387
     12 C           2.8784    0.2946    1.7765 C.ar    1  UNL1       -0.0316
     13 C           3.8877    0.3924    2.6733 C.ar    1  UNL1        0.0284
     14 N           5.1761    0.2985    2.3335 N.ar    1  UNL1       -0.2604
     15 C           5.4801    0.0989    1.0485 C.ar    1  UNL1        0.0634
     16 C           4.4716   -0.0067    0.0992 C.ar    1  UNL1        0.1505
     17 F           4.8471   -0.2056   -1.1644 F       1  UNL1       -0.2032
     18 C           2.1858   -0.2087   -1.8074 C.ar    1  UNL1        0.0292
     19 C           1.0357   -0.2861   -2.5980 C.ar    1  UNL1        0.2555
     20 O           1.1824   -0.4716   -3.8309 O.2     1  UNL1       -0.2675
     21 N          -0.1793   -0.1638   -2.0420 N.ar    1  UNL1       -0.2839
     22 C          -1.3187   -0.2564   -2.9255 C.3     1  UNL1        0.0178
     23 H          -1.6740   -2.6266    1.4000 H       1  UNL1        0.0248
     24 H          -1.0253   -1.0554    1.9003 H       1  UNL1        0.0248
     25 H          -2.7475   -1.5372    2.3046 H       1  UNL1        0.0248
     26 H          -2.5471   -1.7591   -0.4890 H       1  UNL1        0.0520
     27 H          -4.5565   -1.1865    0.8049 H       1  UNL1        0.0578
     28 H          -4.2281   -0.0214   -0.4879 H       1  UNL1        0.0578
     29 H          -3.2976    2.5708    1.4006 H       1  UNL1        0.0575
     30 H          -2.0974    1.3865    2.0436 H       1  UNL1        0.0575
     31 H          -1.5213    2.2762   -0.1507 H       1  UNL1        0.0487
     32 H          -3.0714    1.6202   -0.8427 H       1  UNL1        0.0487
     33 H           1.8392    0.3765    2.0913 H       1  UNL1        0.0640
     34 H           3.6470    0.5543    3.7168 H       1  UNL1        0.0830
     35 H           6.5216    0.0185    0.7439 H       1  UNL1        0.0859
     36 H           3.1320   -0.3156   -2.3208 H       1  UNL1        0.0693
     37 H          -1.3608   -1.3157   -3.2710 H       1  UNL1        0.0458
     38 H          -1.0843    0.3476   -3.8376 H       1  UNL1        0.0458
     39 H          -2.2513    0.1094   -2.5121 H       1  UNL1        0.0458
@<TRIPOS>BOND
     1     1     2    1
     2     2     3    1
     3     3     4    1
     4     4     5    1
     5     5     6    1
     6     6     7    1
     7     7     8    1
     8     8     9   ar
     9     9    10   ar
    10    10    11    1
    11    11    12   ar
    12    12    13   ar
    13    13    14   ar
    14    14    15   ar
    15    15    16   ar
    16    16    17    1
    17    10    18   ar
    18    18    19   ar
    19    19    20    2
    20    19    21   ar
    21    21    22    1
    22     7     2    1
    23    21     8   ar
    24    16    11   ar
    25     1    23    1
    26     1    24    1
    27     1    25    1
    28     2    26    1
    29     3    27    1
    30     3    28    1
    31     5    29    1
    32     5    30    1
    33     6    31    1
    34     6    32    1
    35    12    33    1
    36    13    34    1
    37    15    35    1
    38    18    36    1
    39    22    37    1
    40    22    38    1
    41    22    39    1
