@<TRIPOS>MOLECULE
*****
 49 52 0 0 0
SMALL
GASTEIGER

@<TRIPOS>ATOM
      1 O           0.6906    0.7580    2.6539 O.2     1  UNL1       -0.2744
      2 C           1.0804    0.8600    1.4379 C.2     1  UNL1        0.2273
      3 C           2.4771    1.1695    1.1288 C.3     1  UNL1        0.0757
      4 N           2.7995    1.2222   -0.2611 N.3     1  UNL1       -0.2935
      5 C           4.1800    1.6675   -0.4477 C.3     1  UNL1       -0.0000
      6 C           5.0438    0.5280    0.0081 C.3     1  UNL1       -0.0280
      7 C           4.1740   -0.6827   -0.1342 C.3     1  UNL1        0.0682
      8 C           4.8026   -1.7087   -1.0775 C.3     1  UNL1        0.3941
      9 F           4.9780   -1.1594   -2.3135 F       1  UNL1       -0.1704
     10 F           4.0498   -2.8454   -1.1253 F       1  UNL1       -0.1704
     11 F           6.0624   -2.0482   -0.5945 F       1  UNL1       -0.1704
     12 C           2.9200   -0.1516   -0.7811 C.3     1  UNL1        0.0104
     13 N           0.0351    0.6469    0.5076 N.am    1  UNL1       -0.3109
     14 C          -1.3127    0.3436    0.8495 C.3     1  UNL1        0.0290
     15 C          -2.3530    1.2976    0.3859 C.3     1  UNL1       -0.0195
     16 C          -2.6650    1.2223   -1.0744 C.3     1  UNL1       -0.0455
     17 C          -3.0884   -0.1760   -1.4351 C.3     1  UNL1       -0.0378
     18 C          -1.9343   -1.0952   -1.1091 C.3     1  UNL1       -0.0455
     19 C          -1.6842   -1.0396    0.3764 C.3     1  UNL1       -0.0195
     20 C          -2.9440   -1.4883    1.0843 C.3     1  UNL1       -0.0195
     21 C          -4.0473   -0.5012    0.7818 C.3     1  UNL1        0.0670
     22 O          -5.1353   -0.8265    1.5732 O.3     1  UNL1       -0.3885
     23 C          -4.3535   -0.5555   -0.6936 C.3     1  UNL1       -0.0211
     24 C          -3.6386    0.9091    1.1170 C.3     1  UNL1       -0.0195
     25 H           3.2015    0.5318    1.6953 H       1  UNL1        0.0522
     26 H           2.6713    2.2041    1.5409 H       1  UNL1        0.0522
     27 H           4.3429    1.8646   -1.5269 H       1  UNL1        0.0427
     28 H           4.3535    2.5435    0.1937 H       1  UNL1        0.0427
     29 H           5.9561    0.4489   -0.6401 H       1  UNL1        0.0283
     30 H           5.3574    0.6393    1.0728 H       1  UNL1        0.0283
     31 H           3.8978   -1.1598    0.8146 H       1  UNL1        0.0401
     32 H           2.0464   -0.7783   -0.5337 H       1  UNL1        0.0432
     33 H           3.0181   -0.0486   -1.8786 H       1  UNL1        0.0432
     34 H           0.2604    0.7253   -0.5056 H       1  UNL1        0.1490
     35 H          -1.3736    0.3041    1.9665 H       1  UNL1        0.0504
     36 H          -2.1792    2.3487    0.7113 H       1  UNL1        0.0320
     37 H          -3.5524    1.8973   -1.2478 H       1  UNL1        0.0271
     38 H          -1.8576    1.5150   -1.7417 H       1  UNL1        0.0271
     39 H          -3.2930   -0.1909   -2.5293 H       1  UNL1        0.0302
     40 H          -1.0704   -0.7555   -1.7004 H       1  UNL1        0.0271
     41 H          -2.1858   -2.1262   -1.3645 H       1  UNL1        0.0271
     42 H          -0.8574   -1.7546    0.6269 H       1  UNL1        0.0320
     43 H          -2.7671   -1.5706    2.1806 H       1  UNL1        0.0296
     44 H          -3.2578   -2.4608    0.6288 H       1  UNL1        0.0296
     45 H          -5.1473   -1.7906    1.8062 H       1  UNL1        0.2102
     46 H          -4.6723   -1.5517   -1.0312 H       1  UNL1        0.0296
     47 H          -5.1106    0.2085   -0.9524 H       1  UNL1        0.0296
     48 H          -4.4374    1.6018    0.8420 H       1  UNL1        0.0296
     49 H          -3.4803    1.0080    2.2212 H       1  UNL1        0.0296
@<TRIPOS>BOND
     1     1     2    2
     2     2     3    1
     3     3     4    1
     4     4     5    1
     5     5     6    1
     6     6     7    1
     7     7     8    1
     8     8     9    1
     9     8    10    1
    10     8    11    1
    11     7    12    1
    12     2    13   am
    13    13    14    1
    14    14    15    1
    15    15    16    1
    16    16    17    1
    17    17    18    1
    18    18    19    1
    19    19    20    1
    20    20    21    1
    21    21    22    1
    22    21    23    1
    23    21    24    1
    24    12     4    1
    25    19    14    1
    26    24    15    1
    27    23    17    1
    28     3    25    1
    29     3    26    1
    30     5    27    1
    31     5    28    1
    32     6    29    1
    33     6    30    1
    34     7    31    1
    35    12    32    1
    36    12    33    1
    37    13    34    1
    38    14    35    1
    39    15    36    1
    40    16    37    1
    41    16    38    1
    42    17    39    1
    43    18    40    1
    44    18    41    1
    45    19    42    1
    46    20    43    1
    47    20    44    1
    48    22    45    1
    49    23    46    1
    50    23    47    1
    51    24    48    1
    52    24    49    1
