
     RDKit          3D

 48 51  0  0  0  0  0  0  0  0999 V2000
   -3.4950    0.1319   -4.0294 C   0  0  0  0  0  0  0  0  0  0  0  0
   -3.6968   -0.8815   -2.9827 N   0  0  0  0  0  0  0  0  0  0  0  0
   -2.6685   -1.1148   -2.0288 C   0  0  0  0  0  0  0  0  0  0  0  0
   -1.7052   -0.3330   -2.3003 O   0  0  0  0  0  0  0  0  0  0  0  0
   -3.0363   -2.1621   -1.0528 C   0  0  1  0  0  0  0  0  0  0  0  0
   -2.0741   -2.4246   -0.1031 O   0  0  0  0  0  0  0  0  0  0  0  0
   -2.3966   -1.6787    1.0205 C   0  0  2  0  0  0  0  0  0  0  0  0
   -3.8542   -1.3669    0.9939 C   0  0  2  0  0  0  0  0  0  0  0  0
   -4.4781   -2.0198    2.0806 O   0  0  0  0  0  0  0  0  0  0  0  0
   -4.3027   -1.9271   -0.3162 C   0  0  2  0  0  0  0  0  0  0  0  0
   -4.8780   -3.1855   -0.0445 O   0  0  0  0  0  0  0  0  0  0  0  0
   -1.5632   -0.4714    1.0143 N   0  0  0  0  0  0  0  0  0  0  0  0
   -1.8627    0.7988    0.7367 C   0  0  0  0  0  0  0  0  0  0  0  0
   -0.7583    1.5505    0.8692 N   0  0  0  0  0  0  0  0  0  0  0  0
    0.2285    0.7003    1.2371 C   0  0  0  0  0  0  0  0  0  0  0  0
    1.5670    0.9866    1.5004 C   0  0  0  0  0  0  0  0  0  0  0  0
    2.0901    2.3015    1.4078 N   0  0  0  0  0  0  0  0  0  0  0  0
    3.4322    2.7646    1.6425 C   0  0  0  0  0  0  0  0  0  0  0  0
    4.3889    2.1216    0.7094 C   0  0  0  0  0  0  0  0  0  0  0  0
    5.1402    0.9769    0.8624 C   0  0  0  0  0  0  0  0  0  0  0  0
    5.9670    0.5653   -0.1629 C   0  0  0  0  0  0  0  0  0  0  0  0
    7.0334   -1.2159    0.2735 I   0  0  0  0  0  0  0  0  0  0  0  0
    6.0832    1.2508   -1.3525 C   0  0  0  0  0  0  0  0  0  0  0  0
    5.3305    2.3985   -1.5062 C   0  0  0  0  0  0  0  0  0  0  0  0
    4.4979    2.8190   -0.4826 C   0  0  0  0  0  0  0  0  0  0  0  0
    2.2983   -0.0838    1.8454 N   0  0  0  0  0  0  0  0  0  0  0  0
    1.8508   -1.3325    1.9465 C   0  0  0  0  0  0  0  0  0  0  0  0
    0.5677   -1.6135    1.6952 N   0  0  0  0  0  0  0  0  0  0  0  0
   -0.2420   -0.5827    1.3385 C   0  0  0  0  0  0  0  0  0  0  0  0
   -4.1556   -0.0401   -4.8882 H   0  0  0  0  0  0  0  0  0  0  0  0
   -2.4404   -0.0177   -4.4056 H   0  0  0  0  0  0  0  0  0  0  0  0
   -3.5306    1.1514   -3.6053 H   0  0  0  0  0  0  0  0  0  0  0  0
   -4.6313   -1.3789   -3.0233 H   0  0  0  0  0  0  0  0  0  0  0  0
   -3.1501   -3.1016   -1.6623 H   0  0  0  0  0  0  0  0  0  0  0  0
   -2.1419   -2.3059    1.9254 H   0  0  0  0  0  0  0  0  0  0  0  0
   -4.1232   -0.3080    1.0925 H   0  0  0  0  0  0  0  0  0  0  0  0
   -5.3798   -2.3380    1.8323 H   0  0  0  0  0  0  0  0  0  0  0  0
   -5.0490   -1.3225   -0.8539 H   0  0  0  0  0  0  0  0  0  0  0  0
   -4.3367   -3.6731    0.6500 H   0  0  0  0  0  0  0  0  0  0  0  0
   -2.8474    1.1429    0.4520 H   0  0  0  0  0  0  0  0  0  0  0  0
    1.3910    3.0496    1.1247 H   0  0  0  0  0  0  0  0  0  0  0  0
    3.5075    3.8535    1.6205 H   0  0  0  0  0  0  0  0  0  0  0  0
    3.6957    2.4491    2.6925 H   0  0  0  0  0  0  0  0  0  0  0  0
    5.0094    0.4980    1.8008 H   0  0  0  0  0  0  0  0  0  0  0  0
    6.7650    0.8360   -2.0918 H   0  0  0  0  0  0  0  0  0  0  0  0
    5.4536    2.9039   -2.4556 H   0  0  0  0  0  0  0  0  0  0  0  0
    3.9712    3.7296   -0.7415 H   0  0  0  0  0  0  0  0  0  0  0  0
    2.5286   -2.1006    2.2295 H   0  0  0  0  0  0  0  0  0  0  0  0
  1  2  1  0
  2  3  1  0
  3  4  2  0
  3  5  1  0
  5  6  1  0
  6  7  1  0
  7  8  1  0
  8  9  1  0
  8 10  1  0
 10 11  1  0
  7 12  1  0
 12 13  1  0
 13 14  2  0
 14 15  1  0
 15 16  2  0
 16 17  1  0
 17 18  1  0
 18 19  1  0
 19 20  2  0
 20 21  1  0
 21 22  1  0
 21 23  2  0
 23 24  1  0
 24 25  2  0
 16 26  1  0
 26 27  2  0
 27 28  1  0
 28 29  2  0
 10  5  1  0
 29 12  1  0
 29 15  1  0
 25 19  1  0
  1 30  1  0
  1 31  1  0
  1 32  1  0
  2 33  1  0
  5 34  1  6
  7 35  1  1
  8 36  1  6
  9 37  1  0
 10 38  1  6
 11 39  1  0
 13 40  1  0
 17 41  1  0
 18 42  1  0
 18 43  1  0
 20 44  1  0
 23 45  1  0
 24 46  1  0
 25 47  1  0
 27 48  1  0
M  END
$$$$
