
     RDKit          3D

 55 59  0  0  0  0  0  0  0  0999 V2000
   -3.7014   -1.3045   -3.5789 N   0  0  0  0  0  0  0  0  0  0  0  0
   -4.6168   -0.8992   -2.5723 C   0  0  0  0  0  0  0  0  0  0  0  0
   -5.9835   -0.9933   -2.7750 C   0  0  0  0  0  0  0  0  0  0  0  0
   -6.8188   -0.5863   -1.7658 C   0  0  0  0  0  0  0  0  0  0  0  0
   -6.3469   -0.0973   -0.5823 C   0  0  0  0  0  0  0  0  0  0  0  0
   -7.2394    0.3380    0.4970 C   0  0  0  0  0  0  0  0  0  0  0  0
   -8.5939    0.3719    0.6064 C   0  0  0  0  0  0  0  0  0  0  0  0
   -9.1823    0.8115    1.6902 C   0  0  0  0  0  0  0  0  0  0  0  0
   -8.3861    1.2671    2.7857 C   0  0  0  0  0  0  0  0  0  0  0  0
   -6.7149    0.9892    2.0750 S   0  0  0  0  0  0  0  0  0  0  0  0
   -4.9691   -0.0163   -0.4118 C   0  0  0  0  0  0  0  0  0  0  0  0
   -4.0678   -0.4026   -1.3720 C   0  0  0  0  0  0  0  0  0  0  0  0
   -2.6775   -0.3373   -1.2398 N   0  0  0  0  0  0  0  0  0  0  0  0
   -1.9876    0.1278   -0.1184 C   0  0  0  0  0  0  0  0  0  0  0  0
   -2.5931    0.5406    0.9012 O   0  0  0  0  0  0  0  0  0  0  0  0
   -0.5200    0.1581   -0.0734 C   0  0  0  0  0  0  0  0  0  0  0  0
    0.2490   -0.2616   -1.1138 C   0  0  0  0  0  0  0  0  0  0  0  0
    1.6358   -0.2115   -1.0189 C   0  0  0  0  0  0  0  0  0  0  0  0
    2.2288    0.2581    0.1166 C   0  0  0  0  0  0  0  0  0  0  0  0
    3.6641    0.3261    0.2521 N   0  0  0  0  0  0  0  0  0  0  0  0
    4.2267    0.8173    1.4947 C   0  0  0  0  0  0  0  0  0  0  0  0
    5.4347   -0.0365    1.8207 C   0  0  0  0  0  0  0  0  0  0  0  0
    6.4807    0.0456    0.7363 C   0  0  0  0  0  0  0  0  0  0  0  0
    5.9025    0.5785   -0.5565 C   0  0  0  0  0  0  0  0  0  0  0  0
    4.5450   -0.0748   -0.7978 C   0  0  0  0  0  0  0  0  0  0  0  0
    7.0875   -1.3311    0.5784 C   0  0  0  0  0  0  0  0  0  0  0  0
    8.0867   -1.3405    1.6114 N   0  0  0  0  0  0  0  0  0  0  0  0
    8.3755    0.0069    1.9458 C   0  0  0  0  0  0  0  0  0  0  0  0
    9.2039    0.3783    2.8325 O   0  0  0  0  0  0  0  0  0  0  0  0
    7.5865    0.8402    1.1260 O   0  0  0  0  0  0  0  0  0  0  0  0
    1.4437    0.6657    1.1278 N   0  0  0  0  0  0  0  0  0  0  0  0
    0.1134    0.6339    1.0764 C   0  0  0  0  0  0  0  0  0  0  0  0
   -3.4172   -0.6374   -4.3076 H   0  0  0  0  0  0  0  0  0  0  0  0
   -3.3290   -2.2641   -3.5712 H   0  0  0  0  0  0  0  0  0  0  0  0
   -6.3291   -1.3824   -3.7172 H   0  0  0  0  0  0  0  0  0  0  0  0
   -7.8870   -0.6567   -1.9165 H   0  0  0  0  0  0  0  0  0  0  0  0
   -9.1838    0.0002   -0.2885 H   0  0  0  0  0  0  0  0  0  0  0  0
  -10.3140    0.8519    1.8110 H   0  0  0  0  0  0  0  0  0  0  0  0
   -8.6219    1.6504    3.7252 H   0  0  0  0  0  0  0  0  0  0  0  0
   -4.6670    0.3777    0.5432 H   0  0  0  0  0  0  0  0  0  0  0  0
   -2.1019   -0.6726   -2.0697 H   0  0  0  0  0  0  0  0  0  0  0  0
   -0.1586   -0.6433   -2.0383 H   0  0  0  0  0  0  0  0  0  0  0  0
    2.2706   -0.5430   -1.8400 H   0  0  0  0  0  0  0  0  0  0  0  0
    4.4739    1.8900    1.4493 H   0  0  0  0  0  0  0  0  0  0  0  0
    3.4814    0.6217    2.2921 H   0  0  0  0  0  0  0  0  0  0  0  0
    5.1167   -1.0739    1.9313 H   0  0  0  0  0  0  0  0  0  0  0  0
    5.9033    0.2802    2.7688 H   0  0  0  0  0  0  0  0  0  0  0  0
    6.5819    0.4206   -1.4127 H   0  0  0  0  0  0  0  0  0  0  0  0
    5.7044    1.6605   -0.4034 H   0  0  0  0  0  0  0  0  0  0  0  0
    4.1784    0.1550   -1.8192 H   0  0  0  0  0  0  0  0  0  0  0  0
    4.6396   -1.1919   -0.7459 H   0  0  0  0  0  0  0  0  0  0  0  0
    7.5070   -1.4942   -0.4335 H   0  0  0  0  0  0  0  0  0  0  0  0
    6.2548   -2.0658    0.7785 H   0  0  0  0  0  0  0  0  0  0  0  0
    8.5263   -2.1717    2.0440 H   0  0  0  0  0  0  0  0  0  0  0  0
   -0.4940    0.9756    1.9231 H   0  0  0  0  0  0  0  0  0  0  0  0
  1  2  1  0
  2  3  2  0
  3  4  1  0
  4  5  2  0
  5  6  1  0
  6  7  2  0
  7  8  1  0
  8  9  2  0
  9 10  1  0
  5 11  1  0
 11 12  2  0
 12 13  1  0
 13 14  1  0
 14 15  2  0
 14 16  1  0
 16 17  2  0
 17 18  1  0
 18 19  2  0
 19 20  1  0
 20 21  1  0
 21 22  1  0
 22 23  1  0
 23 24  1  0
 24 25  1  0
 23 26  1  0
 26 27  1  0
 27 28  1  0
 28 29  2  0
 28 30  1  0
 19 31  1  0
 31 32  2  0
 12  2  1  0
 32 16  1  0
 10  6  1  0
 25 20  1  0
 30 23  1  0
  1 33  1  0
  1 34  1  0
  3 35  1  0
  4 36  1  0
  7 37  1  0
  8 38  1  0
  9 39  1  0
 11 40  1  0
 13 41  1  0
 17 42  1  0
 18 43  1  0
 21 44  1  0
 21 45  1  0
 22 46  1  0
 22 47  1  0
 24 48  1  0
 24 49  1  0
 25 50  1  0
 25 51  1  0
 26 52  1  0
 26 53  1  0
 27 54  1  0
 32 55  1  0
M  END
$$$$
