@<TRIPOS>MOLECULE
*****
 55 59 0 0 0
SMALL
GASTEIGER

@<TRIPOS>ATOM
      1 N          -3.7014   -1.3045   -3.5789 N.pl3   1  UNL1       -0.3565
      2 C          -4.6168   -0.8992   -2.5723 C.ar    1  UNL1        0.0461
      3 C          -5.9835   -0.9933   -2.7750 C.ar    1  UNL1       -0.0386
      4 C          -6.8188   -0.5863   -1.7658 C.ar    1  UNL1       -0.0517
      5 C          -6.3469   -0.0973   -0.5823 C.ar    1  UNL1       -0.0094
      6 C          -7.2394    0.3380    0.4970 C.ar    1  UNL1        0.0194
      7 C          -8.5939    0.3719    0.6064 C.ar    1  UNL1       -0.0469
      8 C          -9.1823    0.8115    1.6902 C.ar    1  UNL1       -0.0541
      9 C          -8.3861    1.2671    2.7857 C.ar    1  UNL1       -0.0237
     10 S          -6.7149    0.9892    2.0750 S.2     1  UNL1       -0.0967
     11 C          -4.9691   -0.0163   -0.4118 C.ar    1  UNL1       -0.0305
     12 C          -4.0678   -0.4026   -1.3720 C.ar    1  UNL1        0.0551
     13 N          -2.6775   -0.3373   -1.2398 N.am    1  UNL1       -0.2799
     14 C          -1.9876    0.1278   -0.1184 C.2     1  UNL1        0.2498
     15 O          -2.5931    0.5406    0.9012 O.2     1  UNL1       -0.2698
     16 C          -0.5200    0.1581   -0.0734 C.ar    1  UNL1        0.0552
     17 C           0.2490   -0.2616   -1.1138 C.ar    1  UNL1       -0.0449
     18 C           1.6358   -0.2115   -1.0189 C.ar    1  UNL1       -0.0210
     19 C           2.2288    0.2581    0.1166 C.ar    1  UNL1        0.1212
     20 N           3.6641    0.3261    0.2521 N.pl3   1  UNL1       -0.3149
     21 C           4.2267    0.8173    1.4947 C.3     1  UNL1        0.0172
     22 C           5.4347   -0.0365    1.8207 C.3     1  UNL1        0.0046
     23 C           6.4807    0.0456    0.7363 C.3     1  UNL1        0.1334
     24 C           5.9025    0.5785   -0.5565 C.3     1  UNL1        0.0046
     25 C           4.5450   -0.0748   -0.7978 C.3     1  UNL1        0.0172
     26 C           7.0875   -1.3311    0.5784 C.3     1  UNL1        0.0548
     27 N           8.0867   -1.3405    1.6114 N.am    1  UNL1       -0.2773
     28 C           8.3755    0.0069    1.9458 C.2     1  UNL1        0.4010
     29 O           9.2039    0.3783    2.8325 O.2     1  UNL1       -0.2265
     30 O           7.5865    0.8402    1.1260 O.3     1  UNL1       -0.4421
     31 N           1.4437    0.6657    1.1278 N.ar    1  UNL1       -0.2396
     32 C           0.1134    0.6339    1.0764 C.ar    1  UNL1        0.0418
     33 H          -3.4172   -0.6374   -4.3076 H       1  UNL1        0.1424
     34 H          -3.3290   -2.2641   -3.5712 H       1  UNL1        0.1424
     35 H          -6.3291   -1.3824   -3.7172 H       1  UNL1        0.0637
     36 H          -7.8870   -0.6567   -1.9165 H       1  UNL1        0.0624
     37 H          -9.1838    0.0002   -0.2885 H       1  UNL1        0.0629
     38 H         -10.3140    0.8519    1.8110 H       1  UNL1        0.0623
     39 H          -8.6219    1.6504    3.7252 H       1  UNL1        0.0693
     40 H          -4.6670    0.3777    0.5432 H       1  UNL1        0.0643
     41 H          -2.1019   -0.6726   -2.0697 H       1  UNL1        0.1552
     42 H          -0.1586   -0.6433   -2.0383 H       1  UNL1        0.0627
     43 H           2.2706   -0.5430   -1.8400 H       1  UNL1        0.0652
     44 H           4.4739    1.8900    1.4493 H       1  UNL1        0.0465
     45 H           3.4814    0.6217    2.2921 H       1  UNL1        0.0465
     46 H           5.1167   -1.0739    1.9313 H       1  UNL1        0.0319
     47 H           5.9033    0.2802    2.7688 H       1  UNL1        0.0319
     48 H           6.5819    0.4206   -1.4127 H       1  UNL1        0.0319
     49 H           5.7044    1.6605   -0.4034 H       1  UNL1        0.0319
     50 H           4.1784    0.1550   -1.8192 H       1  UNL1        0.0465
     51 H           4.6396   -1.1919   -0.7459 H       1  UNL1        0.0465
     52 H           7.5070   -1.4942   -0.4335 H       1  UNL1        0.0502
     53 H           6.2548   -2.0658    0.7785 H       1  UNL1        0.0502
     54 H           8.5263   -2.1717    2.0440 H       1  UNL1        0.1521
     55 H          -0.4940    0.9756    1.9231 H       1  UNL1        0.0838
@<TRIPOS>BOND
     1     1     2    1
     2     2     3   ar
     3     3     4   ar
     4     4     5   ar
     5     5     6    1
     6     6     7   ar
     7     7     8   ar
     8     8     9   ar
     9     9    10   ar
    10     5    11   ar
    11    11    12   ar
    12    12    13    1
    13    13    14   am
    14    14    15    2
    15    14    16    1
    16    16    17   ar
    17    17    18   ar
    18    18    19   ar
    19    19    20    1
    20    20    21    1
    21    21    22    1
    22    22    23    1
    23    23    24    1
    24    24    25    1
    25    23    26    1
    26    26    27    1
    27    27    28   am
    28    28    29    2
    29    28    30    1
    30    19    31   ar
    31    31    32   ar
    32    12     2   ar
    33    32    16   ar
    34    10     6   ar
    35    25    20    1
    36    30    23    1
    37     1    33    1
    38     1    34    1
    39     3    35    1
    40     4    36    1
    41     7    37    1
    42     8    38    1
    43     9    39    1
    44    11    40    1
    45    13    41    1
    46    17    42    1
    47    18    43    1
    48    21    44    1
    49    21    45    1
    50    22    46    1
    51    22    47    1
    52    24    48    1
    53    24    49    1
    54    25    50    1
    55    25    51    1
    56    26    52    1
    57    26    53    1
    58    27    54    1
    59    32    55    1
