@<TRIPOS>MOLECULE
*****
 23 24 0 0 0
SMALL
GASTEIGER

@<TRIPOS>ATOM
      1 N          -3.4785   -1.2927   -0.2654 N.3     1  UNL1       -0.2035
      2 S          -3.1067    0.3096    0.3025 S.O2    1  UNL1        0.0574
      3 O          -3.5608    0.4058    1.7475 O.2     1  UNL1       -0.1532
      4 O          -3.7218    1.3564   -0.5563 O.2     1  UNL1       -0.1532
      5 C          -1.3609    0.4563    0.2495 C.ar    1  UNL1        0.1252
      6 C          -0.7363    1.6443    0.6492 C.ar    1  UNL1        0.0691
      7 CL         -1.7051    2.9996    1.2084 Cl      1  UNL1       -0.0815
      8 C           0.6419    1.7687    0.6105 C.ar    1  UNL1       -0.0183
      9 C           1.4420    0.7274    0.1774 C.ar    1  UNL1        0.0607
     10 N           2.8489    0.9112    0.1589 N.pl3   1  UNL1       -0.3026
     11 C           3.7380   -0.0959   -0.2671 C.2     1  UNL1        0.1076
     12 N           3.4890   -1.2993   -0.6955 N.2     1  UNL1       -0.1214
     13 S           1.8435   -1.7865   -0.7741 S.O2    1  UNL1        0.1017
     14 O           1.4941   -2.2278   -2.1429 O.2     1  UNL1       -0.1462
     15 O           1.7025   -2.9852    0.1413 O.2     1  UNL1       -0.1462
     16 C           0.8396   -0.4488   -0.2193 C.ar    1  UNL1        0.1355
     17 C          -0.5177   -0.5655   -0.1790 C.ar    1  UNL1       -0.0052
     18 H          -4.0795   -1.8206    0.3953 H       1  UNL1        0.1442
     19 H          -3.8500   -1.2706   -1.2210 H       1  UNL1        0.1442
     20 H           1.0650    2.7290    0.9386 H       1  UNL1        0.0652
     21 H           3.2387    1.8249    0.4718 H       1  UNL1        0.1531
     22 H           4.8109    0.1262   -0.2510 H       1  UNL1        0.1017
     23 H          -1.0368   -1.4666   -0.4794 H       1  UNL1        0.0658
@<TRIPOS>BOND
     1     1     2    1
     2     2     3    2
     3     2     4    2
     4     2     5    1
     5     5     6   ar
     6     6     7    1
     7     6     8   ar
     8     8     9   ar
     9     9    10    1
    10    10    11    1
    11    11    12    2
    12    12    13    1
    13    13    14    2
    14    13    15    2
    15    13    16    1
    16    16    17   ar
    17    17     5   ar
    18    16     9   ar
    19     1    18    1
    20     1    19    1
    21     8    20    1
    22    10    21    1
    23    11    22    1
    24    17    23    1
