@<TRIPOS>MOLECULE
*****
 59 64 0 0 0
SMALL
GASTEIGER

@<TRIPOS>ATOM
      1 C           4.9547    1.7504    3.2392 C.3     1  UNL1       -0.0305
      2 C           3.9930    2.4683    2.3508 C.3     1  UNL1        0.0915
      3 O           3.2341    1.6421    1.5269 O.3     1  UNL1       -0.4485
      4 C           3.7105    0.7795    0.5822 C.2     1  UNL1        0.4197
      5 O           4.9878    0.7715    0.4884 O.2     1  UNL1       -0.2227
      6 N           2.9712   -0.0755   -0.2719 N.ar    1  UNL1       -0.2540
      7 C           3.5255   -0.9028   -1.1761 C.ar    1  UNL1        0.0201
      8 C           2.5545   -1.6087   -1.8431 C.ar    1  UNL1       -0.0137
      9 C           2.7013   -2.6385   -2.8965 C.3     1  UNL1       -0.0137
     10 C           3.2597   -3.9770   -2.6289 C.3     1  UNL1       -0.0456
     11 C           1.8018   -3.8581   -2.6428 C.3     1  UNL1       -0.0456
     12 C           1.3361   -1.1921   -1.3204 C.ar    1  UNL1        0.0641
     13 C           1.6159   -0.2529   -0.3620 C.ar    1  UNL1        0.0671
     14 C           0.3288    0.2287    0.1822 C.3     1  UNL1        0.0978
     15 C           0.1947    1.6874    0.0959 C.ar    1  UNL1       -0.0208
     16 C           0.0328    2.4159   -1.0554 C.ar    1  UNL1       -0.0550
     17 C          -0.1196    3.7688   -1.0944 C.ar    1  UNL1       -0.0431
     18 C          -0.1172    4.4933    0.0749 C.ar    1  UNL1        0.0410
     19 CL         -0.3125    6.2503    0.0613 Cl      1  UNL1       -0.0835
     20 C           0.0426    3.8034    1.2574 C.ar    1  UNL1       -0.0431
     21 C           0.1969    2.4119    1.2628 C.ar    1  UNL1       -0.0550
     22 N          -0.6672   -0.5293   -0.4231 N.am    1  UNL1       -0.2530
     23 C          -2.0983   -0.5682   -0.2262 C.ar    1  UNL1        0.0545
     24 C          -2.8638    0.2697   -0.9831 C.ar    1  UNL1       -0.0324
     25 C          -4.2215    0.2375   -0.8009 C.ar    1  UNL1       -0.0041
     26 C          -5.1477    1.1216   -1.5864 C.3     1  UNL1       -0.0361
     27 C          -4.8318   -0.6047    0.1122 C.ar    1  UNL1        0.1641
     28 N          -6.1257   -0.8284    0.4796 N.ar    1  UNL1       -0.1292
     29 N          -6.1438   -1.7613    1.4184 N.ar    1  UNL1       -0.1340
     30 C          -4.8512   -2.1317    1.6477 C.ar    1  UNL1        0.1347
     31 C          -4.3640   -3.1459    2.6124 C.3     1  UNL1       -0.0041
     32 N          -4.0481   -1.4181    0.8425 N.ar    1  UNL1       -0.2846
     33 C          -2.6892   -1.4118    0.6862 C.ar    1  UNL1        0.0344
     34 C          -0.0970   -1.3827   -1.3828 C.2     1  UNL1        0.2538
     35 O          -0.6634   -2.1873   -2.1819 O.2     1  UNL1       -0.2695
     36 H           5.3824    2.4996    3.9452 H       1  UNL1        0.0262
     37 H           4.4607    0.9692    3.8200 H       1  UNL1        0.0262
     38 H           5.8028    1.3997    2.6205 H       1  UNL1        0.0262
     39 H           3.3125    3.0784    2.9756 H       1  UNL1        0.0695
     40 H           4.5920    3.2197    1.7573 H       1  UNL1        0.0695
     41 H           4.5880   -1.0431   -1.3996 H       1  UNL1        0.0818
     42 H           2.7331   -2.2451   -3.9320 H       1  UNL1        0.0349
     43 H           3.7607   -4.2023   -1.6627 H       1  UNL1        0.0271
     44 H           3.7197   -4.4917   -3.5171 H       1  UNL1        0.0271
     45 H           1.1592   -4.1185   -3.4893 H       1  UNL1        0.0271
     46 H           1.2884   -3.9414   -1.6466 H       1  UNL1        0.0271
     47 H           0.3530   -0.0587    1.2702 H       1  UNL1        0.0620
     48 H           0.0291    1.8610   -1.9790 H       1  UNL1        0.0621
     49 H          -0.2477    4.3322   -2.0267 H       1  UNL1        0.0632
     50 H           0.0428    4.3838    2.1698 H       1  UNL1        0.0632
     51 H           0.3158    1.9667    2.2494 H       1  UNL1        0.0621
     52 H          -2.4241    0.9281   -1.6928 H       1  UNL1        0.0640
     53 H          -5.7083    0.5249   -2.3368 H       1  UNL1        0.0279
     54 H          -4.5777    1.9227   -2.0925 H       1  UNL1        0.0279
     55 H          -5.8961    1.6103   -0.9351 H       1  UNL1        0.0279
     56 H          -4.2824   -2.6203    3.5993 H       1  UNL1        0.0308
     57 H          -3.3719   -3.5206    2.3028 H       1  UNL1        0.0308
     58 H          -5.0440   -4.0180    2.6848 H       1  UNL1        0.0308
     59 H          -2.0678   -2.0619    1.2705 H       1  UNL1        0.0833
@<TRIPOS>BOND
     1     1     2    1
     2     2     3    1
     3     3     4    1
     4     4     5    2
     5     4     6   am
     6     6     7   ar
     7     7     8   ar
     8     8     9    1
     9     9    10    1
    10    10    11    1
    11     8    12   ar
    12    12    13   ar
    13    13    14    1
    14    14    15    1
    15    15    16   ar
    16    16    17   ar
    17    17    18   ar
    18    18    19    1
    19    18    20   ar
    20    20    21   ar
    21    14    22    1
    22    22    23    1
    23    23    24   ar
    24    24    25   ar
    25    25    26    1
    26    25    27   ar
    27    27    28   ar
    28    28    29   ar
    29    29    30   ar
    30    30    31    1
    31    30    32   ar
    32    32    33   ar
    33    22    34   am
    34    34    35    2
    35    13     6   ar
    36    21    15   ar
    37    33    23   ar
    38    11     9    1
    39    34    12    1
    40    32    27   ar
    41     1    36    1
    42     1    37    1
    43     1    38    1
    44     2    39    1
    45     2    40    1
    46     7    41    1
    47     9    42    1
    48    10    43    1
    49    10    44    1
    50    11    45    1
    51    11    46    1
    52    14    47    1
    53    16    48    1
    54    17    49    1
    55    20    50    1
    56    21    51    1
    57    24    52    1
    58    26    53    1
    59    26    54    1
    60    26    55    1
    61    31    56    1
    62    31    57    1
    63    31    58    1
    64    33    59    1
