@<TRIPOS>MOLECULE
*****
 40 42 0 0 0
SMALL
GASTEIGER

@<TRIPOS>ATOM
      1 C          -2.0604   -3.4556    0.2377 C.3     1  UNL1        0.0789
      2 O          -2.5525   -2.1844   -0.1593 O.3     1  UNL1       -0.4932
      3 C          -1.8045   -1.0467    0.0896 C.ar    1  UNL1        0.1413
      4 C          -0.5757   -1.1380    0.7255 C.ar    1  UNL1       -0.0146
      5 C           0.1864   -0.0017    0.9821 C.ar    1  UNL1       -0.0391
      6 C           1.4901   -0.0691    1.6708 C.3     1  UNL1        0.0024
      7 C           2.6324   -0.4335    0.8380 C.ar    1  UNL1        0.0146
      8 C           3.1811   -1.7166    0.8333 C.ar    1  UNL1        0.0379
      9 N           4.2365   -2.0057    0.0334 N.ar    1  UNL1       -0.2227
     10 C           4.7855   -1.0864   -0.7703 C.ar    1  UNL1        0.2142
     11 N           5.9108   -1.4270   -1.6123 N.pl3   1  UNL1       -0.3274
     12 N           4.2819    0.1468   -0.7860 N.ar    1  UNL1       -0.1999
     13 C           3.2198    0.4770    0.0047 C.ar    1  UNL1        0.1247
     14 N           2.7816    1.8134   -0.0916 N.pl3   1  UNL1       -0.3428
     15 C          -0.3386    1.1933    0.5769 C.ar    1  UNL1       -0.0531
     16 C          -1.5723    1.2943   -0.0628 C.ar    1  UNL1       -0.0226
     17 C          -2.3137    0.1630   -0.3093 C.ar    1  UNL1        0.0726
     18 N          -3.5964    0.2488   -0.9691 N.pl3   1  UNL1       -0.3408
     19 C          -4.3604    1.4769   -0.9428 C.3     1  UNL1        0.0095
     20 C          -3.6269    2.6013   -0.2891 C.3     1  UNL1       -0.0334
     21 C          -2.1434    2.5896   -0.5077 C.3     1  UNL1       -0.0244
     22 H          -2.8661   -4.1892    0.0325 H       1  UNL1        0.0660
     23 H          -1.7942   -3.4681    1.3268 H       1  UNL1        0.0660
     24 H          -1.1312   -3.7235   -0.3094 H       1  UNL1        0.0660
     25 H          -0.1619   -2.0857    1.0456 H       1  UNL1        0.0657
     26 H           1.6788    0.8611    2.2826 H       1  UNL1        0.0363
     27 H           1.3910   -0.8624    2.4747 H       1  UNL1        0.0363
     28 H           2.7263   -2.4374    1.4847 H       1  UNL1        0.0834
     29 H           6.7457   -1.8895   -1.2131 H       1  UNL1        0.1452
     30 H           5.8891   -1.2098   -2.6238 H       1  UNL1        0.1452
     31 H           2.6707    2.2234   -1.0431 H       1  UNL1        0.1437
     32 H           2.5561    2.4354    0.7142 H       1  UNL1        0.1437
     33 H           0.1738    2.1100    0.7392 H       1  UNL1        0.0624
     34 H          -3.9906   -0.5713   -1.4717 H       1  UNL1        0.1462
     35 H          -5.2886    1.2880   -0.3291 H       1  UNL1        0.0461
     36 H          -4.7521    1.7460   -1.9554 H       1  UNL1        0.0461
     37 H          -4.0035    3.5524   -0.7687 H       1  UNL1        0.0283
     38 H          -3.9068    2.6788    0.7837 H       1  UNL1        0.0283
     39 H          -1.9862    2.6381   -1.6173 H       1  UNL1        0.0314
     40 H          -1.7116    3.4642    0.0043 H       1  UNL1        0.0314
@<TRIPOS>BOND
     1     1     2    1
     2     2     3    1
     3     3     4   ar
     4     4     5   ar
     5     5     6    1
     6     6     7    1
     7     7     8   ar
     8     8     9   ar
     9     9    10   ar
    10    10    11    1
    11    10    12   ar
    12    12    13   ar
    13    13    14    1
    14     5    15   ar
    15    15    16   ar
    16    16    17   ar
    17    17    18    1
    18    18    19    1
    19    19    20    1
    20    20    21    1
    21    17     3   ar
    22    13     7   ar
    23    21    16    1
    24     1    22    1
    25     1    23    1
    26     1    24    1
    27     4    25    1
    28     6    26    1
    29     6    27    1
    30     8    28    1
    31    11    29    1
    32    11    30    1
    33    14    31    1
    34    14    32    1
    35    15    33    1
    36    18    34    1
    37    19    35    1
    38    19    36    1
    39    20    37    1
    40    20    38    1
    41    21    39    1
    42    21    40    1
