@<TRIPOS>MOLECULE
*****
 52 56 0 0 0
SMALL
GASTEIGER

@<TRIPOS>ATOM
      1 N          -7.2460    2.6734    0.7974 N.pl3   1  UNL1       -0.3134
      2 C          -6.6565    1.4089    0.3994 C.2     1  UNL1        0.2764
      3 N          -5.4358    1.1590    0.6071 N.2     1  UNL1       -0.2194
      4 C          -4.7232   -0.0253    0.2760 C.3     1  UNL1        0.1603
      5 C          -3.5845    0.4198   -0.6248 C.ar    1  UNL1        0.0228
      6 C          -2.2791    0.1915   -0.2445 C.ar    1  UNL1       -0.0321
      7 C          -1.2231    0.5905   -1.0479 C.ar    1  UNL1        0.0342
      8 N           0.1444    0.4237   -0.7878 N.am    1  UNL1       -0.2802
      9 C           0.7505   -0.1817    0.3371 C.2     1  UNL1        0.2666
     10 O           0.0188   -0.6403    1.2388 O.2     1  UNL1       -0.2682
     11 C           2.2222   -0.2772    0.4576 C.ar    1  UNL1        0.1259
     12 C           2.7726   -0.8701    1.5614 C.ar    1  UNL1       -0.0277
     13 C           4.1596   -0.9714    1.6963 C.ar    1  UNL1       -0.0162
     14 C           4.9360   -0.4511    0.6756 C.ar    1  UNL1        0.1391
     15 O           6.3148   -0.5144    0.7387 O.3     1  UNL1       -0.4838
     16 C           7.1025    0.0181   -0.3058 C.3     1  UNL1        0.1377
     17 C           8.5433   -0.2411    0.1269 C.ar    1  UNL1        0.1156
     18 N           9.3629   -1.1220   -0.0066 N.ar    1  UNL1       -0.2489
     19 C          10.5777   -1.1199    0.4724 C.ar    1  UNL1        0.0352
     20 C          10.9677   -0.0300    1.1900 C.ar    1  UNL1       -0.0044
     21 S           9.4220    0.9721    1.1007 S.2     1  UNL1       -0.0772
     22 C           4.3523    0.1393   -0.4220 C.ar    1  UNL1        0.0701
     23 N           3.0234    0.2052   -0.4922 N.ar    1  UNL1       -0.2467
     24 C          -1.5822    1.2220   -2.2345 C.ar    1  UNL1       -0.0377
     25 C          -2.8836    1.4524   -2.6188 C.ar    1  UNL1       -0.0243
     26 C          -3.9178    1.0460   -1.8025 C.ar    1  UNL1        0.1292
     27 F          -5.2132    1.2295   -2.0987 F       1  UNL1       -0.2051
     28 C          -4.1346   -0.6511    1.5340 C.3     1  UNL1        0.2686
     29 F          -5.1526   -0.9521    2.4309 F       1  UNL1       -0.2062
     30 F          -3.4929   -1.8382    1.2449 F       1  UNL1       -0.2062
     31 C          -5.5203   -1.0348   -0.4472 C.3     1  UNL1        0.0344
     32 C          -6.6211   -1.8313    0.1940 C.3     1  UNL1       -0.0064
     33 C          -6.9306   -0.7165   -0.7741 C.3     1  UNL1        0.1091
     34 O          -7.4386    0.4532   -0.2197 O.2     1  UNL1       -0.4622
     35 H          -7.8633    2.7091    1.6072 H       1  UNL1        0.1466
     36 H          -7.0107    3.4981    0.2331 H       1  UNL1        0.1466
     37 H          -2.0201   -0.2904    0.6647 H       1  UNL1        0.0640
     38 H           0.8318    0.7944   -1.5205 H       1  UNL1        0.1552
     39 H           2.1857   -1.2852    2.3744 H       1  UNL1        0.0641
     40 H           4.6346   -1.4263    2.5410 H       1  UNL1        0.0655
     41 H           6.9171   -0.4690   -1.2815 H       1  UNL1        0.0769
     42 H           6.9723    1.1187   -0.4053 H       1  UNL1        0.0769
     43 H          11.2700   -1.9867    0.2960 H       1  UNL1        0.0835
     44 H          11.8681    0.2884    1.7091 H       1  UNL1        0.0709
     45 H           4.9870    0.5464   -1.2220 H       1  UNL1        0.0867
     46 H          -0.8009    1.5641   -2.9181 H       1  UNL1        0.0637
     47 H          -3.1466    1.9439   -3.5430 H       1  UNL1        0.0647
     48 H          -3.4256    0.0382    1.9947 H       1  UNL1        0.1047
     49 H          -4.9466   -1.6943   -1.1950 H       1  UNL1        0.0366
     50 H          -6.8767   -2.8417   -0.1980 H       1  UNL1        0.0306
     51 H          -6.8674   -1.6454    1.2413 H       1  UNL1        0.0306
     52 H          -7.3435   -0.9984   -1.7747 H       1  UNL1        0.0737
@<TRIPOS>BOND
     1     1     2    1
     2     2     3    2
     3     3     4    1
     4     4     5    1
     5     5     6   ar
     6     6     7   ar
     7     7     8    1
     8     8     9   am
     9     9    10    2
    10     9    11    1
    11    11    12   ar
    12    12    13   ar
    13    13    14   ar
    14    14    15    1
    15    15    16    1
    16    16    17    1
    17    17    18   ar
    18    18    19   ar
    19    19    20   ar
    20    20    21   ar
    21    14    22   ar
    22    22    23   ar
    23     7    24   ar
    24    24    25   ar
    25    25    26   ar
    26    26    27    1
    27     4    28    1
    28    28    29    1
    29    28    30    1
    30     4    31    1
    31    31    32    1
    32    32    33    1
    33    33    34    1
    34    34     2    1
    35    26     5   ar
    36    33    31    1
    37    23    11   ar
    38    21    17   ar
    39     1    35    1
    40     1    36    1
    41     6    37    1
    42     8    38    1
    43    12    39    1
    44    13    40    1
    45    16    41    1
    46    16    42    1
    47    19    43    1
    48    20    44    1
    49    22    45    1
    50    24    46    1
    51    25    47    1
    52    28    48    1
    53    31    49    1
    54    32    50    1
    55    32    51    1
    56    33    52    1
