@<TRIPOS>MOLECULE
*****
 33 36 0 0 0
SMALL
GASTEIGER

@<TRIPOS>ATOM
      1 O           0.1185   -2.8605    2.6194 O.2     1  UNL1       -0.2870
      2 C           0.0342   -1.9357    1.7747 C.ar    1  UNL1        0.1931
      3 C          -1.2187   -1.4491    1.3859 C.ar    1  UNL1        0.0287
      4 C          -1.3288   -0.4443    0.4689 C.ar    1  UNL1        0.1392
      5 C          -2.6316    0.0582    0.0678 C.ar    1  UNL1        0.0174
      6 C          -3.8022   -0.4337    0.5731 C.ar    1  UNL1       -0.0511
      7 C          -5.0370    0.0846    0.1543 C.ar    1  UNL1       -0.0611
      8 C          -5.1278    1.0961   -0.7697 C.ar    1  UNL1       -0.0617
      9 C          -3.9503    1.5969   -1.2835 C.ar    1  UNL1       -0.0611
     10 C          -2.7372    1.0907   -0.8748 C.ar    1  UNL1       -0.0511
     11 O          -0.2131    0.0755   -0.0594 O.2     1  UNL1       -0.4540
     12 C           0.9752   -0.3565    0.2823 C.ar    1  UNL1        0.1469
     13 C           1.1704   -1.3677    1.2012 C.ar    1  UNL1        0.0646
     14 C           2.4052   -1.8268    1.5656 C.ar    1  UNL1       -0.0468
     15 C           3.5290   -1.2672    1.0003 C.ar    1  UNL1       -0.0531
     16 C           3.3876   -0.2572    0.0800 C.ar    1  UNL1       -0.0143
     17 C           4.5418    0.2873   -0.4728 C.ar    1  UNL1       -0.0539
     18 C           4.3821    1.3003   -1.3949 C.ar    1  UNL1       -0.0612
     19 C           3.1518    1.7678   -1.7673 C.ar    1  UNL1       -0.0611
     20 C           2.0191    1.2060   -1.1996 C.ar    1  UNL1       -0.0505
     21 C           2.1296    0.1895   -0.2719 C.ar    1  UNL1        0.0251
     22 H          -2.0527   -1.9243    1.8603 H       1  UNL1        0.0693
     23 H          -3.7954   -1.2311    1.3045 H       1  UNL1        0.0625
     24 H          -5.9372   -0.3316    0.5777 H       1  UNL1        0.0618
     25 H          -6.0699    1.5082   -1.1044 H       1  UNL1        0.0618
     26 H          -3.9635    2.4062   -2.0255 H       1  UNL1        0.0618
     27 H          -1.7971    1.4703   -1.2665 H       1  UNL1        0.0625
     28 H           2.4790   -2.6259    2.2954 H       1  UNL1        0.0626
     29 H           4.5261   -1.6060    1.2653 H       1  UNL1        0.0624
     30 H           5.5364   -0.0658   -0.1946 H       1  UNL1        0.0624
     31 H           5.2642    1.7541   -1.8520 H       1  UNL1        0.0618
     32 H           2.9984    2.5611   -2.4882 H       1  UNL1        0.0618
     33 H           1.0142    1.5312   -1.4517 H       1  UNL1        0.0625
@<TRIPOS>BOND
     1     1     2    2
     2     2     3   ar
     3     3     4   ar
     4     4     5    1
     5     5     6   ar
     6     6     7   ar
     7     7     8   ar
     8     8     9   ar
     9     9    10   ar
    10     4    11   ar
    11    11    12   ar
    12    12    13   ar
    13    13    14   ar
    14    14    15   ar
    15    15    16   ar
    16    16    17   ar
    17    17    18   ar
    18    18    19   ar
    19    19    20   ar
    20    20    21   ar
    21    13     2   ar
    22    21    16   ar
    23    10     5   ar
    24    21    12   ar
    25     3    22    1
    26     6    23    1
    27     7    24    1
    28     8    25    1
    29     9    26    1
    30    10    27    1
    31    14    28    1
    32    15    29    1
    33    17    30    1
    34    18    31    1
    35    19    32    1
    36    20    33    1
