
     RDKit          3D

 33 36  0  0  0  0  0  0  0  0999 V2000
    0.1185   -2.8605    2.6194 O   0  0  0  0  0  0  0  0  0  0  0  0
    0.0342   -1.9357    1.7747 C   0  0  0  0  0  0  0  0  0  0  0  0
   -1.2187   -1.4491    1.3859 C   0  0  0  0  0  0  0  0  0  0  0  0
   -1.3288   -0.4443    0.4689 C   0  0  0  0  0  0  0  0  0  0  0  0
   -2.6316    0.0582    0.0678 C   0  0  0  0  0  0  0  0  0  0  0  0
   -3.8022   -0.4337    0.5731 C   0  0  0  0  0  0  0  0  0  0  0  0
   -5.0370    0.0846    0.1543 C   0  0  0  0  0  0  0  0  0  0  0  0
   -5.1278    1.0961   -0.7697 C   0  0  0  0  0  0  0  0  0  0  0  0
   -3.9503    1.5969   -1.2835 C   0  0  0  0  0  0  0  0  0  0  0  0
   -2.7372    1.0907   -0.8748 C   0  0  0  0  0  0  0  0  0  0  0  0
   -0.2131    0.0755   -0.0594 O   0  0  0  0  0  0  0  0  0  0  0  0
    0.9752   -0.3565    0.2823 C   0  0  0  0  0  0  0  0  0  0  0  0
    1.1704   -1.3677    1.2012 C   0  0  0  0  0  0  0  0  0  0  0  0
    2.4052   -1.8268    1.5656 C   0  0  0  0  0  0  0  0  0  0  0  0
    3.5290   -1.2672    1.0003 C   0  0  0  0  0  0  0  0  0  0  0  0
    3.3876   -0.2572    0.0800 C   0  0  0  0  0  0  0  0  0  0  0  0
    4.5418    0.2873   -0.4728 C   0  0  0  0  0  0  0  0  0  0  0  0
    4.3821    1.3003   -1.3949 C   0  0  0  0  0  0  0  0  0  0  0  0
    3.1518    1.7678   -1.7673 C   0  0  0  0  0  0  0  0  0  0  0  0
    2.0191    1.2060   -1.1996 C   0  0  0  0  0  0  0  0  0  0  0  0
    2.1296    0.1895   -0.2719 C   0  0  0  0  0  0  0  0  0  0  0  0
   -2.0527   -1.9243    1.8603 H   0  0  0  0  0  0  0  0  0  0  0  0
   -3.7954   -1.2311    1.3045 H   0  0  0  0  0  0  0  0  0  0  0  0
   -5.9372   -0.3316    0.5777 H   0  0  0  0  0  0  0  0  0  0  0  0
   -6.0699    1.5082   -1.1044 H   0  0  0  0  0  0  0  0  0  0  0  0
   -3.9635    2.4062   -2.0255 H   0  0  0  0  0  0  0  0  0  0  0  0
   -1.7971    1.4703   -1.2665 H   0  0  0  0  0  0  0  0  0  0  0  0
    2.4790   -2.6259    2.2954 H   0  0  0  0  0  0  0  0  0  0  0  0
    4.5261   -1.6060    1.2653 H   0  0  0  0  0  0  0  0  0  0  0  0
    5.5364   -0.0658   -0.1946 H   0  0  0  0  0  0  0  0  0  0  0  0
    5.2642    1.7541   -1.8520 H   0  0  0  0  0  0  0  0  0  0  0  0
    2.9984    2.5611   -2.4882 H   0  0  0  0  0  0  0  0  0  0  0  0
    1.0142    1.5312   -1.4517 H   0  0  0  0  0  0  0  0  0  0  0  0
  1  2  2  0
  2  3  1  0
  3  4  2  0
  4  5  1  0
  5  6  2  0
  6  7  1  0
  7  8  2  0
  8  9  1  0
  9 10  2  0
  4 11  1  0
 11 12  1  0
 12 13  2  0
 13 14  1  0
 14 15  2  0
 15 16  1  0
 16 17  2  0
 17 18  1  0
 18 19  2  0
 19 20  1  0
 20 21  2  0
 13  2  1  0
 21 16  1  0
 10  5  1  0
 21 12  1  0
  3 22  1  0
  6 23  1  0
  7 24  1  0
  8 25  1  0
  9 26  1  0
 10 27  1  0
 14 28  1  0
 15 29  1  0
 17 30  1  0
 18 31  1  0
 19 32  1  0
 20 33  1  0
M  END
$$$$
