
     RDKit          3D

 72 75  0  0  0  0  0  0  0  0999 V2000
   -3.4812    6.3379   -1.3267 C   0  0  0  0  0  0  0  0  0  0  0  0
   -2.8253    5.0946   -1.4889 O   0  0  0  0  0  0  0  0  0  0  0  0
   -2.8866    4.1892   -0.4380 C   0  0  0  0  0  0  0  0  0  0  0  0
   -3.5605    4.4743    0.7335 C   0  0  0  0  0  0  0  0  0  0  0  0
   -3.6089    3.5504    1.7766 C   0  0  0  0  0  0  0  0  0  0  0  0
   -2.9682    2.3572    1.5982 C   0  0  0  0  0  0  0  0  0  0  0  0
   -2.2772    2.0139    0.4483 C   0  0  0  0  0  0  0  0  0  0  0  0
   -1.5969    0.7332    0.2771 C   0  0  0  0  0  0  0  0  0  0  0  0
   -2.2735   -0.3466   -0.2885 C   0  0  0  0  0  0  0  0  0  0  0  0
   -1.6887   -1.5524   -0.4745 N   0  0  0  0  0  0  0  0  0  0  0  0
   -2.4037   -2.7073   -0.9927 C   0  0  0  0  0  0  0  0  0  0  0  0
   -3.3383   -3.3638   -0.0800 C   0  0  0  0  0  0  0  0  0  0  0  0
   -2.9408   -3.9684    1.0672 C   0  0  0  0  0  0  0  0  0  0  0  0
   -1.6625   -3.9919    1.5218 F   0  0  0  0  0  0  0  0  0  0  0  0
   -3.8602   -4.6257    1.8849 C   0  0  0  0  0  0  0  0  0  0  0  0
   -5.1861   -4.6682    1.5367 C   0  0  0  0  0  0  0  0  0  0  0  0
   -5.5685   -4.0517    0.3722 C   0  0  0  0  0  0  0  0  0  0  0  0
   -4.6899   -3.3932   -0.4634 C   0  0  0  0  0  0  0  0  0  0  0  0
   -5.1824   -2.8016   -1.7356 C   0  0  0  0  0  0  0  0  0  0  0  0
   -6.5678   -3.0418   -1.7946 F   0  0  0  0  0  0  0  0  0  0  0  0
   -5.0205   -1.4735   -1.8778 F   0  0  0  0  0  0  0  0  0  0  0  0
   -4.6697   -3.5262   -2.8220 F   0  0  0  0  0  0  0  0  0  0  0  0
   -0.4070   -1.6857   -0.0938 C   0  0  0  0  0  0  0  0  0  0  0  0
    0.1532   -2.8206   -0.2770 O   0  0  0  0  0  0  0  0  0  0  0  0
    0.3102   -0.6689    0.4657 N   0  0  0  0  0  0  0  0  0  0  0  0
    1.6359   -1.0141    0.8946 C   0  0  0  0  0  0  0  0  0  0  0  0
    2.6413   -1.1404   -0.1187 C   0  0  2  0  0  0  0  0  0  0  0  0
    3.9714   -1.4999    0.3262 N   0  0  0  0  0  0  0  0  0  0  0  0
    4.5840   -0.7810    1.3491 C   0  0  0  0  0  0  0  0  0  0  0  0
    4.9770    0.6351    1.0252 C   0  0  0  0  0  0  0  0  0  0  0  0
    5.6250    1.3629    2.1514 C   0  0  0  0  0  0  0  0  0  0  0  0
    6.8632    0.8232    2.6727 C   0  0  0  0  0  0  0  0  0  0  0  0
    7.4302   -0.1909    2.2194 O   0  0  0  0  0  0  0  0  0  0  0  0
    7.4649    1.4683    3.7438 O   0  0  0  0  0  0  0  0  0  0  0  0
    2.7888   -0.3521   -1.3298 C   0  0  0  0  0  0  0  0  0  0  0  0
    3.4822   -1.0364   -2.3765 C   0  0  0  0  0  0  0  0  0  0  0  0
    3.7406   -0.4618   -3.5727 C   0  0  0  0  0  0  0  0  0  0  0  0
    3.3276    0.8232   -3.8031 C   0  0  0  0  0  0  0  0  0  0  0  0
    2.6560    1.5073   -2.8099 C   0  0  0  0  0  0  0  0  0  0  0  0
    2.3927    0.9212   -1.5878 C   0  0  0  0  0  0  0  0  0  0  0  0
   -0.2881    0.5127    0.6430 C   0  0  0  0  0  0  0  0  0  0  0  0
    0.3557    1.4627    1.1679 O   0  0  0  0  0  0  0  0  0  0  0  0
   -2.2571    2.9646   -0.5600 C   0  0  0  0  0  0  0  0  0  0  0  0
   -1.6065    2.7229   -1.7320 F   0  0  0  0  0  0  0  0  0  0  0  0
   -3.2452    7.0401   -2.1532 H   0  0  0  0  0  0  0  0  0  0  0  0
   -4.5942    6.2153   -1.3241 H   0  0  0  0  0  0  0  0  0  0  0  0
   -3.2290    6.8299   -0.3629 H   0  0  0  0  0  0  0  0  0  0  0  0
   -4.0676    5.4344    0.8592 H   0  0  0  0  0  0  0  0  0  0  0  0
   -4.1495    3.8335    2.6601 H   0  0  0  0  0  0  0  0  0  0  0  0
   -3.0144    1.6389    2.4281 H   0  0  0  0  0  0  0  0  0  0  0  0
   -3.2836   -0.1679   -0.5636 H   0  0  0  0  0  0  0  0  0  0  0  0
   -1.6441   -3.4438   -1.3503 H   0  0  0  0  0  0  0  0  0  0  0  0
   -2.9022   -2.3466   -1.9194 H   0  0  0  0  0  0  0  0  0  0  0  0
   -3.5171   -5.1025    2.7971 H   0  0  0  0  0  0  0  0  0  0  0  0
   -5.8905   -5.1917    2.1987 H   0  0  0  0  0  0  0  0  0  0  0  0
   -6.6309   -4.0845    0.0914 H   0  0  0  0  0  0  0  0  0  0  0  0
    1.5021   -1.9773    1.4608 H   0  0  0  0  0  0  0  0  0  0  0  0
    1.8630   -0.2877    1.7283 H   0  0  0  0  0  0  0  0  0  0  0  0
    2.3523   -2.2137   -0.5993 H   0  0  0  0  0  0  0  0  0  0  0  0
    4.6384   -1.7104   -0.4177 H   0  0  0  0  0  0  0  0  0  0  0  0
    5.5665   -1.3152    1.5502 H   0  0  0  0  0  0  0  0  0  0  0  0
    4.0896   -0.8549    2.3503 H   0  0  0  0  0  0  0  0  0  0  0  0
    5.7222    0.5563    0.1801 H   0  0  0  0  0  0  0  0  0  0  0  0
    4.1408    1.2326    0.6154 H   0  0  0  0  0  0  0  0  0  0  0  0
    5.8488    2.4077    1.7803 H   0  0  0  0  0  0  0  0  0  0  0  0
    4.8704    1.4535    2.9832 H   0  0  0  0  0  0  0  0  0  0  0  0
    8.1224    1.0525    4.3724 H   0  0  0  0  0  0  0  0  0  0  0  0
    3.8185   -2.0526   -2.2282 H   0  0  0  0  0  0  0  0  0  0  0  0
    4.2737   -0.9965   -4.3679 H   0  0  0  0  0  0  0  0  0  0  0  0
    3.5283    1.2872   -4.7520 H   0  0  0  0  0  0  0  0  0  0  0  0
    2.3503    2.5104   -3.0325 H   0  0  0  0  0  0  0  0  0  0  0  0
    1.8971    1.4626   -0.8165 H   0  0  0  0  0  0  0  0  0  0  0  0
  1  2  1  0
  2  3  1  0
  3  4  2  0
  4  5  1  0
  5  6  2  0
  6  7  1  0
  7  8  1  0
  8  9  2  0
  9 10  1  0
 10 11  1  0
 11 12  1  0
 12 13  2  0
 13 14  1  0
 13 15  1  0
 15 16  2  0
 16 17  1  0
 17 18  2  0
 18 19  1  0
 19 20  1  0
 19 21  1  0
 19 22  1  0
 10 23  1  0
 23 24  2  0
 23 25  1  0
 25 26  1  0
 26 27  1  0
 27 28  1  0
 28 29  1  0
 29 30  1  0
 30 31  1  0
 31 32  1  0
 32 33  2  0
 32 34  1  0
 27 35  1  0
 35 36  2  0
 36 37  1  0
 37 38  2  0
 38 39  1  0
 39 40  2  0
 25 41  1  0
 41 42  2  0
  7 43  2  0
 43 44  1  0
 43  3  1  0
 41  8  1  0
 18 12  1  0
 40 35  1  0
  1 45  1  0
  1 46  1  0
  1 47  1  0
  4 48  1  0
  5 49  1  0
  6 50  1  0
  9 51  1  0
 11 52  1  0
 11 53  1  0
 15 54  1  0
 16 55  1  0
 17 56  1  0
 26 57  1  0
 26 58  1  0
 27 59  1  6
 28 60  1  0
 29 61  1  0
 29 62  1  0
 30 63  1  0
 30 64  1  0
 31 65  1  0
 31 66  1  0
 34 67  1  0
 36 68  1  0
 37 69  1  0
 38 70  1  0
 39 71  1  0
 40 72  1  0
M  END
$$$$
