@<TRIPOS>MOLECULE
*****
 72 75 0 0 0
SMALL
GASTEIGER

@<TRIPOS>ATOM
      1 C          -3.4812    6.3379   -1.3267 C.3     1  UNL1        0.0789
      2 O          -2.8253    5.0946   -1.4889 O.3     1  UNL1       -0.4922
      3 C          -2.8866    4.1892   -0.4380 C.ar    1  UNL1        0.1557
      4 C          -3.5605    4.4743    0.7335 C.ar    1  UNL1       -0.0170
      5 C          -3.6089    3.5504    1.7766 C.ar    1  UNL1       -0.0575
      6 C          -2.9682    2.3572    1.5982 C.ar    1  UNL1       -0.0508
      7 C          -2.2772    2.0139    0.4483 C.ar    1  UNL1        0.0275
      8 C          -1.5969    0.7332    0.2771 C.ar    1  UNL1        0.0658
      9 C          -2.2735   -0.3466   -0.2885 C.ar    1  UNL1        0.0227
     10 N          -1.6887   -1.5524   -0.4745 N.ar    1  UNL1       -0.2953
     11 C          -2.4037   -2.7073   -0.9927 C.3     1  UNL1        0.0558
     12 C          -3.3383   -3.3638   -0.0800 C.ar    1  UNL1        0.0191
     13 C          -2.9408   -3.9684    1.0672 C.ar    1  UNL1        0.1288
     14 F          -1.6625   -3.9919    1.5218 F       1  UNL1       -0.2051
     15 C          -3.8602   -4.6257    1.8849 C.ar    1  UNL1       -0.0261
     16 C          -5.1861   -4.6682    1.5367 C.ar    1  UNL1       -0.0585
     17 C          -5.5685   -4.0517    0.3722 C.ar    1  UNL1       -0.0496
     18 C          -4.6899   -3.3932   -0.4634 C.ar    1  UNL1        0.0624
     19 C          -5.1824   -2.8016   -1.7356 C.3     1  UNL1        0.4178
     20 F          -6.5678   -3.0418   -1.7946 F       1  UNL1       -0.1659
     21 F          -5.0205   -1.4735   -1.8778 F       1  UNL1       -0.1659
     22 F          -4.6697   -3.5262   -2.8220 F       1  UNL1       -0.1659
     23 C          -0.4070   -1.6857   -0.0938 C.ar    1  UNL1        0.3323
     24 O           0.1532   -2.8206   -0.2770 O.2     1  UNL1       -0.2462
     25 N           0.3102   -0.6689    0.4657 N.ar    1  UNL1       -0.2585
     26 C           1.6359   -1.0141    0.8946 C.3     1  UNL1        0.0505
     27 C           2.6413   -1.1404   -0.1187 C.3     1  UNL1        0.0513
     28 N           3.9714   -1.4999    0.3262 N.3     1  UNL1       -0.3079
     29 C           4.5840   -0.7810    1.3491 C.3     1  UNL1       -0.0030
     30 C           4.9770    0.6351    1.0252 C.3     1  UNL1       -0.0304
     31 C           5.6250    1.3629    2.1514 C.3     1  UNL1        0.0459
     32 C           6.8632    0.8232    2.6727 C.2     1  UNL1        0.3047
     33 O           7.4302   -0.1909    2.2194 O.2     1  UNL1       -0.2510
     34 O           7.4649    1.4683    3.7438 O.3     1  UNL1       -0.4806
     35 C           2.7888   -0.3521   -1.3298 C.ar    1  UNL1       -0.0288
     36 C           3.4822   -1.0364   -2.3765 C.ar    1  UNL1       -0.0570
     37 C           3.7406   -0.4618   -3.5727 C.ar    1  UNL1       -0.0615
     38 C           3.3276    0.8232   -3.8031 C.ar    1  UNL1       -0.0617
     39 C           2.6560    1.5073   -2.8099 C.ar    1  UNL1       -0.0615
     40 C           2.3927    0.9212   -1.5878 C.ar    1  UNL1       -0.0570
     41 C          -0.2881    0.5127    0.6430 C.ar    1  UNL1        0.2644
     42 O           0.3557    1.4627    1.1679 O.2     1  UNL1       -0.2668
     43 C          -2.2571    2.9646   -0.5600 C.ar    1  UNL1        0.1726
     44 F          -1.6065    2.7229   -1.7320 F       1  UNL1       -0.2010
     45 H          -3.2452    7.0401   -2.1532 H       1  UNL1        0.0660
     46 H          -4.5942    6.2153   -1.3241 H       1  UNL1        0.0660
     47 H          -3.2290    6.8299   -0.3629 H       1  UNL1        0.0660
     48 H          -4.0676    5.4344    0.8592 H       1  UNL1        0.0655
     49 H          -4.1495    3.8335    2.6601 H       1  UNL1        0.0619
     50 H          -3.0144    1.6389    2.4281 H       1  UNL1        0.0625
     51 H          -3.2836   -0.1679   -0.5636 H       1  UNL1        0.0818
     52 H          -1.6441   -3.4438   -1.3503 H       1  UNL1        0.0544
     53 H          -2.9022   -2.3466   -1.9194 H       1  UNL1        0.0544
     54 H          -3.5171   -5.1025    2.7971 H       1  UNL1        0.0646
     55 H          -5.8905   -5.1917    2.1987 H       1  UNL1        0.0619
     56 H          -6.6309   -4.0845    0.0914 H       1  UNL1        0.0623
     57 H           1.5021   -1.9773    1.4608 H       1  UNL1        0.0513
     58 H           1.8630   -0.2877    1.7283 H       1  UNL1        0.0513
     59 H           2.3523   -2.2137   -0.5993 H       1  UNL1        0.0528
     60 H           4.6384   -1.7104   -0.4177 H       1  UNL1        0.1226
     61 H           5.5665   -1.3152    1.5502 H       1  UNL1        0.0424
     62 H           4.0896   -0.8549    2.3503 H       1  UNL1        0.0424
     63 H           5.7222    0.5563    0.1801 H       1  UNL1        0.0283
     64 H           4.1408    1.2326    0.6154 H       1  UNL1        0.0283
     65 H           5.8488    2.4077    1.7803 H       1  UNL1        0.0378
     66 H           4.8704    1.4535    2.9832 H       1  UNL1        0.0378
     67 H           8.1224    1.0525    4.3724 H       1  UNL1        0.2951
     68 H           3.8185   -2.0526   -2.2282 H       1  UNL1        0.0621
     69 H           4.2737   -0.9965   -4.3679 H       1  UNL1        0.0618
     70 H           3.5283    1.2872   -4.7520 H       1  UNL1        0.0618
     71 H           2.3503    2.5104   -3.0325 H       1  UNL1        0.0618
     72 H           1.8971    1.4626   -0.8165 H       1  UNL1        0.0621
@<TRIPOS>BOND
     1     1     2    1
     2     2     3    1
     3     3     4   ar
     4     4     5   ar
     5     5     6   ar
     6     6     7   ar
     7     7     8    1
     8     8     9   ar
     9     9    10   ar
    10    10    11    1
    11    11    12    1
    12    12    13   ar
    13    13    14    1
    14    13    15   ar
    15    15    16   ar
    16    16    17   ar
    17    17    18   ar
    18    18    19    1
    19    19    20    1
    20    19    21    1
    21    19    22    1
    22    10    23   ar
    23    23    24    2
    24    23    25   ar
    25    25    26    1
    26    26    27    1
    27    27    28    1
    28    28    29    1
    29    29    30    1
    30    30    31    1
    31    31    32    1
    32    32    33    2
    33    32    34    1
    34    27    35    1
    35    35    36   ar
    36    36    37   ar
    37    37    38   ar
    38    38    39   ar
    39    39    40   ar
    40    25    41   ar
    41    41    42    2
    42     7    43   ar
    43    43    44    1
    44    43     3   ar
    45    41     8   ar
    46    18    12   ar
    47    40    35   ar
    48     1    45    1
    49     1    46    1
    50     1    47    1
    51     4    48    1
    52     5    49    1
    53     6    50    1
    54     9    51    1
    55    11    52    1
    56    11    53    1
    57    15    54    1
    58    16    55    1
    59    17    56    1
    60    26    57    1
    61    26    58    1
    62    27    59    1
    63    28    60    1
    64    29    61    1
    65    29    62    1
    66    30    63    1
    67    30    64    1
    68    31    65    1
    69    31    66    1
    70    34    67    1
    71    36    68    1
    72    37    69    1
    73    38    70    1
    74    39    71    1
    75    40    72    1
