@<TRIPOS>MOLECULE
*****
 37 39 0 0 0
SMALL
GASTEIGER

@<TRIPOS>ATOM
      1 C          -5.8346    1.2025   -2.4350 C.3     1  UNL1        0.0004
      2 N          -5.2155    0.4559   -1.3666 N.am    1  UNL1       -0.3143
      3 C          -3.9433    0.8048   -0.8094 C.2     1  UNL1        0.2464
      4 O          -3.3826    1.8068   -1.3024 O.2     1  UNL1       -0.2701
      5 C          -3.4044    0.0008    0.2552 C.ar    1  UNL1        0.0691
      6 C          -4.1639   -0.6211    1.2218 C.ar    1  UNL1        0.0429
      7 N          -3.4593   -1.3284    2.1283 N.ar    1  UNL1       -0.2393
      8 C          -2.1472   -1.4706    2.1672 C.ar    1  UNL1        0.1245
      9 N          -1.6030   -2.2633    3.2116 N.pl3   1  UNL1       -0.3426
     10 C          -1.3222   -0.8527    1.1987 C.ar    1  UNL1        0.0300
     11 C           0.0172   -0.9004    1.1018 C.ar    1  UNL1       -0.0359
     12 C           0.6284   -0.2374    0.0968 C.ar    1  UNL1        0.0206
     13 C           2.0241   -0.0992   -0.2660 C.ar    1  UNL1       -0.0110
     14 C           2.9711   -0.7264    0.5042 C.ar    1  UNL1       -0.0501
     15 C           4.3329   -0.6306    0.2072 C.ar    1  UNL1       -0.0190
     16 C           4.7213    0.1120   -0.8843 C.ar    1  UNL1        0.1300
     17 O           6.0938    0.2022   -1.1742 O.3     1  UNL1       -0.4057
     18 C           6.7964    1.2682   -0.5769 C.3     1  UNL1        0.5752
     19 F           6.6802    1.1230    0.7873 F       1  UNL1       -0.1328
     20 F           6.3060    2.4873   -1.0042 F       1  UNL1       -0.1328
     21 F           8.1336    1.1986   -0.9781 F       1  UNL1       -0.1328
     22 C           3.7723    0.7420   -1.6584 C.ar    1  UNL1       -0.0190
     23 C           2.4086    0.6439   -1.3580 C.ar    1  UNL1       -0.0501
     24 S          -0.7438    0.5179   -0.7961 S.2     1  UNL1       -0.0873
     25 C          -2.0028   -0.1378    0.2781 C.ar    1  UNL1        0.0367
     26 H          -6.9180    0.9734   -2.4286 H       1  UNL1        0.0426
     27 H          -5.7142    2.2991   -2.3083 H       1  UNL1        0.0426
     28 H          -5.4036    0.8751   -3.4149 H       1  UNL1        0.0426
     29 H          -5.7162   -0.3725   -0.9852 H       1  UNL1        0.1487
     30 H          -5.2238   -0.5094    1.1952 H       1  UNL1        0.0838
     31 H          -0.9432   -1.8456    3.9326 H       1  UNL1        0.1437
     32 H          -1.8743   -3.2672    3.2443 H       1  UNL1        0.1437
     33 H           0.6809   -1.4688    1.8187 H       1  UNL1        0.0636
     34 H           2.6551   -1.2979    1.3460 H       1  UNL1        0.0625
     35 H           5.0533   -1.1370    0.8336 H       1  UNL1        0.0654
     36 H           4.0865    1.3198   -2.5092 H       1  UNL1        0.0654
     37 H           1.6542    1.1331   -1.9575 H       1  UNL1        0.0625
@<TRIPOS>BOND
     1     1     2    1
     2     2     3   am
     3     3     4    2
     4     3     5    1
     5     5     6   ar
     6     6     7   ar
     7     7     8   ar
     8     8     9    1
     9     8    10   ar
    10    10    11   ar
    11    11    12   ar
    12    12    13    1
    13    13    14   ar
    14    14    15   ar
    15    15    16   ar
    16    16    17    1
    17    17    18    1
    18    18    19    1
    19    18    20    1
    20    18    21    1
    21    16    22   ar
    22    22    23   ar
    23    12    24   ar
    24    24    25   ar
    25    25     5   ar
    26    25    10   ar
    27    23    13   ar
    28     1    26    1
    29     1    27    1
    30     1    28    1
    31     2    29    1
    32     6    30    1
    33     9    31    1
    34     9    32    1
    35    11    33    1
    36    14    34    1
    37    15    35    1
    38    22    36    1
    39    23    37    1
