
     RDKit          3D

 37 39  0  0  0  0  0  0  0  0999 V2000
   -5.8346    1.2025   -2.4350 C   0  0  0  0  0  0  0  0  0  0  0  0
   -5.2155    0.4559   -1.3666 N   0  0  0  0  0  0  0  0  0  0  0  0
   -3.9433    0.8048   -0.8094 C   0  0  0  0  0  0  0  0  0  0  0  0
   -3.3826    1.8068   -1.3024 O   0  0  0  0  0  0  0  0  0  0  0  0
   -3.4044    0.0008    0.2552 C   0  0  0  0  0  0  0  0  0  0  0  0
   -4.1639   -0.6211    1.2218 C   0  0  0  0  0  0  0  0  0  0  0  0
   -3.4593   -1.3284    2.1283 N   0  0  0  0  0  0  0  0  0  0  0  0
   -2.1472   -1.4706    2.1672 C   0  0  0  0  0  0  0  0  0  0  0  0
   -1.6030   -2.2633    3.2116 N   0  0  0  0  0  0  0  0  0  0  0  0
   -1.3222   -0.8527    1.1987 C   0  0  0  0  0  0  0  0  0  0  0  0
    0.0172   -0.9004    1.1018 C   0  0  0  0  0  0  0  0  0  0  0  0
    0.6284   -0.2374    0.0968 C   0  0  0  0  0  0  0  0  0  0  0  0
    2.0241   -0.0992   -0.2660 C   0  0  0  0  0  0  0  0  0  0  0  0
    2.9711   -0.7264    0.5042 C   0  0  0  0  0  0  0  0  0  0  0  0
    4.3329   -0.6306    0.2072 C   0  0  0  0  0  0  0  0  0  0  0  0
    4.7213    0.1120   -0.8843 C   0  0  0  0  0  0  0  0  0  0  0  0
    6.0938    0.2022   -1.1742 O   0  0  0  0  0  0  0  0  0  0  0  0
    6.7964    1.2682   -0.5769 C   0  0  0  0  0  0  0  0  0  0  0  0
    6.6802    1.1230    0.7873 F   0  0  0  0  0  0  0  0  0  0  0  0
    6.3060    2.4873   -1.0042 F   0  0  0  0  0  0  0  0  0  0  0  0
    8.1336    1.1986   -0.9781 F   0  0  0  0  0  0  0  0  0  0  0  0
    3.7723    0.7420   -1.6584 C   0  0  0  0  0  0  0  0  0  0  0  0
    2.4086    0.6439   -1.3580 C   0  0  0  0  0  0  0  0  0  0  0  0
   -0.7438    0.5179   -0.7961 S   0  0  0  0  0  0  0  0  0  0  0  0
   -2.0028   -0.1378    0.2781 C   0  0  0  0  0  0  0  0  0  0  0  0
   -6.9180    0.9734   -2.4286 H   0  0  0  0  0  0  0  0  0  0  0  0
   -5.7142    2.2991   -2.3083 H   0  0  0  0  0  0  0  0  0  0  0  0
   -5.4036    0.8751   -3.4149 H   0  0  0  0  0  0  0  0  0  0  0  0
   -5.7162   -0.3725   -0.9852 H   0  0  0  0  0  0  0  0  0  0  0  0
   -5.2238   -0.5094    1.1952 H   0  0  0  0  0  0  0  0  0  0  0  0
   -0.9432   -1.8456    3.9326 H   0  0  0  0  0  0  0  0  0  0  0  0
   -1.8743   -3.2672    3.2443 H   0  0  0  0  0  0  0  0  0  0  0  0
    0.6809   -1.4688    1.8187 H   0  0  0  0  0  0  0  0  0  0  0  0
    2.6551   -1.2979    1.3460 H   0  0  0  0  0  0  0  0  0  0  0  0
    5.0533   -1.1370    0.8336 H   0  0  0  0  0  0  0  0  0  0  0  0
    4.0865    1.3198   -2.5092 H   0  0  0  0  0  0  0  0  0  0  0  0
    1.6542    1.1331   -1.9575 H   0  0  0  0  0  0  0  0  0  0  0  0
  1  2  1  0
  2  3  1  0
  3  4  2  0
  3  5  1  0
  5  6  2  0
  6  7  1  0
  7  8  2  0
  8  9  1  0
  8 10  1  0
 10 11  1  0
 11 12  2  0
 12 13  1  0
 13 14  2  0
 14 15  1  0
 15 16  2  0
 16 17  1  0
 17 18  1  0
 18 19  1  0
 18 20  1  0
 18 21  1  0
 16 22  1  0
 22 23  2  0
 12 24  1  0
 24 25  1  0
 25  5  1  0
 25 10  2  0
 23 13  1  0
  1 26  1  0
  1 27  1  0
  1 28  1  0
  2 29  1  0
  6 30  1  0
  9 31  1  0
  9 32  1  0
 11 33  1  0
 14 34  1  0
 15 35  1  0
 22 36  1  0
 23 37  1  0
M  END
$$$$
