@<TRIPOS>MOLECULE
*****
 49 52 0 0 0
SMALL
GASTEIGER

@<TRIPOS>ATOM
      1 C           6.1588    2.4898   -2.0122 C.3     1  UNL1        0.0365
      2 O           5.5966    2.1808   -0.7975 O.3     1  UNL1       -0.3814
      3 C           4.2879    1.7152   -0.9108 C.3     1  UNL1        0.0645
      4 C           3.6981    1.3844    0.4434 C.3     1  UNL1        0.0552
      5 C           4.4951    0.2211    0.9980 C.3     1  UNL1       -0.0323
      6 C           3.8075   -0.9569    0.3184 C.3     1  UNL1       -0.0370
      7 C           2.5365   -0.3961   -0.2802 C.3     1  UNL1        0.0209
      8 N           2.3617    0.9166    0.2564 N.3     1  UNL1       -0.1713
      9 S           1.4612    0.8370    1.7178 S.O2    1  UNL1        0.0612
     10 O           1.4307    2.1470    2.4380 O.2     1  UNL1       -0.1528
     11 O           2.1934   -0.1392    2.6294 O.2     1  UNL1       -0.1528
     12 C          -0.1336    0.1820    1.4707 C.ar    1  UNL1        0.1063
     13 C          -1.1874    1.0073    1.1403 C.ar    1  UNL1       -0.0335
     14 C          -2.4674    0.5151    0.9398 C.ar    1  UNL1       -0.0377
     15 C          -2.7395   -0.8280    1.0628 C.ar    1  UNL1        0.0477
     16 C          -1.6950   -1.6627    1.3933 C.ar    1  UNL1        0.0502
     17 C          -0.4396   -1.1566    1.5870 C.ar    1  UNL1       -0.0226
     18 C          -2.1965   -3.0205    1.4817 C.2     1  UNL1        0.2496
     19 O          -1.4863   -4.0357    1.7698 O.2     1  UNL1       -0.2817
     20 C          -3.6258   -2.9727    1.1825 C.2     1  UNL1        0.2913
     21 O          -4.4162   -3.9455    1.1581 O.2     1  UNL1       -0.2661
     22 N          -3.9351   -1.5999    0.9256 N.am    1  UNL1       -0.2640
     23 C          -5.2487   -1.1379    0.6104 C.3     1  UNL1        0.0226
     24 C          -5.6238   -1.1519   -0.8283 C.3     1  UNL1       -0.0082
     25 C          -4.8325   -0.3361   -1.7660 C.3     1  UNL1        0.0835
     26 C          -4.6584    1.0958   -1.7465 C.3     1  UNL1        0.0743
     27 O          -5.6422    0.5402   -2.5947 O.3     1  UNL1       -0.3717
     28 H           5.5811    3.2928   -2.5531 H       1  UNL1        0.0523
     29 H           7.1781    2.8857   -1.8175 H       1  UNL1        0.0523
     30 H           6.1776    1.6172   -2.7105 H       1  UNL1        0.0523
     31 H           4.2735    0.7856   -1.5502 H       1  UNL1        0.0576
     32 H           3.6300    2.4461   -1.3990 H       1  UNL1        0.0576
     33 H           3.7680    2.2803    1.0917 H       1  UNL1        0.0502
     34 H           5.5704    0.2851    0.7211 H       1  UNL1        0.0282
     35 H           4.4488    0.1624    2.0936 H       1  UNL1        0.0282
     36 H           4.4659   -1.2719   -0.5335 H       1  UNL1        0.0279
     37 H           3.6148   -1.7866    1.0047 H       1  UNL1        0.0279
     38 H           2.5951   -0.3574   -1.3922 H       1  UNL1        0.0444
     39 H           1.6936   -1.0673   -0.0278 H       1  UNL1        0.0444
     40 H          -1.0467    2.0816    1.0252 H       1  UNL1        0.0638
     41 H          -3.2687    1.1925    0.6958 H       1  UNL1        0.0637
     42 H           0.4145   -1.8011    1.8535 H       1  UNL1        0.0645
     43 H          -6.0087   -1.7861    1.1395 H       1  UNL1        0.0469
     44 H          -5.4456   -0.1170    1.0259 H       1  UNL1        0.0469
     45 H          -5.5918   -2.2312   -1.1603 H       1  UNL1        0.0306
     46 H          -6.7247   -0.8890   -0.9011 H       1  UNL1        0.0306
     47 H          -4.1098   -0.9129   -2.3929 H       1  UNL1        0.0619
     48 H          -5.0867    1.7528   -0.9633 H       1  UNL1        0.0586
     49 H          -3.8285    1.5458   -2.2940 H       1  UNL1        0.0586
@<TRIPOS>BOND
     1     1     2    1
     2     2     3    1
     3     3     4    1
     4     4     5    1
     5     5     6    1
     6     6     7    1
     7     7     8    1
     8     8     9    1
     9     9    10    2
    10     9    11    2
    11     9    12    1
    12    12    13   ar
    13    13    14   ar
    14    14    15   ar
    15    15    16   ar
    16    16    17   ar
    17    16    18    1
    18    18    19    2
    19    18    20    1
    20    20    21    2
    21    20    22   am
    22    22    23    1
    23    23    24    1
    24    24    25    1
    25    25    26    1
    26    26    27    1
    27     8     4    1
    28    17    12   ar
    29    27    25    1
    30    22    15    1
    31     1    28    1
    32     1    29    1
    33     1    30    1
    34     3    31    1
    35     3    32    1
    36     4    33    1
    37     5    34    1
    38     5    35    1
    39     6    36    1
    40     6    37    1
    41     7    38    1
    42     7    39    1
    43    13    40    1
    44    14    41    1
    45    17    42    1
    46    23    43    1
    47    23    44    1
    48    24    45    1
    49    24    46    1
    50    25    47    1
    51    26    48    1
    52    26    49    1
