
     RDKit          3D

 49 52  0  0  0  0  0  0  0  0999 V2000
    6.1588    2.4898   -2.0122 C   0  0  0  0  0  0  0  0  0  0  0  0
    5.5966    2.1808   -0.7975 O   0  0  0  0  0  0  0  0  0  0  0  0
    4.2879    1.7152   -0.9108 C   0  0  0  0  0  0  0  0  0  0  0  0
    3.6981    1.3844    0.4434 C   0  0  2  0  0  0  0  0  0  0  0  0
    4.4951    0.2211    0.9980 C   0  0  0  0  0  0  0  0  0  0  0  0
    3.8075   -0.9569    0.3184 C   0  0  0  0  0  0  0  0  0  0  0  0
    2.5365   -0.3961   -0.2802 C   0  0  0  0  0  0  0  0  0  0  0  0
    2.3617    0.9166    0.2564 N   0  0  0  0  0  0  0  0  0  0  0  0
    1.4612    0.8370    1.7178 S   0  0  0  0  0  6  0  0  0  0  0  0
    1.4307    2.1470    2.4380 O   0  0  0  0  0  0  0  0  0  0  0  0
    2.1934   -0.1392    2.6294 O   0  0  0  0  0  0  0  0  0  0  0  0
   -0.1336    0.1820    1.4707 C   0  0  0  0  0  0  0  0  0  0  0  0
   -1.1874    1.0073    1.1403 C   0  0  0  0  0  0  0  0  0  0  0  0
   -2.4674    0.5151    0.9398 C   0  0  0  0  0  0  0  0  0  0  0  0
   -2.7395   -0.8280    1.0628 C   0  0  0  0  0  0  0  0  0  0  0  0
   -1.6950   -1.6627    1.3933 C   0  0  0  0  0  0  0  0  0  0  0  0
   -0.4396   -1.1566    1.5870 C   0  0  0  0  0  0  0  0  0  0  0  0
   -2.1965   -3.0205    1.4817 C   0  0  0  0  0  0  0  0  0  0  0  0
   -1.4863   -4.0357    1.7698 O   0  0  0  0  0  0  0  0  0  0  0  0
   -3.6258   -2.9727    1.1825 C   0  0  0  0  0  0  0  0  0  0  0  0
   -4.4162   -3.9455    1.1581 O   0  0  0  0  0  0  0  0  0  0  0  0
   -3.9351   -1.5999    0.9256 N   0  0  0  0  0  0  0  0  0  0  0  0
   -5.2487   -1.1379    0.6104 C   0  0  0  0  0  0  0  0  0  0  0  0
   -5.6238   -1.1519   -0.8283 C   0  0  0  0  0  0  0  0  0  0  0  0
   -4.8325   -0.3361   -1.7660 C   0  0  0  0  0  0  0  0  0  0  0  0
   -4.6584    1.0958   -1.7465 C   0  0  0  0  0  0  0  0  0  0  0  0
   -5.6422    0.5402   -2.5947 O   0  0  0  0  0  0  0  0  0  0  0  0
    5.5811    3.2928   -2.5531 H   0  0  0  0  0  0  0  0  0  0  0  0
    7.1781    2.8857   -1.8175 H   0  0  0  0  0  0  0  0  0  0  0  0
    6.1776    1.6172   -2.7105 H   0  0  0  0  0  0  0  0  0  0  0  0
    4.2735    0.7856   -1.5502 H   0  0  0  0  0  0  0  0  0  0  0  0
    3.6300    2.4461   -1.3990 H   0  0  0  0  0  0  0  0  0  0  0  0
    3.7680    2.2803    1.0917 H   0  0  0  0  0  0  0  0  0  0  0  0
    5.5704    0.2851    0.7211 H   0  0  0  0  0  0  0  0  0  0  0  0
    4.4488    0.1624    2.0936 H   0  0  0  0  0  0  0  0  0  0  0  0
    4.4659   -1.2719   -0.5335 H   0  0  0  0  0  0  0  0  0  0  0  0
    3.6148   -1.7866    1.0047 H   0  0  0  0  0  0  0  0  0  0  0  0
    2.5951   -0.3574   -1.3922 H   0  0  0  0  0  0  0  0  0  0  0  0
    1.6936   -1.0673   -0.0278 H   0  0  0  0  0  0  0  0  0  0  0  0
   -1.0467    2.0816    1.0252 H   0  0  0  0  0  0  0  0  0  0  0  0
   -3.2687    1.1925    0.6958 H   0  0  0  0  0  0  0  0  0  0  0  0
    0.4145   -1.8011    1.8535 H   0  0  0  0  0  0  0  0  0  0  0  0
   -6.0087   -1.7861    1.1395 H   0  0  0  0  0  0  0  0  0  0  0  0
   -5.4456   -0.1170    1.0259 H   0  0  0  0  0  0  0  0  0  0  0  0
   -5.5918   -2.2312   -1.1603 H   0  0  0  0  0  0  0  0  0  0  0  0
   -6.7247   -0.8890   -0.9011 H   0  0  0  0  0  0  0  0  0  0  0  0
   -4.1098   -0.9129   -2.3929 H   0  0  0  0  0  0  0  0  0  0  0  0
   -5.0867    1.7528   -0.9633 H   0  0  0  0  0  0  0  0  0  0  0  0
   -3.8285    1.5458   -2.2940 H   0  0  0  0  0  0  0  0  0  0  0  0
  1  2  1  0
  2  3  1  0
  3  4  1  0
  4  5  1  0
  5  6  1  0
  6  7  1  0
  7  8  1  0
  8  9  1  0
  9 10  2  0
  9 11  2  0
  9 12  1  0
 12 13  2  0
 13 14  1  0
 14 15  2  0
 15 16  1  0
 16 17  2  0
 16 18  1  0
 18 19  2  0
 18 20  1  0
 20 21  2  0
 20 22  1  0
 22 23  1  0
 23 24  1  0
 24 25  1  0
 25 26  1  0
 26 27  1  0
  8  4  1  0
 17 12  1  0
 27 25  1  0
 22 15  1  0
  1 28  1  0
  1 29  1  0
  1 30  1  0
  3 31  1  0
  3 32  1  0
  4 33  1  1
  5 34  1  0
  5 35  1  0
  6 36  1  0
  6 37  1  0
  7 38  1  0
  7 39  1  0
 13 40  1  0
 14 41  1  0
 17 42  1  0
 23 43  1  0
 23 44  1  0
 24 45  1  0
 24 46  1  0
 25 47  1  0
 26 48  1  0
 26 49  1  0
M  END
$$$$
