@<TRIPOS>MOLECULE
*****
 53 56 0 0 0
SMALL
GASTEIGER

@<TRIPOS>ATOM
      1 N           6.1853    0.1505   -2.2708 N.pl3   1  UNL1       -0.2516
      2 C           6.3107    0.8020   -0.9891 C.cat   1  UNL1        0.3650
      3 N           7.3676    0.8662   -0.2565 N.2     1  UNL1       -0.1143
      4 C           7.0875    1.6161    0.9729 C.3     1  UNL1        0.1330
      5 C           5.5567    1.5575    1.0552 C.3     1  UNL1        0.0948
      6 N           5.2341    1.4805   -0.3570 N.pl3   1  UNL1       -0.2179
      7 C           4.0325    2.0056   -0.9782 C.3     1  UNL1        0.0859
      8 C           2.8700    1.3288   -0.3561 C.ar    1  UNL1       -0.0158
      9 C           2.2705    1.8707    0.7678 C.ar    1  UNL1       -0.0550
     10 C           1.2018    1.2060    1.3015 C.ar    1  UNL1       -0.0493
     11 C           0.6949    0.0177    0.7676 C.ar    1  UNL1        0.0370
     12 C          -0.4408   -0.6014    1.4131 C.2     1  UNL1        0.2483
     13 O          -0.9699   -0.0738    2.4487 O.2     1  UNL1       -0.2699
     14 N          -1.0074   -1.7978    0.9359 N.am    1  UNL1       -0.2808
     15 C          -2.1223   -2.4330    1.5448 C.ar    1  UNL1        0.0459
     16 C          -1.9875   -3.3648    2.5369 C.ar    1  UNL1       -0.0384
     17 C          -3.1103   -3.9739    3.1177 C.ar    1  UNL1       -0.0416
     18 C          -4.3553   -3.6132    2.6669 C.ar    1  UNL1        0.0418
     19 CL         -5.7660   -4.3586    3.3757 Cl      1  UNL1       -0.0835
     20 C          -4.5075   -2.6798    1.6720 C.ar    1  UNL1       -0.0295
     21 C          -3.3837   -2.0921    1.1139 C.ar    1  UNL1        0.0596
     22 C          -3.5225   -1.1183    0.0748 C.2     1  UNL1        0.2511
     23 O          -2.4901   -0.5892   -0.4317 O.2     1  UNL1       -0.2697
     24 N          -4.7789   -0.7152   -0.4181 N.am    1  UNL1       -0.2663
     25 C          -4.8374    0.2701   -1.4652 C.ar    1  UNL1        0.1252
     26 C          -6.0804    0.6468   -1.9299 C.ar    1  UNL1       -0.0201
     27 C          -6.1465    1.5868   -2.9292 C.ar    1  UNL1       -0.0387
     28 C          -4.9580    2.0939   -3.4038 C.ar    1  UNL1        0.0592
     29 CL         -4.9874    3.2841   -4.6662 Cl      1  UNL1       -0.0820
     30 C          -3.7301    1.6944   -2.9158 C.ar    1  UNL1        0.0480
     31 N          -3.6962    0.7825   -1.9479 N.ar    1  UNL1       -0.2387
     32 C           1.3351   -0.4627   -0.3440 C.ar    1  UNL1       -0.0493
     33 C           2.4189    0.1606   -0.9309 C.ar    1  UNL1       -0.0550
     34 H           5.7120   -0.7924   -2.3221 H       1  UNL1        0.2412
     35 H           6.5343    0.5571   -3.1439 H       1  UNL1        0.2412
     36 H           7.3842    2.6647    0.8582 H       1  UNL1        0.0723
     37 H           7.5654    1.0837    1.8018 H       1  UNL1        0.0723
     38 H           5.2764    0.5928    1.5015 H       1  UNL1        0.0667
     39 H           5.1373    2.4305    1.5533 H       1  UNL1        0.0667
     40 H           4.0454    1.8343   -2.0529 H       1  UNL1        0.0685
     41 H           3.9914    3.1112   -0.7792 H       1  UNL1        0.0685
     42 H           2.6340    2.7885    1.2099 H       1  UNL1        0.0621
     43 H           0.7349    1.6282    2.1769 H       1  UNL1        0.0625
     44 H          -0.5587   -2.2299    0.0714 H       1  UNL1        0.1552
     45 H          -1.0006   -3.6241    2.8661 H       1  UNL1        0.0637
     46 H          -3.0130   -4.7078    3.8986 H       1  UNL1        0.0633
     47 H          -5.5268   -2.4236    1.3442 H       1  UNL1        0.0640
     48 H          -5.6573   -1.0981   -0.0584 H       1  UNL1        0.1566
     49 H          -6.9917    0.2088   -1.5140 H       1  UNL1        0.0652
     50 H          -7.0805    1.9351   -3.3476 H       1  UNL1        0.0634
     51 H          -2.7917    2.0866   -3.2817 H       1  UNL1        0.0845
     52 H           1.0008   -1.3647   -0.8026 H       1  UNL1        0.0625
     53 H           2.9166   -0.2276   -1.8084 H       1  UNL1        0.0621
@<TRIPOS>BOND
     1     1     2    1
     2     2     3    2
     3     3     4    1
     4     4     5    1
     5     5     6    1
     6     6     7    1
     7     7     8    1
     8     8     9   ar
     9     9    10   ar
    10    10    11   ar
    11    11    12    1
    12    12    13    2
    13    12    14   am
    14    14    15    1
    15    15    16   ar
    16    16    17   ar
    17    17    18   ar
    18    18    19    1
    19    18    20   ar
    20    20    21   ar
    21    21    22    1
    22    22    23    2
    23    22    24   am
    24    24    25    1
    25    25    26   ar
    26    26    27   ar
    27    27    28   ar
    28    28    29    1
    29    28    30   ar
    30    30    31   ar
    31    11    32   ar
    32    32    33   ar
    33     6     2    1
    34    33     8   ar
    35    21    15   ar
    36    31    25   ar
    37     1    34    1
    38     1    35    1
    39     4    36    1
    40     4    37    1
    41     5    38    1
    42     5    39    1
    43     7    40    1
    44     7    41    1
    45     9    42    1
    46    10    43    1
    47    14    44    1
    48    16    45    1
    49    17    46    1
    50    20    47    1
    51    24    48    1
    52    26    49    1
    53    27    50    1
    54    30    51    1
    55    32    52    1
    56    33    53    1
