@<TRIPOS>MOLECULE
*****
 49 53 0 0 0
SMALL
GASTEIGER

@<TRIPOS>ATOM
      1 C          -1.3648    2.6490   -2.3665 C.3     1  UNL1       -0.0393
      2 C          -1.2331    1.1352   -2.4738 C.3     1  UNL1        0.0834
      3 C          -2.5077    0.5209   -2.0299 C.ar    1  UNL1        0.1542
      4 N          -3.6264    0.1415   -2.7283 N.ar    1  UNL1       -0.1320
      5 N          -4.5221   -0.3476   -1.8884 N.ar    1  UNL1       -0.1275
      6 C          -4.0173   -0.3033   -0.6191 C.ar    1  UNL1        0.1828
      7 C          -4.7379   -0.7560    0.5713 C.ar    1  UNL1        0.1118
      8 C          -4.6694   -2.0783    0.9966 C.ar    1  UNL1       -0.0324
      9 C          -5.3320   -2.5222    2.0934 C.ar    1  UNL1       -0.0546
     10 C          -6.1189   -1.6514    2.8500 C.ar    1  UNL1       -0.0001
     11 C          -6.1811   -0.3478    2.4258 C.ar    1  UNL1        0.2129
     12 O          -6.9635    0.5432    3.1711 O.3     1  UNL1       -0.4924
     13 N          -5.5054    0.0628    1.3198 N.ar    1  UNL1       -0.2099
     14 N          -2.7916    0.2305   -0.7532 N.ar    1  UNL1       -0.3067
     15 C          -1.7984    0.5005    0.2714 C.3     1  UNL1        0.0423
     16 C          -0.4283    0.1147   -0.2982 C.3     1  UNL1        0.0338
     17 N          -0.1581    0.7189   -1.5664 N.am    1  UNL1       -0.2860
     18 C           1.1594    0.9561   -2.0217 C.2     1  UNL1        0.2472
     19 O           1.3809    1.4947   -3.1643 O.2     1  UNL1       -0.2700
     20 C           2.3126    0.5991   -1.2126 C.ar    1  UNL1        0.0370
     21 C           2.5821    1.2921   -0.0352 C.ar    1  UNL1       -0.0490
     22 C           3.7105    0.9580    0.6990 C.ar    1  UNL1       -0.0528
     23 C           4.5623   -0.0310    0.2977 C.ar    1  UNL1       -0.0113
     24 C           5.7546   -0.3436    1.0643 C.ar    1  UNL1        0.0193
     25 C           6.7480   -1.2575    0.9178 C.ar    1  UNL1       -0.0469
     26 C           7.7474   -1.2983    1.8137 C.ar    1  UNL1       -0.0541
     27 C           7.7660   -0.4377    2.8523 C.ar    1  UNL1       -0.0237
     28 S           6.2251    0.5221    2.5358 S.2     1  UNL1       -0.0967
     29 C           4.2995   -0.7081   -0.8498 C.ar    1  UNL1       -0.0528
     30 C           3.1777   -0.4125   -1.6264 C.ar    1  UNL1       -0.0490
     31 H          -0.7269    3.1635   -3.1099 H       1  UNL1        0.0252
     32 H          -2.4619    2.8954   -2.4852 H       1  UNL1        0.0252
     33 H          -1.1091    2.9275   -1.3264 H       1  UNL1        0.0252
     34 H          -1.0220    0.8456   -3.5245 H       1  UNL1        0.0579
     35 H          -4.0494   -2.7255    0.3845 H       1  UNL1        0.0640
     36 H          -5.2923   -3.5436    2.4446 H       1  UNL1        0.0620
     37 H          -6.6575   -1.9566    3.7178 H       1  UNL1        0.0671
     38 H          -7.8003    0.9635    2.7490 H       1  UNL1        0.2937
     39 H          -1.7862    1.5288    0.6143 H       1  UNL1        0.0508
     40 H          -1.9482   -0.1871    1.1450 H       1  UNL1        0.0508
     41 H           0.3621    0.2962    0.4423 H       1  UNL1        0.0482
     42 H          -0.4870   -1.0006   -0.4723 H       1  UNL1        0.0482
     43 H           1.9454    2.0795    0.3258 H       1  UNL1        0.0625
     44 H           3.9373    1.4841    1.6144 H       1  UNL1        0.0624
     45 H           6.7255   -1.9762    0.0387 H       1  UNL1        0.0629
     46 H           8.6010   -2.0524    1.7354 H       1  UNL1        0.0623
     47 H           8.4185   -0.2464    3.6900 H       1  UNL1        0.0693
     48 H           4.9457   -1.5132   -1.2313 H       1  UNL1        0.0624
     49 H           2.9354   -0.9263   -2.5417 H       1  UNL1        0.0625
@<TRIPOS>BOND
     1     1     2    1
     2     2     3    1
     3     3     4   ar
     4     4     5   ar
     5     5     6   ar
     6     6     7    1
     7     7     8   ar
     8     8     9   ar
     9     9    10   ar
    10    10    11   ar
    11    11    12    1
    12    11    13   ar
    13     6    14   ar
    14    14    15    1
    15    15    16    1
    16    16    17    1
    17    17    18   am
    18    18    19    2
    19    18    20    1
    20    20    21   ar
    21    21    22   ar
    22    22    23   ar
    23    23    24    1
    24    24    25   ar
    25    25    26   ar
    26    26    27   ar
    27    27    28   ar
    28    23    29   ar
    29    29    30   ar
    30    17     2    1
    31    30    20   ar
    32    14     3   ar
    33    28    24   ar
    34    13     7   ar
    35     1    31    1
    36     1    32    1
    37     1    33    1
    38     2    34    1
    39     8    35    1
    40     9    36    1
    41    10    37    1
    42    12    38    1
    43    15    39    1
    44    15    40    1
    45    16    41    1
    46    16    42    1
    47    21    43    1
    48    22    44    1
    49    25    45    1
    50    26    46    1
    51    27    47    1
    52    29    48    1
    53    30    49    1
