
     RDKit          3D

 49 53  0  0  0  0  0  0  0  0999 V2000
   -1.3648    2.6490   -2.3665 C   0  0  0  0  0  0  0  0  0  0  0  0
   -1.2331    1.1352   -2.4738 C   0  0  2  0  0  0  0  0  0  0  0  0
   -2.5077    0.5209   -2.0299 C   0  0  0  0  0  0  0  0  0  0  0  0
   -3.6264    0.1415   -2.7283 N   0  0  0  0  0  0  0  0  0  0  0  0
   -4.5221   -0.3476   -1.8884 N   0  0  0  0  0  0  0  0  0  0  0  0
   -4.0173   -0.3033   -0.6191 C   0  0  0  0  0  0  0  0  0  0  0  0
   -4.7379   -0.7560    0.5713 C   0  0  0  0  0  0  0  0  0  0  0  0
   -4.6694   -2.0783    0.9966 C   0  0  0  0  0  0  0  0  0  0  0  0
   -5.3320   -2.5222    2.0934 C   0  0  0  0  0  0  0  0  0  0  0  0
   -6.1189   -1.6514    2.8500 C   0  0  0  0  0  0  0  0  0  0  0  0
   -6.1811   -0.3478    2.4258 C   0  0  0  0  0  0  0  0  0  0  0  0
   -6.9635    0.5432    3.1711 O   0  0  0  0  0  0  0  0  0  0  0  0
   -5.5054    0.0628    1.3198 N   0  0  0  0  0  0  0  0  0  0  0  0
   -2.7916    0.2305   -0.7532 N   0  0  0  0  0  0  0  0  0  0  0  0
   -1.7984    0.5005    0.2714 C   0  0  0  0  0  0  0  0  0  0  0  0
   -0.4283    0.1147   -0.2982 C   0  0  0  0  0  0  0  0  0  0  0  0
   -0.1581    0.7189   -1.5664 N   0  0  0  0  0  0  0  0  0  0  0  0
    1.1594    0.9561   -2.0217 C   0  0  0  0  0  0  0  0  0  0  0  0
    1.3809    1.4947   -3.1643 O   0  0  0  0  0  0  0  0  0  0  0  0
    2.3126    0.5991   -1.2126 C   0  0  0  0  0  0  0  0  0  0  0  0
    2.5821    1.2921   -0.0352 C   0  0  0  0  0  0  0  0  0  0  0  0
    3.7105    0.9580    0.6990 C   0  0  0  0  0  0  0  0  0  0  0  0
    4.5623   -0.0310    0.2977 C   0  0  0  0  0  0  0  0  0  0  0  0
    5.7546   -0.3436    1.0643 C   0  0  0  0  0  0  0  0  0  0  0  0
    6.7480   -1.2575    0.9178 C   0  0  0  0  0  0  0  0  0  0  0  0
    7.7474   -1.2983    1.8137 C   0  0  0  0  0  0  0  0  0  0  0  0
    7.7660   -0.4377    2.8523 C   0  0  0  0  0  0  0  0  0  0  0  0
    6.2251    0.5221    2.5358 S   0  0  0  0  0  0  0  0  0  0  0  0
    4.2995   -0.7081   -0.8498 C   0  0  0  0  0  0  0  0  0  0  0  0
    3.1777   -0.4125   -1.6264 C   0  0  0  0  0  0  0  0  0  0  0  0
   -0.7269    3.1635   -3.1099 H   0  0  0  0  0  0  0  0  0  0  0  0
   -2.4619    2.8954   -2.4852 H   0  0  0  0  0  0  0  0  0  0  0  0
   -1.1091    2.9275   -1.3264 H   0  0  0  0  0  0  0  0  0  0  0  0
   -1.0220    0.8456   -3.5245 H   0  0  0  0  0  0  0  0  0  0  0  0
   -4.0494   -2.7255    0.3845 H   0  0  0  0  0  0  0  0  0  0  0  0
   -5.2923   -3.5436    2.4446 H   0  0  0  0  0  0  0  0  0  0  0  0
   -6.6575   -1.9566    3.7178 H   0  0  0  0  0  0  0  0  0  0  0  0
   -7.8003    0.9635    2.7490 H   0  0  0  0  0  0  0  0  0  0  0  0
   -1.7862    1.5288    0.6143 H   0  0  0  0  0  0  0  0  0  0  0  0
   -1.9482   -0.1871    1.1450 H   0  0  0  0  0  0  0  0  0  0  0  0
    0.3621    0.2962    0.4423 H   0  0  0  0  0  0  0  0  0  0  0  0
   -0.4870   -1.0006   -0.4723 H   0  0  0  0  0  0  0  0  0  0  0  0
    1.9454    2.0795    0.3258 H   0  0  0  0  0  0  0  0  0  0  0  0
    3.9373    1.4841    1.6144 H   0  0  0  0  0  0  0  0  0  0  0  0
    6.7255   -1.9762    0.0387 H   0  0  0  0  0  0  0  0  0  0  0  0
    8.6010   -2.0524    1.7354 H   0  0  0  0  0  0  0  0  0  0  0  0
    8.4185   -0.2464    3.6900 H   0  0  0  0  0  0  0  0  0  0  0  0
    4.9457   -1.5132   -1.2313 H   0  0  0  0  0  0  0  0  0  0  0  0
    2.9354   -0.9263   -2.5417 H   0  0  0  0  0  0  0  0  0  0  0  0
  1  2  1  0
  2  3  1  0
  3  4  2  0
  4  5  1  0
  5  6  2  0
  6  7  1  0
  7  8  2  0
  8  9  1  0
  9 10  2  0
 10 11  1  0
 11 12  1  0
 11 13  2  0
  6 14  1  0
 14 15  1  0
 15 16  1  0
 16 17  1  0
 17 18  1  0
 18 19  2  0
 18 20  1  0
 20 21  2  0
 21 22  1  0
 22 23  2  0
 23 24  1  0
 24 25  2  0
 25 26  1  0
 26 27  2  0
 27 28  1  0
 23 29  1  0
 29 30  2  0
 17  2  1  0
 30 20  1  0
 14  3  1  0
 28 24  1  0
 13  7  1  0
  1 31  1  0
  1 32  1  0
  1 33  1  0
  2 34  1  6
  8 35  1  0
  9 36  1  0
 10 37  1  0
 12 38  1  0
 15 39  1  0
 15 40  1  0
 16 41  1  0
 16 42  1  0
 21 43  1  0
 22 44  1  0
 25 45  1  0
 26 46  1  0
 27 47  1  0
 29 48  1  0
 30 49  1  0
M  END
$$$$
