@<TRIPOS>MOLECULE
*****
 54 55 0 0 0
SMALL
GASTEIGER

@<TRIPOS>ATOM
      1 C          -1.4742   -1.9722   -0.7489 C.3     1  UNL1        0.1244
      2 C          -2.0000   -1.8032    0.6629 C.3     1  UNL1        0.0012
      3 C          -2.5017   -0.4428    0.9127 C.ar    1  UNL1       -0.0443
      4 C          -1.7321    0.5977    1.3925 C.ar    1  UNL1       -0.0585
      5 C          -2.2659    1.8630    1.6081 C.ar    1  UNL1       -0.0607
      6 C          -3.5969    2.1353    1.3501 C.ar    1  UNL1       -0.0469
      7 C          -4.3743    1.1030    0.8706 C.ar    1  UNL1        0.0650
      8 C          -3.8257   -0.1457    0.6633 C.ar    1  UNL1       -0.0436
      9 C          -5.7695    1.4418    0.6149 C.2     1  UNL1        0.3081
     10 N          -7.0023    0.7336    0.6453 N.pl3   1  UNL1       -0.2466
     11 N          -6.1180    2.6354    0.2690 N.2     1  UNL1       -0.0994
     12 N          -0.3832   -1.0451   -0.9788 N.am    1  UNL1       -0.3010
     13 C           0.9135   -1.5591   -1.2528 C.2     1  UNL1        0.2292
     14 O           1.1392   -2.8132   -1.3011 O.2     1  UNL1       -0.2743
     15 C           2.1520   -0.7810   -1.5140 C.3     1  UNL1        0.0938
     16 N           1.8302    0.6195   -1.4453 N.3     1  UNL1       -0.1811
     17 S           3.2089    1.6159   -1.7358 S.O2    1  UNL1        0.0588
     18 O           3.8705    1.3140   -3.0305 O.2     1  UNL1       -0.1530
     19 O           2.8900    3.0620   -1.5962 O.2     1  UNL1       -0.1530
     20 C           4.3623    1.2336   -0.4524 C.ar    1  UNL1        0.1053
     21 C           5.2738    0.2079   -0.6832 C.ar    1  UNL1       -0.0351
     22 C           6.1641   -0.0734    0.3315 C.ar    1  UNL1       -0.0570
     23 C           6.2211    0.5804    1.5526 C.ar    1  UNL1       -0.0503
     24 C           7.2326    0.1775    2.5617 C.3     1  UNL1       -0.0397
     25 C           5.2907    1.5897    1.7231 C.ar    1  UNL1       -0.0570
     26 C           4.3703    1.9278    0.7558 C.ar    1  UNL1       -0.0351
     27 C          -2.5356   -1.8390   -1.7588 C.2     1  UNL1        0.3277
     28 O          -2.5822   -1.0457   -2.7406 O.2     1  UNL1       -0.2487
     29 O          -3.6229   -2.7167   -1.5855 O.3     1  UNL1       -0.4666
     30 C          -4.6859   -2.6274   -2.5444 C.3     1  UNL1        0.0817
     31 H          -1.0474   -2.9918   -0.8398 H       1  UNL1        0.0618
     32 H          -2.8590   -2.5061    0.7976 H       1  UNL1        0.0337
     33 H          -1.2580   -2.0927    1.4077 H       1  UNL1        0.0337
     34 H          -0.6913    0.4177    1.6034 H       1  UNL1        0.0620
     35 H          -1.6200    2.6466    1.9860 H       1  UNL1        0.0618
     36 H          -3.9913    3.1213    1.5235 H       1  UNL1        0.0626
     37 H          -4.5389   -0.8667    0.2857 H       1  UNL1        0.0629
     38 H          -7.4768   -0.0625    0.1638 H       1  UNL1        0.2884
     39 H          -6.6659    0.1021   -0.1400 H       1  UNL1        0.2884
     40 H          -5.4676    3.4396    0.1435 H       1  UNL1        0.3633
     41 H          -0.4537   -0.0048   -0.9632 H       1  UNL1        0.1496
     42 H           2.8874   -1.0476   -0.7195 H       1  UNL1        0.0537
     43 H           2.6216   -1.0671   -2.4691 H       1  UNL1        0.0537
     44 H           1.4559    0.8721   -0.5206 H       1  UNL1        0.1485
     45 H           5.3071   -0.3620   -1.6077 H       1  UNL1        0.0637
     46 H           6.8789   -0.8683    0.1668 H       1  UNL1        0.0621
     47 H           6.9579   -0.8237    2.9795 H       1  UNL1        0.0278
     48 H           7.1372    0.8853    3.4104 H       1  UNL1        0.0278
     49 H           8.2406    0.1211    2.1276 H       1  UNL1        0.0278
     50 H           5.3155    2.1154    2.6696 H       1  UNL1        0.0621
     51 H           3.6522    2.7194    0.9093 H       1  UNL1        0.0637
     52 H          -4.7285   -1.5743   -2.9400 H       1  UNL1        0.0661
     53 H          -4.4432   -3.2661   -3.4197 H       1  UNL1        0.0661
     54 H          -5.6618   -2.8799   -2.1249 H       1  UNL1        0.0661
@<TRIPOS>BOND
     1     1     2    1
     2     2     3    1
     3     3     4   ar
     4     4     5   ar
     5     5     6   ar
     6     6     7   ar
     7     7     8   ar
     8     7     9    1
     9     9    10    1
    10     9    11    2
    11     1    12    1
    12    12    13   am
    13    13    14    2
    14    13    15    1
    15    15    16    1
    16    16    17    1
    17    17    18    2
    18    17    19    2
    19    17    20    1
    20    20    21   ar
    21    21    22   ar
    22    22    23   ar
    23    23    24    1
    24    23    25   ar
    25    25    26   ar
    26     1    27    1
    27    27    28    2
    28    27    29    1
    29    29    30    1
    30     8     3   ar
    31    26    20   ar
    32     1    31    1
    33     2    32    1
    34     2    33    1
    35     4    34    1
    36     5    35    1
    37     6    36    1
    38     8    37    1
    39    10    38    1
    40    10    39    1
    41    11    40    1
    42    12    41    1
    43    15    42    1
    44    15    43    1
    45    16    44    1
    46    21    45    1
    47    22    46    1
    48    24    47    1
    49    24    48    1
    50    24    49    1
    51    25    50    1
    52    26    51    1
    53    30    52    1
    54    30    53    1
    55    30    54    1
