
     RDKit          3D

 51 54  0  0  0  0  0  0  0  0999 V2000
    5.7503    2.6745    1.5303 O   0  0  0  0  0  0  0  0  0  0  0  0
    6.5601    1.8453    0.8056 C   0  0  0  0  0  0  0  0  0  0  0  0
    7.5556    2.5990    1.0589 O   0  0  0  0  0  0  0  0  0  0  0  0
    6.5760    0.6192    0.0104 C   0  0  0  0  0  0  0  0  0  0  0  0
    5.4559   -0.1438   -0.2197 C   0  0  0  0  0  0  0  0  0  0  0  0
    4.2101    0.2455    0.3236 N   0  0  0  0  0  0  0  0  0  0  0  0
    2.9461   -0.3663    0.2247 C   0  0  0  0  0  0  0  0  0  0  0  0
    2.8674   -1.4268   -0.4417 O   0  0  0  0  0  0  0  0  0  0  0  0
    1.7359    0.1489    0.8409 C   0  0  0  0  0  0  0  0  0  0  0  0
    1.6314    1.2948    1.6052 C   0  0  0  0  0  0  0  0  0  0  0  0
    0.4808    1.7490    2.1681 C   0  0  0  0  0  0  0  0  0  0  0  0
   -0.6918    1.0465    1.9895 C   0  0  0  0  0  0  0  0  0  0  0  0
   -0.6572   -0.1127    1.2331 C   0  0  0  0  0  0  0  0  0  0  0  0
    0.5363   -0.5151    0.6935 C   0  0  0  0  0  0  0  0  0  0  0  0
   -2.0924   -1.0618    0.9568 S   0  0  0  0  0  0  0  0  0  0  0  0
   -3.0030   -0.9447    2.1641 O   0  0  0  0  0  0  0  0  0  0  0  0
   -1.7355   -2.5082    0.8258 O   0  0  0  0  0  0  0  0  0  0  0  0
   -2.9318   -0.5621   -0.4639 N   0  0  0  0  0  0  0  0  0  0  0  0
   -3.3842    0.7976   -0.3857 C   0  0  0  0  0  0  0  0  0  0  0  0
   -4.4734    1.0232   -1.4218 C   0  0  0  0  0  0  0  0  0  0  0  0
   -5.6687    0.2874   -0.8750 C   0  0  0  0  0  0  0  0  0  0  0  0
   -6.9360    0.8088   -0.6855 C   0  0  0  0  0  0  0  0  0  0  0  0
   -7.8921   -0.0545   -0.1657 C   0  0  0  0  0  0  0  0  0  0  0  0
   -7.5830   -1.3523    0.1391 C   0  0  0  0  0  0  0  0  0  0  0  0
   -6.3204   -1.8629   -0.0524 C   0  0  0  0  0  0  0  0  0  0  0  0
   -5.3373   -1.0185   -0.5739 C   0  0  0  0  0  0  0  0  0  0  0  0
   -3.9555   -1.4962   -0.8078 C   0  0  0  0  0  0  0  0  0  0  0  0
    5.6954   -1.2536   -0.9922 C   0  0  0  0  0  0  0  0  0  0  0  0
    6.9274   -1.5894   -1.4976 C   0  0  0  0  0  0  0  0  0  0  0  0
    8.0194   -0.7935   -1.2398 C   0  0  0  0  0  0  0  0  0  0  0  0
    7.8245    0.3196   -0.4755 C   0  0  0  0  0  0  0  0  0  0  0  0
    5.5714    2.5173    2.4974 H   0  0  0  0  0  0  0  0  0  0  0  0
    4.1739    1.1158    0.8941 H   0  0  0  0  0  0  0  0  0  0  0  0
    2.5226    1.8762    1.7716 H   0  0  0  0  0  0  0  0  0  0  0  0
    0.4391    2.6447    2.7561 H   0  0  0  0  0  0  0  0  0  0  0  0
   -1.6606    1.3129    2.3886 H   0  0  0  0  0  0  0  0  0  0  0  0
    0.5383   -1.4380    0.0973 H   0  0  0  0  0  0  0  0  0  0  0  0
   -3.8438    0.9399    0.6094 H   0  0  0  0  0  0  0  0  0  0  0  0
   -2.5772    1.5136   -0.6019 H   0  0  0  0  0  0  0  0  0  0  0  0
   -4.1649    0.5066   -2.3398 H   0  0  0  0  0  0  0  0  0  0  0  0
   -4.6816    2.1019   -1.5650 H   0  0  0  0  0  0  0  0  0  0  0  0
   -7.0526    1.8473   -0.9651 H   0  0  0  0  0  0  0  0  0  0  0  0
   -8.8734    0.3787   -0.0278 H   0  0  0  0  0  0  0  0  0  0  0  0
   -8.3718   -1.9919    0.5462 H   0  0  0  0  0  0  0  0  0  0  0  0
   -6.0880   -2.9013    0.1956 H   0  0  0  0  0  0  0  0  0  0  0  0
   -3.8785   -1.8647   -1.8562 H   0  0  0  0  0  0  0  0  0  0  0  0
   -3.8351   -2.4179   -0.1831 H   0  0  0  0  0  0  0  0  0  0  0  0
    4.9118   -1.9234   -1.2410 H   0  0  0  0  0  0  0  0  0  0  0  0
    7.0759   -2.4676   -2.0993 H   0  0  0  0  0  0  0  0  0  0  0  0
    8.9843   -1.0668   -1.6422 H   0  0  0  0  0  0  0  0  0  0  0  0
    8.7000    0.9197   -0.2933 H   0  0  0  0  0  0  0  0  0  0  0  0
  1  2  1  0
  2  3  2  0
  2  4  1  0
  4  5  2  0
  5  6  1  0
  6  7  1  0
  7  8  2  0
  7  9  1  0
  9 10  2  0
 10 11  1  0
 11 12  2  0
 12 13  1  0
 13 14  2  0
 13 15  1  0
 15 16  2  0
 15 17  2  0
 15 18  1  0
 18 19  1  0
 19 20  1  0
 20 21  1  0
 21 22  2  0
 22 23  1  0
 23 24  2  0
 24 25  1  0
 25 26  2  0
 26 27  1  0
  5 28  1  0
 28 29  2  0
 29 30  1  0
 30 31  2  0
 31  4  1  0
 14  9  1  0
 27 18  1  0
 26 21  1  0
  1 32  1  0
  6 33  1  0
 10 34  1  0
 11 35  1  0
 12 36  1  0
 14 37  1  0
 19 38  1  0
 19 39  1  0
 20 40  1  0
 20 41  1  0
 22 42  1  0
 23 43  1  0
 24 44  1  0
 25 45  1  0
 27 46  1  0
 27 47  1  0
 28 48  1  0
 29 49  1  0
 30 50  1  0
 31 51  1  0
M  END
$$$$
