@<TRIPOS>MOLECULE
*****
 61 63 0 0 0
SMALL
GASTEIGER

@<TRIPOS>ATOM
      1 C          -5.1541   -3.4447   -3.1034 C.3     1  UNL1       -0.0637
      2 C          -4.1925   -2.8306   -2.0762 C.3     1  UNL1       -0.0377
      3 C          -5.0462   -2.1356   -1.0696 C.3     1  UNL1        0.0275
      4 N          -4.2676   -1.4966   -0.0225 N.ar    1  UNL1       -0.2954
      5 C          -3.8832   -2.0233    1.1453 C.ar    1  UNL1        0.0691
      6 C          -3.1710   -1.0623    1.8266 C.ar    1  UNL1        0.2138
      7 O          -2.5970   -1.2371    3.1023 O.3     1  UNL1       -0.4924
      8 N          -3.1148    0.0465    1.0905 N.ar    1  UNL1       -0.2591
      9 C          -2.4753    1.2966    1.4124 C.3     1  UNL1        0.0584
     10 C          -1.4179    1.1528    2.4834 C.3     1  UNL1       -0.0047
     11 C          -0.4591    2.2999    2.1703 C.3     1  UNL1        0.1117
     12 C          -0.4825    3.3373    3.2187 C.2     1  UNL1        0.2544
     13 O          -0.2550    3.0691    4.4240 O.2     1  UNL1       -0.2719
     14 N          -0.7669    4.6918    2.8964 N.am    1  UNL1       -0.1961
     15 O          -0.8014    5.6838    3.8211 O.3     1  UNL1       -0.2951
     16 N          -0.7434    2.7886    0.8668 N.3     1  UNL1       -0.1626
     17 S           0.5890    3.1821   -0.1011 S.O2    1  UNL1        0.0616
     18 O           0.0785    3.6720   -1.4450 O.2     1  UNL1       -0.1528
     19 O           1.4480    4.2573    0.4662 O.2     1  UNL1       -0.1528
     20 C           1.6085    1.7956   -0.4105 C.ar    1  UNL1        0.1057
     21 C           2.6348    1.4367    0.4282 C.ar    1  UNL1       -0.0319
     22 C           3.4388    0.3251    0.1496 C.ar    1  UNL1       -0.0181
     23 C           3.2467   -0.4600   -0.9682 C.ar    1  UNL1        0.1207
     24 O           3.9738   -1.5543   -1.3234 O.3     1  UNL1       -0.4897
     25 C           5.0447   -2.1935   -0.7697 C.3     1  UNL1        0.1128
     26 C           6.3203   -1.4273   -0.6305 C.3     1  UNL1        0.0813
     27 O           6.8188   -0.9724   -1.8404 O.3     1  UNL1       -0.3796
     28 C           7.1102   -1.9595   -2.7557 C.3     1  UNL1        0.0366
     29 C           2.1926   -0.0769   -1.8127 C.ar    1  UNL1       -0.0181
     30 C           1.4077    1.0164   -1.5311 C.ar    1  UNL1       -0.0319
     31 C          -1.6961    1.8926    0.2506 C.3     1  UNL1        0.0424
     32 C          -3.7928   -0.2331   -0.0449 C.ar    1  UNL1        0.3323
     33 O          -3.9884    0.5427   -1.0276 O.2     1  UNL1       -0.2462
     34 H          -4.7574   -3.2620   -4.1211 H       1  UNL1        0.0230
     35 H          -6.1495   -2.9511   -3.0604 H       1  UNL1        0.0230
     36 H          -5.2456   -4.5431   -2.8933 H       1  UNL1        0.0230
     37 H          -3.5062   -2.1180   -2.5404 H       1  UNL1        0.0280
     38 H          -3.6429   -3.6557   -1.5495 H       1  UNL1        0.0280
     39 H          -5.8166   -2.8229   -0.6353 H       1  UNL1        0.0493
     40 H          -5.6484   -1.3479   -1.5899 H       1  UNL1        0.0493
     41 H          -4.1102   -3.0300    1.4607 H       1  UNL1        0.0864
     42 H          -2.8437   -2.0648    3.6519 H       1  UNL1        0.2937
     43 H          -3.2467    1.9905    1.8027 H       1  UNL1        0.0544
     44 H          -1.8014    1.2030    3.5036 H       1  UNL1        0.0306
     45 H          -0.9316    0.1729    2.3156 H       1  UNL1        0.0306
     46 H           0.5614    1.8318    2.1331 H       1  UNL1        0.0577
     47 H          -0.9572    4.9315    1.8992 H       1  UNL1        0.1822
     48 H          -0.8262    5.2237    4.7008 H       1  UNL1        0.2414
     49 H           2.8191    2.0344    1.3270 H       1  UNL1        0.0638
     50 H           4.2176    0.0811    0.8355 H       1  UNL1        0.0655
     51 H           5.2556   -3.1086   -1.3965 H       1  UNL1        0.0720
     52 H           4.8008   -2.6319    0.2511 H       1  UNL1        0.0720
     53 H           7.1270   -2.1300   -0.2397 H       1  UNL1        0.0593
     54 H           6.3018   -0.5856    0.0624 H       1  UNL1        0.0593
     55 H           7.5027   -1.4428   -3.6753 H       1  UNL1        0.0524
     56 H           6.2366   -2.5600   -3.0815 H       1  UNL1        0.0524
     57 H           7.9395   -2.6269   -2.4466 H       1  UNL1        0.0524
     58 H           2.0066   -0.6714   -2.7090 H       1  UNL1        0.0655
     59 H           0.5829    1.3232   -2.1828 H       1  UNL1        0.0638
     60 H          -2.3733    2.3586   -0.4577 H       1  UNL1        0.0465
     61 H          -1.1021    1.0640   -0.1845 H       1  UNL1        0.0465
@<TRIPOS>BOND
     1     1     2    1
     2     2     3    1
     3     3     4    1
     4     4     5   ar
     5     5     6   ar
     6     6     7    1
     7     6     8   ar
     8     8     9    1
     9     9    10    1
    10    10    11    1
    11    11    12    1
    12    12    13    2
    13    12    14   am
    14    14    15    1
    15    11    16    1
    16    16    17    1
    17    17    18    2
    18    17    19    2
    19    17    20    1
    20    20    21   ar
    21    21    22   ar
    22    22    23   ar
    23    23    24    1
    24    24    25    1
    25    25    26    1
    26    26    27    1
    27    27    28    1
    28    23    29   ar
    29    29    30   ar
    30    16    31    1
    31     8    32   ar
    32    32    33    2
    33    32     4   ar
    34    31     9    1
    35    30    20   ar
    36     1    34    1
    37     1    35    1
    38     1    36    1
    39     2    37    1
    40     2    38    1
    41     3    39    1
    42     3    40    1
    43     5    41    1
    44     7    42    1
    45     9    43    1
    46    10    44    1
    47    10    45    1
    48    11    46    1
    49    14    47    1
    50    15    48    1
    51    21    49    1
    52    22    50    1
    53    25    51    1
    54    25    52    1
    55    26    53    1
    56    26    54    1
    57    28    55    1
    58    28    56    1
    59    28    57    1
    60    29    58    1
    61    30    59    1
    62    31    60    1
    63    31    61    1
