
     RDKit          3D

 61 63  0  0  0  0  0  0  0  0999 V2000
   -5.1541   -3.4447   -3.1034 C   0  0  0  0  0  0  0  0  0  0  0  0
   -4.1925   -2.8306   -2.0762 C   0  0  0  0  0  0  0  0  0  0  0  0
   -5.0462   -2.1356   -1.0696 C   0  0  0  0  0  0  0  0  0  0  0  0
   -4.2676   -1.4966   -0.0225 N   0  0  0  0  0  0  0  0  0  0  0  0
   -3.8832   -2.0233    1.1453 C   0  0  0  0  0  0  0  0  0  0  0  0
   -3.1710   -1.0623    1.8266 C   0  0  0  0  0  0  0  0  0  0  0  0
   -2.5970   -1.2371    3.1023 O   0  0  0  0  0  0  0  0  0  0  0  0
   -3.1148    0.0465    1.0905 N   0  0  0  0  0  0  0  0  0  0  0  0
   -2.4753    1.2966    1.4124 C   0  0  1  0  0  0  0  0  0  0  0  0
   -1.4179    1.1528    2.4834 C   0  0  0  0  0  0  0  0  0  0  0  0
   -0.4591    2.2999    2.1703 C   0  0  2  0  0  0  0  0  0  0  0  0
   -0.4825    3.3373    3.2187 C   0  0  0  0  0  0  0  0  0  0  0  0
   -0.2550    3.0691    4.4240 O   0  0  0  0  0  0  0  0  0  0  0  0
   -0.7669    4.6918    2.8964 N   0  0  0  0  0  0  0  0  0  0  0  0
   -0.8014    5.6838    3.8211 O   0  0  0  0  0  0  0  0  0  0  0  0
   -0.7434    2.7886    0.8668 N   0  0  0  0  0  0  0  0  0  0  0  0
    0.5890    3.1821   -0.1011 S   0  0  0  0  0  6  0  0  0  0  0  0
    0.0785    3.6720   -1.4450 O   0  0  0  0  0  0  0  0  0  0  0  0
    1.4480    4.2573    0.4662 O   0  0  0  0  0  0  0  0  0  0  0  0
    1.6085    1.7956   -0.4105 C   0  0  0  0  0  0  0  0  0  0  0  0
    2.6348    1.4367    0.4282 C   0  0  0  0  0  0  0  0  0  0  0  0
    3.4388    0.3251    0.1496 C   0  0  0  0  0  0  0  0  0  0  0  0
    3.2467   -0.4600   -0.9682 C   0  0  0  0  0  0  0  0  0  0  0  0
    3.9738   -1.5543   -1.3234 O   0  0  0  0  0  0  0  0  0  0  0  0
    5.0447   -2.1935   -0.7697 C   0  0  0  0  0  0  0  0  0  0  0  0
    6.3203   -1.4273   -0.6305 C   0  0  0  0  0  0  0  0  0  0  0  0
    6.8188   -0.9724   -1.8404 O   0  0  0  0  0  0  0  0  0  0  0  0
    7.1102   -1.9595   -2.7557 C   0  0  0  0  0  0  0  0  0  0  0  0
    2.1926   -0.0769   -1.8127 C   0  0  0  0  0  0  0  0  0  0  0  0
    1.4077    1.0164   -1.5311 C   0  0  0  0  0  0  0  0  0  0  0  0
   -1.6961    1.8926    0.2506 C   0  0  0  0  0  0  0  0  0  0  0  0
   -3.7928   -0.2331   -0.0449 C   0  0  0  0  0  0  0  0  0  0  0  0
   -3.9884    0.5427   -1.0276 O   0  0  0  0  0  0  0  0  0  0  0  0
   -4.7574   -3.2620   -4.1211 H   0  0  0  0  0  0  0  0  0  0  0  0
   -6.1495   -2.9511   -3.0604 H   0  0  0  0  0  0  0  0  0  0  0  0
   -5.2456   -4.5431   -2.8933 H   0  0  0  0  0  0  0  0  0  0  0  0
   -3.5062   -2.1180   -2.5404 H   0  0  0  0  0  0  0  0  0  0  0  0
   -3.6429   -3.6557   -1.5495 H   0  0  0  0  0  0  0  0  0  0  0  0
   -5.8166   -2.8229   -0.6353 H   0  0  0  0  0  0  0  0  0  0  0  0
   -5.6484   -1.3479   -1.5899 H   0  0  0  0  0  0  0  0  0  0  0  0
   -4.1102   -3.0300    1.4607 H   0  0  0  0  0  0  0  0  0  0  0  0
   -2.8437   -2.0648    3.6519 H   0  0  0  0  0  0  0  0  0  0  0  0
   -3.2467    1.9905    1.8027 H   0  0  0  0  0  0  0  0  0  0  0  0
   -1.8014    1.2030    3.5036 H   0  0  0  0  0  0  0  0  0  0  0  0
   -0.9316    0.1729    2.3156 H   0  0  0  0  0  0  0  0  0  0  0  0
    0.5614    1.8318    2.1331 H   0  0  0  0  0  0  0  0  0  0  0  0
   -0.9572    4.9315    1.8992 H   0  0  0  0  0  0  0  0  0  0  0  0
   -0.8262    5.2237    4.7008 H   0  0  0  0  0  0  0  0  0  0  0  0
    2.8191    2.0344    1.3270 H   0  0  0  0  0  0  0  0  0  0  0  0
    4.2176    0.0811    0.8355 H   0  0  0  0  0  0  0  0  0  0  0  0
    5.2556   -3.1086   -1.3965 H   0  0  0  0  0  0  0  0  0  0  0  0
    4.8008   -2.6319    0.2511 H   0  0  0  0  0  0  0  0  0  0  0  0
    7.1270   -2.1300   -0.2397 H   0  0  0  0  0  0  0  0  0  0  0  0
    6.3018   -0.5856    0.0624 H   0  0  0  0  0  0  0  0  0  0  0  0
    7.5027   -1.4428   -3.6753 H   0  0  0  0  0  0  0  0  0  0  0  0
    6.2366   -2.5600   -3.0815 H   0  0  0  0  0  0  0  0  0  0  0  0
    7.9395   -2.6269   -2.4466 H   0  0  0  0  0  0  0  0  0  0  0  0
    2.0066   -0.6714   -2.7090 H   0  0  0  0  0  0  0  0  0  0  0  0
    0.5829    1.3232   -2.1828 H   0  0  0  0  0  0  0  0  0  0  0  0
   -2.3733    2.3586   -0.4577 H   0  0  0  0  0  0  0  0  0  0  0  0
   -1.1021    1.0640   -0.1845 H   0  0  0  0  0  0  0  0  0  0  0  0
  1  2  1  0
  2  3  1  0
  3  4  1  0
  4  5  1  0
  5  6  2  0
  6  7  1  0
  6  8  1  0
  8  9  1  0
  9 10  1  0
 10 11  1  0
 11 12  1  0
 12 13  2  0
 12 14  1  0
 14 15  1  0
 11 16  1  0
 16 17  1  0
 17 18  2  0
 17 19  2  0
 17 20  1  0
 20 21  2  0
 21 22  1  0
 22 23  2  0
 23 24  1  0
 24 25  1  0
 25 26  1  0
 26 27  1  0
 27 28  1  0
 23 29  1  0
 29 30  2  0
 16 31  1  0
  8 32  1  0
 32 33  2  0
 32  4  1  0
 31  9  1  0
 30 20  1  0
  1 34  1  0
  1 35  1  0
  1 36  1  0
  2 37  1  0
  2 38  1  0
  3 39  1  0
  3 40  1  0
  5 41  1  0
  7 42  1  0
  9 43  1  1
 10 44  1  0
 10 45  1  0
 11 46  1  6
 14 47  1  0
 15 48  1  0
 21 49  1  0
 22 50  1  0
 25 51  1  0
 25 52  1  0
 26 53  1  0
 26 54  1  0
 28 55  1  0
 28 56  1  0
 28 57  1  0
 29 58  1  0
 30 59  1  0
 31 60  1  0
 31 61  1  0
M  END
$$$$
