@<TRIPOS>MOLECULE
*****
 29 29 0 0 0
SMALL
GASTEIGER

@<TRIPOS>ATOM
      1 C           4.5380   -0.9704   -0.4960 C.3     1  UNL1       -0.0457
      2 C           3.2037   -0.3264   -0.6946 C.3     1  UNL1        0.0630
      3 S           1.9355   -0.9704    0.3620 S.O2    1  UNL1       -0.0296
      4 O           1.6712   -2.4266    0.1403 O.2     1  UNL1       -0.1743
      5 O           2.2167   -0.7249    1.8042 O.2     1  UNL1       -0.1743
      6 C           0.4429   -0.0591   -0.0495 C.3     1  UNL1        0.0838
      7 C          -0.7386   -0.5008    0.7780 C.3     1  UNL1        0.0497
      8 N          -1.8763    0.2960    0.3630 N.ar    1  UNL1       -0.2691
      9 C          -2.6718   -0.1226   -0.6294 C.ar    1  UNL1        0.1116
     10 C          -2.6965   -1.3183   -1.5113 C.3     1  UNL1       -0.0061
     11 N          -3.6257    0.8025   -0.7923 N.ar    1  UNL1       -0.2338
     12 C          -3.4832    1.8270    0.0688 C.ar    1  UNL1        0.1255
     13 C          -2.3605    1.4766    0.7919 C.ar    1  UNL1        0.3679
     14 N          -1.7604    2.2165    1.8457 N.pl3   1  UNL1        0.1004
     15 O          -0.6583    1.9835    2.6355 O.co2   1  UNL1       -0.5747
     16 O          -2.2313    3.2949    2.2127 O.2     1  UNL1        0.0431
     17 H           4.6667   -1.9056   -1.0750 H       1  UNL1        0.0245
     18 H           4.6532   -1.1814    0.6018 H       1  UNL1        0.0245
     19 H           5.3150   -0.2115   -0.7391 H       1  UNL1        0.0245
     20 H           3.2922    0.7482   -0.4623 H       1  UNL1        0.0497
     21 H           2.8476   -0.4060   -1.7409 H       1  UNL1        0.0497
     22 H           0.6546    1.0047    0.1839 H       1  UNL1        0.0517
     23 H           0.2557   -0.2391   -1.1167 H       1  UNL1        0.0517
     24 H          -0.4788   -0.2773    1.8452 H       1  UNL1        0.0510
     25 H          -0.9257   -1.5748    0.7336 H       1  UNL1        0.0510
     26 H          -2.7474   -1.0066   -2.5893 H       1  UNL1        0.0307
     27 H          -1.7950   -1.9265   -1.3819 H       1  UNL1        0.0307
     28 H          -3.5773   -1.9700   -1.2985 H       1  UNL1        0.0307
     29 H          -4.0660    2.7268    0.2101 H       1  UNL1        0.0917
@<TRIPOS>UNITY_ATOM_ATTR
14 1
charge 1
15 1
charge -1
@<TRIPOS>BOND
     1     1     2    1
     2     2     3    1
     3     3     4    2
     4     3     5    2
     5     3     6    1
     6     6     7    1
     7     7     8    1
     8     8     9   ar
     9     9    10    1
    10     9    11   ar
    11    11    12   ar
    12    12    13   ar
    13    13    14    1
    14    14    15    1
    15    14    16    2
    16    13     8   ar
    17     1    17    1
    18     1    18    1
    19     1    19    1
    20     2    20    1
    21     2    21    1
    22     6    22    1
    23     6    23    1
    24     7    24    1
    25     7    25    1
    26    10    26    1
    27    10    27    1
    28    10    28    1
    29    12    29    1
