@<TRIPOS>MOLECULE
*****
 51 55 0 0 0
SMALL
GASTEIGER

@<TRIPOS>ATOM
      1 C           7.0834    1.1503   -1.0167 C.3     1  UNL1       -0.0249
      2 C           6.6171    1.8239    0.3340 C.3     1  UNL1        0.1212
      3 C           7.1790    0.9921    1.4228 C.3     1  UNL1       -0.0249
      4 O           6.9144    3.1049    0.2227 O.3     1  UNL1       -0.3771
      5 C           5.1407    1.4943    0.3775 C.1     1  UNL1       -0.0630
      6 C           3.9336    1.2191    0.4170 C.1     1  UNL1       -0.0634
      7 C           2.5316    0.9017    0.4410 C.ar    1  UNL1        0.0256
      8 C           1.6639    1.6295    1.2047 C.ar    1  UNL1       -0.0457
      9 C           0.3147    1.3160    1.1531 C.ar    1  UNL1       -0.0508
     10 C          -0.1542    0.3150    0.3658 C.ar    1  UNL1        0.0082
     11 C           0.7349   -0.4374   -0.4155 C.ar    1  UNL1       -0.0069
     12 C           2.0745   -0.1239   -0.3627 C.ar    1  UNL1       -0.0380
     13 C           0.2954   -1.4425   -1.2265 C.ar    1  UNL1       -0.0066
     14 C           1.1887   -2.1957   -1.9907 C.ar    1  UNL1       -0.0350
     15 C           0.6728   -3.2035   -2.7739 C.ar    1  UNL1        0.0416
     16 CL          1.8023   -4.1696   -3.7498 Cl      1  UNL1       -0.0835
     17 C          -0.6649   -3.5184   -2.8521 C.ar    1  UNL1       -0.0427
     18 C          -1.5285   -2.7419   -2.0696 C.ar    1  UNL1       -0.0505
     19 C          -1.0709   -1.7308   -1.2786 C.ar    1  UNL1        0.0103
     20 C          -1.9374   -0.9625   -0.5054 C.ar    1  UNL1        0.0977
     21 N          -3.2556   -0.9916   -0.3673 N.ar    1  UNL1       -0.2270
     22 C          -3.6732   -0.0302    0.5225 C.ar    1  UNL1        0.1418
     23 C          -5.0693    0.1007    0.8291 C.ar    1  UNL1        0.0519
     24 C          -5.5189    1.0779    1.7777 C.ar    1  UNL1        0.0636
     25 C          -4.6715    1.9677    2.4796 C.1     1  UNL1        0.0999
     26 N          -3.9827    2.7030    3.0341 N.1     1  UNL1       -0.1908
     27 C          -6.8860    1.1449    2.0382 C.ar    1  UNL1       -0.0436
     28 C          -7.8016    0.3262    1.4286 C.ar    1  UNL1       -0.0593
     29 C          -7.3474   -0.6246    0.5073 C.ar    1  UNL1       -0.0436
     30 C          -5.9934   -0.6760    0.2639 C.ar    1  UNL1        0.0636
     31 C          -5.5678   -1.6904   -0.7736 C.1     1  UNL1        0.0999
     32 N          -5.2528   -2.4922   -1.5777 N.1     1  UNL1       -0.1908
     33 N          -2.5707    0.6012    0.9327 N.ar    1  UNL1       -0.3373
     34 C          -1.5129    0.0442    0.3126 C.ar    1  UNL1        0.0749
     35 H           6.1836    0.8710   -1.5579 H       1  UNL1        0.0267
     36 H           7.7085    1.8191   -1.5998 H       1  UNL1        0.0267
     37 H           7.6757    0.2574   -0.7966 H       1  UNL1        0.0267
     38 H           7.1218    1.4080    2.4189 H       1  UNL1        0.0267
     39 H           6.5954   -0.0202    1.4371 H       1  UNL1        0.0267
     40 H           8.2007    0.6638    1.1854 H       1  UNL1        0.0267
     41 H           6.5341    3.4758   -0.6619 H       1  UNL1        0.2114
     42 H           1.9880    2.4339    1.8298 H       1  UNL1        0.0630
     43 H          -0.4003    1.8490    1.7558 H       1  UNL1        0.0625
     44 H           2.7756   -0.6724   -0.9744 H       1  UNL1        0.0636
     45 H           2.2419   -2.0619   -2.0090 H       1  UNL1        0.0638
     46 H          -1.0947   -4.3136   -3.4349 H       1  UNL1        0.0632
     47 H          -2.5934   -2.9457   -2.1176 H       1  UNL1        0.0625
     48 H          -7.2614    1.8716    2.7355 H       1  UNL1        0.0631
     49 H          -8.8513    0.3995    1.6579 H       1  UNL1        0.0618
     50 H          -8.0359   -1.2722    0.0261 H       1  UNL1        0.0631
     51 H          -2.4753    1.3554    1.5853 H       1  UNL1        0.1674
@<TRIPOS>BOND
     1     1     2    1
     2     2     3    1
     3     2     4    1
     4     2     5    1
     5     5     6    3
     6     6     7    1
     7     7     8   ar
     8     8     9   ar
     9     9    10   ar
    10    10    11   ar
    11    11    12   ar
    12    11    13   ar
    13    13    14   ar
    14    14    15   ar
    15    15    16    1
    16    15    17   ar
    17    17    18   ar
    18    18    19   ar
    19    19    20   ar
    20    20    21   ar
    21    21    22   ar
    22    22    23    1
    23    23    24   ar
    24    24    25    1
    25    25    26    3
    26    24    27   ar
    27    27    28   ar
    28    28    29   ar
    29    29    30   ar
    30    30    31    1
    31    31    32    3
    32    22    33   ar
    33    33    34   ar
    34    12     7   ar
    35    19    13   ar
    36    34    20   ar
    37    34    10   ar
    38    30    23   ar
    39     1    35    1
    40     1    36    1
    41     1    37    1
    42     3    38    1
    43     3    39    1
    44     3    40    1
    45     4    41    1
    46     8    42    1
    47     9    43    1
    48    12    44    1
    49    14    45    1
    50    17    46    1
    51    18    47    1
    52    27    48    1
    53    28    49    1
    54    29    50    1
    55    33    51    1
