@<TRIPOS>MOLECULE
*****
 32 34 0 0 0
SMALL
GASTEIGER

@<TRIPOS>ATOM
      1 N6          5.2679    0.4440    0.7104 N.pl3   1    A1       -0.3413
      2 C6          4.1467   -0.1962    0.1227 C.ar    1    A1        0.1472
      3 N1          4.3248   -1.4237   -0.3939 N.ar    1    A1       -0.2188
      4 C2          3.3103   -2.1056   -0.9727 C.ar    1    A1        0.1205
      5 N3          2.0913   -1.5352   -1.0305 N.ar    1    A1       -0.2159
      6 C4          1.8293   -0.3077   -0.5359 C.ar    1    A1        0.1674
      7 C5          2.8975    0.3487    0.0453 C.ar    1    A1        0.1473
      8 N7          2.4071    1.5209    0.4547 N.ar    1    A1       -0.2306
      9 C8          1.1012    1.5942    0.1460 C.ar    1    A1        0.1004
     10 N9          0.7279    0.4608   -0.4719 N.ar    1    A1       -0.2855
     11 C1*        -0.6094    0.1194   -0.9792 C.3     1    A1        0.1667
     12 O4*        -1.4631    1.1684   -0.7262 O.3     1    A1       -0.3457
     13 C4*        -2.6531    0.6368   -0.2435 C.3     1    A1        0.1126
     14 C5*        -3.4681    1.6394    0.5089 C.3     1    A1        0.0730
     15 O5*        -4.6368    0.9792    0.9403 O.3     1    A1       -0.3924
     16 C3*        -2.1151   -0.4348    0.7153 C.3     1    A1        0.1135
     17 O3*        -3.1105   -1.3269    1.0863 O.3     1    A1       -0.3864
     18 C2*        -1.0804   -1.0695   -0.1916 C.3     1    A1        0.1285
     19 O2*        -1.7596   -1.9361   -1.0440 O.3     1    A1       -0.3847
     20 H61         5.9038   -0.0335    1.3919 H       1    A1        0.1438
     21 H62         5.4766    1.4418    0.4558 H       1    A1        0.1438
     22 H2          3.4591   -3.1089   -1.3942 H       1    A1        0.1048
     23 H8          0.4574    2.4265    0.3592 H       1    A1        0.1030
     24 H1*        -0.5895   -0.0546   -2.0706 H       1    A1        0.0866
     25 H4*        -3.2233    0.0945   -1.0222 H       1    A1        0.0647
     26 H5*1       -2.8814    2.0207    1.3490 H       1    A1        0.0584
     27 H5*2       -3.7908    2.4203   -0.2106 H       1    A1        0.0584
     28 H5*        -4.9416    0.3405    0.2400 H       1    A1        0.2095
     29 H3*        -1.6039    0.0329    1.5657 H       1    A1        0.0647
     30 H3*        -3.5857   -0.9232    1.8582 H       1    A1        0.2100
     31 H2*        -0.2668   -1.5653    0.3694 H       1    A1        0.0665
     32 H2*        -1.6217   -1.6676   -2.0011 H       1    A1        0.2101
@<TRIPOS>BOND
     1     1     2    1
     2     2     3   ar
     3     3     4   ar
     4     4     5   ar
     5     5     6   ar
     6     6     7   ar
     7     7     8   ar
     8     8     9   ar
     9     9    10   ar
    10    10    11    1
    11    11    12    1
    12    12    13    1
    13    13    14    1
    14    14    15    1
    15    13    16    1
    16    16    17    1
    17    16    18    1
    18    18    19    1
    19     7     2   ar
    20    18    11    1
    21    10     6   ar
    22     1    20    1
    23     1    21    1
    24     4    22    1
    25     9    23    1
    26    11    24    1
    27    13    25    1
    28    14    26    1
    29    14    27    1
    30    15    28    1
    31    16    29    1
    32    17    30    1
    33    18    31    1
    34    19    32    1
