
     RDKit          3D

 32 34  0  0  0  0  0  0  0  0999 V2000
    5.2679    0.4440    0.7104 N   0  0  0  0  0  0  0  0  0  0  0  0
    4.1467   -0.1962    0.1227 C   0  0  0  0  0  0  0  0  0  0  0  0
    4.3248   -1.4237   -0.3939 N   0  0  0  0  0  0  0  0  0  0  0  0
    3.3103   -2.1056   -0.9727 C   0  0  0  0  0  0  0  0  0  0  0  0
    2.0913   -1.5352   -1.0305 N   0  0  0  0  0  0  0  0  0  0  0  0
    1.8293   -0.3077   -0.5359 C   0  0  0  0  0  0  0  0  0  0  0  0
    2.8975    0.3487    0.0453 C   0  0  0  0  0  0  0  0  0  0  0  0
    2.4071    1.5209    0.4547 N   0  0  0  0  0  0  0  0  0  0  0  0
    1.1012    1.5942    0.1460 C   0  0  0  0  0  0  0  0  0  0  0  0
    0.7279    0.4608   -0.4719 N   0  0  0  0  0  0  0  0  0  0  0  0
   -0.6094    0.1194   -0.9792 C   0  0  2  0  0  0  0  0  0  0  0  0
   -1.4631    1.1684   -0.7262 O   0  0  0  0  0  0  0  0  0  0  0  0
   -2.6531    0.6368   -0.2435 C   0  0  2  0  0  0  0  0  0  0  0  0
   -3.4681    1.6394    0.5089 C   0  0  0  0  0  0  0  0  0  0  0  0
   -4.6368    0.9792    0.9403 O   0  0  0  0  0  0  0  0  0  0  0  0
   -2.1151   -0.4348    0.7153 C   0  0  1  0  0  0  0  0  0  0  0  0
   -3.1105   -1.3269    1.0863 O   0  0  0  0  0  0  0  0  0  0  0  0
   -1.0804   -1.0695   -0.1916 C   0  0  1  0  0  0  0  0  0  0  0  0
   -1.7596   -1.9361   -1.0440 O   0  0  0  0  0  0  0  0  0  0  0  0
    5.9038   -0.0335    1.3919 H   0  0  0  0  0  0  0  0  0  0  0  0
    5.4766    1.4418    0.4558 H   0  0  0  0  0  0  0  0  0  0  0  0
    3.4591   -3.1089   -1.3942 H   0  0  0  0  0  0  0  0  0  0  0  0
    0.4574    2.4265    0.3592 H   0  0  0  0  0  0  0  0  0  0  0  0
   -0.5895   -0.0546   -2.0706 H   0  0  0  0  0  0  0  0  0  0  0  0
   -3.2233    0.0945   -1.0222 H   0  0  0  0  0  0  0  0  0  0  0  0
   -2.8814    2.0207    1.3490 H   0  0  0  0  0  0  0  0  0  0  0  0
   -3.7908    2.4203   -0.2106 H   0  0  0  0  0  0  0  0  0  0  0  0
   -4.9416    0.3405    0.2400 H   0  0  0  0  0  0  0  0  0  0  0  0
   -1.6039    0.0329    1.5657 H   0  0  0  0  0  0  0  0  0  0  0  0
   -3.5857   -0.9232    1.8582 H   0  0  0  0  0  0  0  0  0  0  0  0
   -0.2668   -1.5653    0.3694 H   0  0  0  0  0  0  0  0  0  0  0  0
   -1.6217   -1.6676   -2.0011 H   0  0  0  0  0  0  0  0  0  0  0  0
  1  2  1  0
  2  3  2  0
  3  4  1  0
  4  5  2  0
  5  6  1  0
  6  7  2  0
  7  8  1  0
  8  9  2  0
  9 10  1  0
 10 11  1  0
 11 12  1  0
 12 13  1  0
 13 14  1  0
 14 15  1  0
 13 16  1  0
 16 17  1  0
 16 18  1  0
 18 19  1  0
  7  2  1  0
 18 11  1  0
 10  6  1  0
  1 20  1  0
  1 21  1  0
  4 22  1  0
  9 23  1  0
 11 24  1  6
 13 25  1  6
 14 26  1  0
 14 27  1  0
 15 28  1  0
 16 29  1  1
 17 30  1  0
 18 31  1  1
 19 32  1  0
M  END
$$$$
