
     RDKit          3D

 74 77  0  0  0  0  0  0  0  0999 V2000
   -2.8921    2.9801   -3.7960 C   0  0  0  0  0  0  0  0  0  0  0  0
   -3.2783    2.5009   -2.3904 C   0  0  0  0  0  0  0  0  0  0  0  0
   -2.2321    2.9485   -1.3917 C   0  0  0  0  0  0  0  0  0  0  0  0
   -2.5891    2.4933    0.0009 C   0  0  0  0  0  0  0  0  0  0  0  0
   -2.6942    1.0519    0.1102 N   0  0  0  0  0  0  0  0  0  0  0  0
   -3.9660    0.4391   -0.1115 C   0  0  0  0  0  0  0  0  0  0  0  0
   -4.9863    1.1653   -0.2116 O   0  0  0  0  0  0  0  0  0  0  0  0
   -4.1488   -1.0372   -0.2315 C   0  0  0  0  0  0  0  0  0  0  0  0
   -5.5726   -1.4338   -0.0684 C   0  0  0  0  0  0  0  0  0  0  0  0
   -6.2327   -1.0864    1.2127 C   0  0  0  0  0  0  0  0  0  0  0  0
   -5.5263   -1.7469    2.3632 C   0  0  0  0  0  0  0  0  0  0  0  0
   -7.6450   -1.6768    1.1717 C   0  0  0  0  0  0  0  0  0  0  0  0
   -3.2298   -1.6618    0.6854 N   0  0  0  0  0  0  0  0  0  0  0  0
   -2.0901   -0.9479    1.1718 C   0  0  0  0  0  0  0  0  0  0  0  0
   -1.5668   -1.3598    2.2304 O   0  0  0  0  0  0  0  0  0  0  0  0
   -1.5757    0.2298    0.4257 C   0  0  0  0  0  0  0  0  0  0  0  0
   -0.4845    0.9043    1.2199 C   0  0  0  0  0  0  0  0  0  0  0  0
    0.7978    0.1122    1.1996 C   0  0  0  0  0  0  0  0  0  0  0  0
    0.6679   -1.2239    0.7785 N   0  0  0  0  0  0  0  0  0  0  0  0
    1.7465   -2.0923    1.0894 C   0  0  0  0  0  0  0  0  0  0  0  0
    3.0480   -1.6786    0.4998 C   0  0  0  0  0  0  0  0  0  0  0  0
    3.3972   -2.1392   -0.7502 C   0  0  0  0  0  0  0  0  0  0  0  0
    4.6172   -1.7486   -1.2948 C   0  0  0  0  0  0  0  0  0  0  0  0
    5.4931   -0.9148   -0.6281 C   0  0  0  0  0  0  0  0  0  0  0  0
    6.6845   -0.5805   -1.2497 O   0  0  0  0  0  0  0  0  0  0  0  0
    7.6430    0.2280   -0.7082 C   0  0  0  0  0  0  0  0  0  0  0  0
    7.5959    1.5841   -0.9310 C   0  0  0  0  0  0  0  0  0  0  0  0
    8.5433    2.4507   -0.4053 C   0  0  0  0  0  0  0  0  0  0  0  0
    9.5582    1.9060    0.3650 C   0  0  0  0  0  0  0  0  0  0  0  0
    9.6431    0.5482    0.6138 C   0  0  0  0  0  0  0  0  0  0  0  0
    8.6640   -0.2848    0.0617 C   0  0  0  0  0  0  0  0  0  0  0  0
    5.1271   -0.4629    0.6230 C   0  0  0  0  0  0  0  0  0  0  0  0
    3.9120   -0.8472    1.1745 C   0  0  0  0  0  0  0  0  0  0  0  0
   -0.0850   -1.5029   -0.3817 C   0  0  0  0  0  0  0  0  0  0  0  0
   -0.8778   -0.2970   -0.8369 C   0  0  0  0  0  0  0  0  0  0  0  0
   -2.2624    3.8964   -3.7088 H   0  0  0  0  0  0  0  0  0  0  0  0
   -2.3234    2.1846   -4.3084 H   0  0  0  0  0  0  0  0  0  0  0  0
   -3.7926    3.2240   -4.3940 H   0  0  0  0  0  0  0  0  0  0  0  0
   -4.2745    2.9320   -2.1892 H   0  0  0  0  0  0  0  0  0  0  0  0
   -3.3785    1.3985   -2.4155 H   0  0  0  0  0  0  0  0  0  0  0  0
   -2.1375    4.0523   -1.3915 H   0  0  0  0  0  0  0  0  0  0  0  0
   -1.2670    2.4774   -1.7384 H   0  0  0  0  0  0  0  0  0  0  0  0
   -3.6111    2.9480    0.1962 H   0  0  0  0  0  0  0  0  0  0  0  0
   -1.9497    2.9546    0.7745 H   0  0  0  0  0  0  0  0  0  0  0  0
   -3.8698   -1.3641   -1.2881 H   0  0  0  0  0  0  0  0  0  0  0  0
   -6.1255   -0.9860   -0.9517 H   0  0  0  0  0  0  0  0  0  0  0  0
   -5.6204   -2.5450   -0.2869 H   0  0  0  0  0  0  0  0  0  0  0  0
   -6.2839    0.0172    1.3503 H   0  0  0  0  0  0  0  0  0  0  0  0
   -5.4464   -2.8315    2.1280 H   0  0  0  0  0  0  0  0  0  0  0  0
   -6.1772   -1.7350    3.2928 H   0  0  0  0  0  0  0  0  0  0  0  0
   -4.5601   -1.2813    2.6011 H   0  0  0  0  0  0  0  0  0  0  0  0
   -8.0145   -1.7561    0.1261 H   0  0  0  0  0  0  0  0  0  0  0  0
   -7.6540   -2.7176    1.5735 H   0  0  0  0  0  0  0  0  0  0  0  0
   -8.3604   -1.0232    1.7248 H   0  0  0  0  0  0  0  0  0  0  0  0
   -3.3664   -2.6352    1.0094 H   0  0  0  0  0  0  0  0  0  0  0  0
   -0.8096    1.1834    2.2424 H   0  0  0  0  0  0  0  0  0  0  0  0
   -0.2392    1.8809    0.7066 H   0  0  0  0  0  0  0  0  0  0  0  0
    1.1677    0.1026    2.2671 H   0  0  0  0  0  0  0  0  0  0  0  0
    1.6076    0.6141    0.6316 H   0  0  0  0  0  0  0  0  0  0  0  0
    1.9028   -2.0376    2.2077 H   0  0  0  0  0  0  0  0  0  0  0  0
    1.5686   -3.1490    0.8105 H   0  0  0  0  0  0  0  0  0  0  0  0
    2.7451   -2.7934   -1.3103 H   0  0  0  0  0  0  0  0  0  0  0  0
    4.8540   -2.1367   -2.2873 H   0  0  0  0  0  0  0  0  0  0  0  0
    6.8077    2.0157   -1.5304 H   0  0  0  0  0  0  0  0  0  0  0  0
    8.5056    3.5161   -0.5808 H   0  0  0  0  0  0  0  0  0  0  0  0
   10.3403    2.5296    0.8121 H   0  0  0  0  0  0  0  0  0  0  0  0
   10.4237    0.0969    1.2107 H   0  0  0  0  0  0  0  0  0  0  0  0
    8.6699   -1.3548    0.2160 H   0  0  0  0  0  0  0  0  0  0  0  0
    5.8242    0.1903    1.1336 H   0  0  0  0  0  0  0  0  0  0  0  0
    3.6671   -0.4597    2.1739 H   0  0  0  0  0  0  0  0  0  0  0  0
    0.4979   -1.8527   -1.2544 H   0  0  0  0  0  0  0  0  0  0  0  0
   -0.8282   -2.3184   -0.1454 H   0  0  0  0  0  0  0  0  0  0  0  0
   -1.5822   -0.5021   -1.6356 H   0  0  0  0  0  0  0  0  0  0  0  0
   -0.1131    0.4455   -1.1994 H   0  0  0  0  0  0  0  0  0  0  0  0
  1  2  1  0
  2  3  1  0
  3  4  1  0
  4  5  1  0
  5  6  1  0
  6  7  2  0
  6  8  1  0
  8  9  1  0
  9 10  1  0
 10 11  1  0
 10 12  1  0
  8 13  1  0
 13 14  1  0
 14 15  2  0
 14 16  1  0
 16 17  1  0
 17 18  1  0
 18 19  1  0
 19 20  1  0
 20 21  1  0
 21 22  2  0
 22 23  1  0
 23 24  2  0
 24 25  1  0
 25 26  1  0
 26 27  2  0
 27 28  1  0
 28 29  2  0
 29 30  1  0
 30 31  2  0
 24 32  1  0
 32 33  2  0
 19 34  1  0
 34 35  1  0
 16  5  1  0
 33 21  1  0
 35 16  1  0
 31 26  1  0
  1 36  1  0
  1 37  1  0
  1 38  1  0
  2 39  1  0
  2 40  1  0
  3 41  1  0
  3 42  1  0
  4 43  1  0
  4 44  1  0
  8 45  1  0
  9 46  1  0
  9 47  1  0
 10 48  1  0
 11 49  1  0
 11 50  1  0
 11 51  1  0
 12 52  1  0
 12 53  1  0
 12 54  1  0
 13 55  1  0
 17 56  1  0
 17 57  1  0
 18 58  1  0
 18 59  1  0
 20 60  1  0
 20 61  1  0
 22 62  1  0
 23 63  1  0
 27 64  1  0
 28 65  1  0
 29 66  1  0
 30 67  1  0
 31 68  1  0
 32 69  1  0
 33 70  1  0
 34 71  1  0
 34 72  1  0
 35 73  1  0
 35 74  1  0
M  END
$$$$
