@<TRIPOS>MOLECULE
*****
 74 77 0 0 0
SMALL
GASTEIGER

@<TRIPOS>ATOM
      1 C          -2.8921    2.9801   -3.7960 C.3     1  UNL1       -0.0652
      2 C          -3.2783    2.5009   -2.3904 C.3     1  UNL1       -0.0545
      3 C          -2.2321    2.9485   -1.3917 C.3     1  UNL1       -0.0374
      4 C          -2.5891    2.4933    0.0009 C.3     1  UNL1        0.0158
      5 N          -2.6942    1.0519    0.1102 N.am    1  UNL1       -0.2856
      6 C          -3.9660    0.4391   -0.1115 C.2     1  UNL1        0.2367
      7 O          -4.9863    1.1653   -0.2116 O.2     1  UNL1       -0.2735
      8 C          -4.1488   -1.0372   -0.2315 C.3     1  UNL1        0.0999
      9 C          -5.5726   -1.4338   -0.0684 C.3     1  UNL1       -0.0236
     10 C          -6.2327   -1.0864    1.2127 C.3     1  UNL1       -0.0446
     11 C          -5.5263   -1.7469    2.3632 C.3     1  UNL1       -0.0626
     12 C          -7.6450   -1.6768    1.1717 C.3     1  UNL1       -0.0626
     13 N          -3.2298   -1.6618    0.6854 N.am    1  UNL1       -0.3022
     14 C          -2.0901   -0.9479    1.1718 C.2     1  UNL1        0.2374
     15 O          -1.5668   -1.3598    2.2304 O.2     1  UNL1       -0.2734
     16 C          -1.5757    0.2298    0.4257 C.3     1  UNL1        0.1156
     17 C          -0.4845    0.9043    1.2199 C.3     1  UNL1       -0.0100
     18 C           0.7978    0.1122    1.1996 C.3     1  UNL1        0.0016
     19 N           0.6679   -1.2239    0.7785 N.3     1  UNL1       -0.2980
     20 C           1.7465   -2.0923    1.0894 C.3     1  UNL1        0.0240
     21 C           3.0480   -1.6786    0.4998 C.ar    1  UNL1       -0.0331
     22 C           3.3972   -2.1392   -0.7502 C.ar    1  UNL1       -0.0539
     23 C           4.6172   -1.7486   -1.2948 C.ar    1  UNL1       -0.0190
     24 C           5.4931   -0.9148   -0.6281 C.ar    1  UNL1        0.1285
     25 O           6.6845   -0.5805   -1.2497 O.3     1  UNL1       -0.4560
     26 C           7.6430    0.2280   -0.7082 C.ar    1  UNL1        0.1284
     27 C           7.5959    1.5841   -0.9310 C.ar    1  UNL1       -0.0193
     28 C           8.5433    2.4507   -0.4053 C.ar    1  UNL1       -0.0583
     29 C           9.5582    1.9060    0.3650 C.ar    1  UNL1       -0.0615
     30 C           9.6431    0.5482    0.6138 C.ar    1  UNL1       -0.0583
     31 C           8.6640   -0.2848    0.0617 C.ar    1  UNL1       -0.0193
     32 C           5.1271   -0.4629    0.6230 C.ar    1  UNL1       -0.0190
     33 C           3.9120   -0.8472    1.1745 C.ar    1  UNL1       -0.0539
     34 C          -0.0850   -1.5029   -0.3817 C.3     1  UNL1        0.0016
     35 C          -0.8778   -0.2970   -0.8369 C.3     1  UNL1       -0.0100
     36 H          -2.2624    3.8964   -3.7088 H       1  UNL1        0.0230
     37 H          -2.3234    2.1846   -4.3084 H       1  UNL1        0.0230
     38 H          -3.7926    3.2240   -4.3940 H       1  UNL1        0.0230
     39 H          -4.2745    2.9320   -2.1892 H       1  UNL1        0.0263
     40 H          -3.3785    1.3985   -2.4155 H       1  UNL1        0.0263
     41 H          -2.1375    4.0523   -1.3915 H       1  UNL1        0.0280
     42 H          -1.2670    2.4774   -1.7384 H       1  UNL1        0.0280
     43 H          -3.6111    2.9480    0.1962 H       1  UNL1        0.0465
     44 H          -1.9497    2.9546    0.7745 H       1  UNL1        0.0465
     45 H          -3.8698   -1.3641   -1.2881 H       1  UNL1        0.0595
     46 H          -6.1255   -0.9860   -0.9517 H       1  UNL1        0.0290
     47 H          -5.6204   -2.5450   -0.2869 H       1  UNL1        0.0290
     48 H          -6.2839    0.0172    1.3503 H       1  UNL1        0.0296
     49 H          -5.4464   -2.8315    2.1280 H       1  UNL1        0.0232
     50 H          -6.1772   -1.7350    3.2928 H       1  UNL1        0.0232
     51 H          -4.5601   -1.2813    2.6011 H       1  UNL1        0.0232
     52 H          -8.0145   -1.7561    0.1261 H       1  UNL1        0.0232
     53 H          -7.6540   -2.7176    1.5735 H       1  UNL1        0.0232
     54 H          -8.3604   -1.0232    1.7248 H       1  UNL1        0.0232
     55 H          -3.3664   -2.6352    1.0094 H       1  UNL1        0.1495
     56 H          -0.8096    1.1834    2.2424 H       1  UNL1        0.0303
     57 H          -0.2392    1.8809    0.7066 H       1  UNL1        0.0303
     58 H           1.1677    0.1026    2.2671 H       1  UNL1        0.0427
     59 H           1.6076    0.6141    0.6316 H       1  UNL1        0.0427
     60 H           1.9028   -2.0376    2.2077 H       1  UNL1        0.0476
     61 H           1.5686   -3.1490    0.8105 H       1  UNL1        0.0476
     62 H           2.7451   -2.7934   -1.3103 H       1  UNL1        0.0622
     63 H           4.8540   -2.1367   -2.2873 H       1  UNL1        0.0654
     64 H           6.8077    2.0157   -1.5304 H       1  UNL1        0.0654
     65 H           8.5056    3.5161   -0.5808 H       1  UNL1        0.0619
     66 H          10.3403    2.5296    0.8121 H       1  UNL1        0.0618
     67 H          10.4237    0.0969    1.2107 H       1  UNL1        0.0619
     68 H           8.6699   -1.3548    0.2160 H       1  UNL1        0.0654
     69 H           5.8242    0.1903    1.1336 H       1  UNL1        0.0654
     70 H           3.6671   -0.4597    2.1739 H       1  UNL1        0.0622
     71 H           0.4979   -1.8527   -1.2544 H       1  UNL1        0.0427
     72 H          -0.8282   -2.3184   -0.1454 H       1  UNL1        0.0427
     73 H          -1.5822   -0.5021   -1.6356 H       1  UNL1        0.0303
     74 H          -0.1131    0.4455   -1.1994 H       1  UNL1        0.0303
@<TRIPOS>BOND
     1     1     2    1
     2     2     3    1
     3     3     4    1
     4     4     5    1
     5     5     6   am
     6     6     7    2
     7     6     8    1
     8     8     9    1
     9     9    10    1
    10    10    11    1
    11    10    12    1
    12     8    13    1
    13    13    14   am
    14    14    15    2
    15    14    16    1
    16    16    17    1
    17    17    18    1
    18    18    19    1
    19    19    20    1
    20    20    21    1
    21    21    22   ar
    22    22    23   ar
    23    23    24   ar
    24    24    25    1
    25    25    26    1
    26    26    27   ar
    27    27    28   ar
    28    28    29   ar
    29    29    30   ar
    30    30    31   ar
    31    24    32   ar
    32    32    33   ar
    33    19    34    1
    34    34    35    1
    35    16     5    1
    36    33    21   ar
    37    35    16    1
    38    31    26   ar
    39     1    36    1
    40     1    37    1
    41     1    38    1
    42     2    39    1
    43     2    40    1
    44     3    41    1
    45     3    42    1
    46     4    43    1
    47     4    44    1
    48     8    45    1
    49     9    46    1
    50     9    47    1
    51    10    48    1
    52    11    49    1
    53    11    50    1
    54    11    51    1
    55    12    52    1
    56    12    53    1
    57    12    54    1
    58    13    55    1
    59    17    56    1
    60    17    57    1
    61    18    58    1
    62    18    59    1
    63    20    60    1
    64    20    61    1
    65    22    62    1
    66    23    63    1
    67    27    64    1
    68    28    65    1
    69    29    66    1
    70    30    67    1
    71    31    68    1
    72    32    69    1
    73    33    70    1
    74    34    71    1
    75    34    72    1
    76    35    73    1
    77    35    74    1
