
     RDKit          3D

 60 62  0  0  0  0  0  0  0  0999 V2000
   -4.9363   -0.8951   -1.5993 C   0  0  0  0  0  0  0  0  0  0  0  0
   -4.4142   -0.3517   -0.3290 C   0  0  1  0  0  0  0  0  0  0  0  0
   -2.9475   -0.2459   -0.1543 C   0  0  0  0  0  0  0  0  0  0  0  0
   -2.1217   -1.4622   -0.2254 C   0  0  1  0  0  0  0  0  0  0  0  0
   -2.2052   -2.2098   -1.5590 C   0  0  0  0  0  0  0  0  0  0  0  0
   -0.6641   -1.0796   -0.1256 C   0  0  0  0  0  0  0  0  0  0  0  0
   -0.1771   -0.2578    1.3201 S   0  0  0  0  0  6  0  0  0  0  0  0
   -0.4573   -1.0679    2.5388 O   0  0  0  0  0  0  0  0  0  0  0  0
   -0.7829    1.1357    1.4477 O   0  0  0  0  0  0  0  0  0  0  0  0
    1.5376    0.0561    1.1767 N   0  0  0  0  0  0  0  0  0  0  0  0
    2.3193   -1.1151    1.0693 C   0  0  0  0  0  0  0  0  0  0  0  0
    3.5447   -0.8683    0.2387 C   0  0  0  0  0  0  0  0  0  0  0  0
    4.0680    0.4577    0.2843 N   0  0  0  0  0  0  0  0  0  0  0  0
    5.4473    0.6996    0.0514 C   0  0  0  0  0  0  0  0  0  0  0  0
    5.9934    1.9747    0.2307 C   0  0  0  0  0  0  0  0  0  0  0  0
    7.3125    2.2265    0.0073 C   0  0  0  0  0  0  0  0  0  0  0  0
    8.1713    1.2426   -0.4046 C   0  0  0  0  0  0  0  0  0  0  0  0
    9.4898    1.4558   -0.6367 F   0  0  0  0  0  0  0  0  0  0  0  0
    7.6500   -0.0197   -0.5864 C   0  0  0  0  0  0  0  0  0  0  0  0
    6.3196   -0.2742   -0.3612 C   0  0  0  0  0  0  0  0  0  0  0  0
    3.2192    1.6023    0.5588 C   0  0  0  0  0  0  0  0  0  0  0  0
    1.7983    1.1059    0.2474 C   0  0  0  0  0  0  0  0  0  0  0  0
   -2.3779   -2.4149    0.8338 N   0  0  0  0  0  0  0  0  0  0  0  0
   -3.2797   -2.2269    1.8052 O   0  0  0  0  0  0  0  0  0  0  0  0
   -1.6297   -3.6220    0.8462 C   0  0  0  0  0  0  0  0  0  0  0  0
   -1.7966   -4.5066    1.7429 O   0  0  0  0  0  0  0  0  0  0  0  0
   -4.9611    1.0364   -0.1623 C   0  0  0  0  0  0  0  0  0  0  0  0
   -4.6036    2.0460   -0.9979 N   0  0  0  0  0  0  0  0  0  0  0  0
   -5.0624    3.2812   -0.8851 C   0  0  0  0  0  0  0  0  0  0  0  0
   -5.9471    3.5975    0.1153 C   0  0  0  0  0  0  0  0  0  0  0  0
   -6.4212    4.8661    0.2345 F   0  0  0  0  0  0  0  0  0  0  0  0
   -6.3288    2.5941    0.9792 C   0  0  0  0  0  0  0  0  0  0  0  0
   -5.8266    1.3718    0.8065 N   0  0  0  0  0  0  0  0  0  0  0  0
   -5.2308   -1.9736   -1.4726 H   0  0  0  0  0  0  0  0  0  0  0  0
   -5.9394   -0.4057   -1.8010 H   0  0  0  0  0  0  0  0  0  0  0  0
   -4.3530   -0.7019   -2.4996 H   0  0  0  0  0  0  0  0  0  0  0  0
   -4.8921   -0.9456    0.5046 H   0  0  0  0  0  0  0  0  0  0  0  0
   -2.8104    0.1555    0.8958 H   0  0  0  0  0  0  0  0  0  0  0  0
   -2.5237    0.5279   -0.8104 H   0  0  0  0  0  0  0  0  0  0  0  0
   -1.2784   -2.8576   -1.6493 H   0  0  0  0  0  0  0  0  0  0  0  0
   -3.0374   -2.9042   -1.6128 H   0  0  0  0  0  0  0  0  0  0  0  0
   -2.1049   -1.5038   -2.4077 H   0  0  0  0  0  0  0  0  0  0  0  0
   -0.4548   -0.4424   -1.0219 H   0  0  0  0  0  0  0  0  0  0  0  0
   -0.0683   -2.0027   -0.2290 H   0  0  0  0  0  0  0  0  0  0  0  0
    1.7606   -1.9931    0.6776 H   0  0  0  0  0  0  0  0  0  0  0  0
    2.6814   -1.3782    2.1055 H   0  0  0  0  0  0  0  0  0  0  0  0
    3.4042   -1.2150   -0.8233 H   0  0  0  0  0  0  0  0  0  0  0  0
    4.3638   -1.5472    0.6251 H   0  0  0  0  0  0  0  0  0  0  0  0
    5.3656    2.7921    0.5552 H   0  0  0  0  0  0  0  0  0  0  0  0
    7.7173    3.2264    0.1529 H   0  0  0  0  0  0  0  0  0  0  0  0
    8.3241   -0.7939   -0.9100 H   0  0  0  0  0  0  0  0  0  0  0  0
    5.9801   -1.2808   -0.5259 H   0  0  0  0  0  0  0  0  0  0  0  0
    3.2200    1.8608    1.6343 H   0  0  0  0  0  0  0  0  0  0  0  0
    3.4579    2.4780   -0.0763 H   0  0  0  0  0  0  0  0  0  0  0  0
    1.7116    0.8179   -0.8137 H   0  0  0  0  0  0  0  0  0  0  0  0
    1.1298    1.9520    0.4917 H   0  0  0  0  0  0  0  0  0  0  0  0
   -3.6779   -3.0472    2.1484 H   0  0  0  0  0  0  0  0  0  0  0  0
   -0.8940   -3.8355    0.0997 H   0  0  0  0  0  0  0  0  0  0  0  0
   -4.7590    4.0560   -1.5631 H   0  0  0  0  0  0  0  0  0  0  0  0
   -7.0221    2.8296    1.7676 H   0  0  0  0  0  0  0  0  0  0  0  0
  1  2  1  0
  2  3  1  0
  3  4  1  0
  4  5  1  0
  4  6  1  0
  6  7  1  0
  7  8  2  0
  7  9  2  0
  7 10  1  0
 10 11  1  0
 11 12  1  0
 12 13  1  0
 13 14  1  0
 14 15  2  0
 15 16  1  0
 16 17  2  0
 17 18  1  0
 17 19  1  0
 19 20  2  0
 13 21  1  0
 21 22  1  0
  4 23  1  1
 23 24  1  0
 23 25  1  0
 25 26  2  0
  2 27  1  0
 27 28  2  0
 28 29  1  0
 29 30  2  0
 30 31  1  0
 30 32  1  0
 32 33  2  0
 22 10  1  0
 33 27  1  0
 20 14  1  0
  1 34  1  0
  1 35  1  0
  1 36  1  0
  2 37  1  1
  3 38  1  0
  3 39  1  0
  5 40  1  0
  5 41  1  0
  5 42  1  0
  6 43  1  0
  6 44  1  0
 11 45  1  0
 11 46  1  0
 12 47  1  0
 12 48  1  0
 15 49  1  0
 16 50  1  0
 19 51  1  0
 20 52  1  0
 21 53  1  0
 21 54  1  0
 22 55  1  0
 22 56  1  0
 24 57  1  0
 25 58  1  0
 29 59  1  0
 32 60  1  0
M  END
$$$$
