@<TRIPOS>MOLECULE
*****
 60 62 0 0 0
SMALL
GASTEIGER

@<TRIPOS>ATOM
      1 C          -4.9363   -0.8951   -1.5993 C.3     1  UNL1       -0.0554
      2 C          -4.4142   -0.3517   -0.3290 C.3     1  UNL1        0.0182
      3 C          -2.9475   -0.2459   -0.1543 C.3     1  UNL1       -0.0183
      4 C          -2.1217   -1.4622   -0.2254 C.3     1  UNL1        0.0821
      5 C          -2.2052   -2.2098   -1.5590 C.3     1  UNL1       -0.0396
      6 C          -0.6641   -1.0796   -0.1256 C.3     1  UNL1        0.1053
      7 S          -0.1771   -0.2578    1.3201 S.O2    1  UNL1        0.0340
      8 O          -0.4573   -1.0679    2.5388 O.2     1  UNL1       -0.1580
      9 O          -0.7829    1.1357    1.4477 O.2     1  UNL1       -0.1580
     10 N           1.5376    0.0561    1.1767 N.3     1  UNL1       -0.1781
     11 C           2.3193   -1.1151    1.0693 C.3     1  UNL1        0.0359
     12 C           3.5447   -0.8683    0.2387 C.3     1  UNL1        0.0266
     13 N           4.0680    0.4577    0.2843 N.pl3   1  UNL1       -0.3273
     14 C           5.4473    0.6996    0.0514 C.ar    1  UNL1        0.0299
     15 C           5.9934    1.9747    0.2307 C.ar    1  UNL1       -0.0379
     16 C           7.3125    2.2265    0.0073 C.ar    1  UNL1       -0.0247
     17 C           8.1713    1.2426   -0.4046 C.ar    1  UNL1        0.1235
     18 F           9.4898    1.4558   -0.6367 F       1  UNL1       -0.2055
     19 C           7.6500   -0.0197   -0.5864 C.ar    1  UNL1       -0.0247
     20 C           6.3196   -0.2742   -0.3612 C.ar    1  UNL1       -0.0379
     21 C           3.2192    1.6023    0.5588 C.3     1  UNL1        0.0266
     22 C           1.7983    1.1059    0.2474 C.3     1  UNL1        0.0359
     23 N          -2.3779   -2.4149    0.8338 N.am    1  UNL1       -0.1788
     24 O          -3.2797   -2.2269    1.8052 O.3     1  UNL1       -0.2921
     25 C          -1.6297   -3.6220    0.8462 C.2     1  UNL1        0.2256
     26 O          -1.7966   -4.5066    1.7429 O.2     1  UNL1       -0.2772
     27 C          -4.9611    1.0364   -0.1623 C.ar    1  UNL1        0.1320
     28 N          -4.6036    2.0460   -0.9979 N.ar    1  UNL1       -0.2372
     29 C          -5.0624    3.2812   -0.8851 C.ar    1  UNL1        0.0663
     30 C          -5.9471    3.5975    0.1153 C.ar    1  UNL1        0.1594
     31 F          -6.4212    4.8661    0.2345 F       1  UNL1       -0.2023
     32 C          -6.3288    2.5941    0.9792 C.ar    1  UNL1        0.0663
     33 N          -5.8266    1.3718    0.8065 N.ar    1  UNL1       -0.2372
     34 H          -5.2308   -1.9736   -1.4726 H       1  UNL1        0.0236
     35 H          -5.9394   -0.4057   -1.8010 H       1  UNL1        0.0236
     36 H          -4.3530   -0.7019   -2.4996 H       1  UNL1        0.0236
     37 H          -4.8921   -0.9456    0.5046 H       1  UNL1        0.0377
     38 H          -2.8104    0.1555    0.8958 H       1  UNL1        0.0294
     39 H          -2.5237    0.5279   -0.8104 H       1  UNL1        0.0294
     40 H          -1.2784   -2.8576   -1.6493 H       1  UNL1        0.0252
     41 H          -3.0374   -2.9042   -1.6128 H       1  UNL1        0.0252
     42 H          -2.1049   -1.5038   -2.4077 H       1  UNL1        0.0252
     43 H          -0.4548   -0.4424   -1.0219 H       1  UNL1        0.0538
     44 H          -0.0683   -2.0027   -0.2290 H       1  UNL1        0.0538
     45 H           1.7606   -1.9931    0.6776 H       1  UNL1        0.0459
     46 H           2.6814   -1.3782    2.1055 H       1  UNL1        0.0459
     47 H           3.4042   -1.2150   -0.8233 H       1  UNL1        0.0477
     48 H           4.3638   -1.5472    0.6251 H       1  UNL1        0.0477
     49 H           5.3656    2.7921    0.5552 H       1  UNL1        0.0637
     50 H           7.7173    3.2264    0.1529 H       1  UNL1        0.0647
     51 H           8.3241   -0.7939   -0.9100 H       1  UNL1        0.0647
     52 H           5.9801   -1.2808   -0.5259 H       1  UNL1        0.0637
     53 H           3.2200    1.8608    1.6343 H       1  UNL1        0.0477
     54 H           3.4579    2.4780   -0.0763 H       1  UNL1        0.0477
     55 H           1.7116    0.8179   -0.8137 H       1  UNL1        0.0459
     56 H           1.1298    1.9520    0.4917 H       1  UNL1        0.0459
     57 H          -3.6779   -3.0472    2.1484 H       1  UNL1        0.2417
     58 H          -0.8940   -3.8355    0.0997 H       1  UNL1        0.1274
     59 H          -4.7590    4.0560   -1.5631 H       1  UNL1        0.0860
     60 H          -7.0221    2.8296    1.7676 H       1  UNL1        0.0860
@<TRIPOS>BOND
     1     1     2    1
     2     2     3    1
     3     3     4    1
     4     4     5    1
     5     4     6    1
     6     6     7    1
     7     7     8    2
     8     7     9    2
     9     7    10    1
    10    10    11    1
    11    11    12    1
    12    12    13    1
    13    13    14    1
    14    14    15   ar
    15    15    16   ar
    16    16    17   ar
    17    17    18    1
    18    17    19   ar
    19    19    20   ar
    20    13    21    1
    21    21    22    1
    22     4    23    1
    23    23    24    1
    24    23    25   am
    25    25    26    2
    26     2    27    1
    27    27    28   ar
    28    28    29   ar
    29    29    30   ar
    30    30    31    1
    31    30    32   ar
    32    32    33   ar
    33    22    10    1
    34    33    27   ar
    35    20    14   ar
    36     1    34    1
    37     1    35    1
    38     1    36    1
    39     2    37    1
    40     3    38    1
    41     3    39    1
    42     5    40    1
    43     5    41    1
    44     5    42    1
    45     6    43    1
    46     6    44    1
    47    11    45    1
    48    11    46    1
    49    12    47    1
    50    12    48    1
    51    15    49    1
    52    16    50    1
    53    19    51    1
    54    20    52    1
    55    21    53    1
    56    21    54    1
    57    22    55    1
    58    22    56    1
    59    24    57    1
    60    25    58    1
    61    29    59    1
    62    32    60    1
