@<TRIPOS>MOLECULE
*****
 61 65 0 0 0
SMALL
GASTEIGER

@<TRIPOS>ATOM
      1 C           8.1167   -1.2485   -1.3359 C.3     1  UNL1       -0.0387
      2 C           7.0215   -0.6334   -0.5372 C.ar    1  UNL1       -0.0330
      3 C           7.3293    0.1956    0.5167 C.ar    1  UNL1        0.0620
      4 C           8.7332    0.4923    0.8731 C.2     1  UNL1        0.3371
      5 O           8.9749    1.2529    1.8419 O.2     1  UNL1       -0.2451
      6 O           9.7799   -0.0475    0.1656 O.3     1  UNL1       -0.4771
      7 C           6.3007    0.7469    1.2358 C.ar    1  UNL1       -0.0472
      8 C           4.9799    0.4944    0.9334 C.ar    1  UNL1       -0.0558
      9 C           4.6522   -0.3437   -0.1317 C.ar    1  UNL1       -0.0237
     10 C           5.6986   -0.8923   -0.8481 C.ar    1  UNL1       -0.0387
     11 C           5.1463   -1.7542   -1.9448 C.3     1  UNL1       -0.0251
     12 C           3.7993   -1.0556   -2.1783 C.3     1  UNL1       -0.0263
     13 C           3.3935   -0.8211   -0.7177 C.3     1  UNL1        0.0493
     14 N           2.3091    0.1362   -0.6400 N.am    1  UNL1       -0.3033
     15 C           1.0780   -0.2545   -0.1012 C.2     1  UNL1        0.2630
     16 O           0.9744   -1.4686    0.3046 O.2     1  UNL1       -0.2685
     17 C          -0.1015    0.5843    0.0447 C.ar    1  UNL1        0.1314
     18 C          -1.2561    0.0450    0.6015 C.ar    1  UNL1       -0.0005
     19 C          -2.4235    0.7540    0.7824 C.ar    1  UNL1        0.1300
     20 C          -3.5877    0.1029    1.3765 C.2     1  UNL1        0.2628
     21 O          -3.5254   -1.1001    1.7207 O.2     1  UNL1       -0.2685
     22 N          -4.8056    0.7982    1.5801 N.am    1  UNL1       -0.3060
     23 C          -6.0038    0.2245    2.1597 C.3     1  UNL1        0.0372
     24 C          -6.7299   -0.6244    1.2071 C.ar    1  UNL1       -0.0296
     25 C          -6.5614   -1.9834    1.0770 C.ar    1  UNL1       -0.0543
     26 C          -7.2884   -2.7174    0.1385 C.ar    1  UNL1       -0.0256
     27 C          -8.1976   -2.0873   -0.6827 C.ar    1  UNL1        0.1350
     28 F          -8.9094   -2.8063   -1.6019 F       1  UNL1       -0.2049
     29 C          -8.3823   -0.7327   -0.5704 C.ar    1  UNL1        0.0902
     30 C          -9.3519   -0.0323   -1.4404 C.3     1  UNL1        0.4201
     31 F          -9.0020   -0.1970   -2.7868 F       1  UNL1       -0.1658
     32 F         -10.5679   -0.6832   -1.2937 F       1  UNL1       -0.1658
     33 F          -9.4561    1.3016   -1.1482 F       1  UNL1       -0.1658
     34 C          -7.6587   -0.0282    0.3576 C.ar    1  UNL1       -0.0426
     35 N          -2.4206    2.0261    0.3940 N.ar    1  UNL1       -0.2206
     36 C          -1.3291    2.5983   -0.1513 C.ar    1  UNL1        0.1926
     37 C          -1.0461    3.8577   -0.6308 C.ar    1  UNL1        0.1870
     38 F          -1.8899    4.9211   -0.6677 F       1  UNL1       -0.1999
     39 C           0.2538    3.8972   -1.0846 C.ar    1  UNL1        0.0872
     40 N           0.7321    2.6629   -0.8716 N.ar    1  UNL1       -0.1697
     41 N          -0.1834    1.8739   -0.3202 N.ar    1  UNL1       -0.2067
     42 H           8.7432   -1.9378   -0.7277 H       1  UNL1        0.0278
     43 H           8.7091   -0.4732   -1.8635 H       1  UNL1        0.0278
     44 H           7.6628   -1.8709   -2.1539 H       1  UNL1        0.0278
     45 H          10.6884    0.3842    0.1015 H       1  UNL1        0.2954
     46 H           6.5582    1.4022    2.0684 H       1  UNL1        0.0626
     47 H           4.1834    0.9446    1.5200 H       1  UNL1        0.0621
     48 H           4.9432   -2.7739   -1.5930 H       1  UNL1        0.0314
     49 H           5.7630   -1.7223   -2.8613 H       1  UNL1        0.0314
     50 H           3.0875   -1.7098   -2.6953 H       1  UNL1        0.0289
     51 H           4.0173   -0.1073   -2.6762 H       1  UNL1        0.0289
     52 H           3.0639   -1.7799   -0.3080 H       1  UNL1        0.0548
     53 H           2.4346    1.1078   -0.9790 H       1  UNL1        0.1497
     54 H          -1.2637   -1.0030    0.9231 H       1  UNL1        0.0663
     55 H          -4.7842    1.8156    1.2659 H       1  UNL1        0.1494
     56 H          -5.7486   -0.3188    3.0959 H       1  UNL1        0.0512
     57 H          -6.6815    1.0754    2.4514 H       1  UNL1        0.0512
     58 H          -5.8536   -2.4887    1.7211 H       1  UNL1        0.0622
     59 H          -7.1106   -3.7982    0.0807 H       1  UNL1        0.0646
     60 H          -7.7990    1.0590    0.4564 H       1  UNL1        0.0627
     61 H           0.7913    4.7408   -1.5241 H       1  UNL1        0.0878
@<TRIPOS>BOND
     1     1     2    1
     2     2     3   ar
     3     3     4    1
     4     4     5    2
     5     4     6    1
     6     3     7   ar
     7     7     8   ar
     8     8     9   ar
     9     9    10   ar
    10    10    11    1
    11    11    12    1
    12    12    13    1
    13    13    14    1
    14    14    15   am
    15    15    16    2
    16    15    17    1
    17    17    18   ar
    18    18    19   ar
    19    19    20    1
    20    20    21    2
    21    20    22   am
    22    22    23    1
    23    23    24    1
    24    24    25   ar
    25    25    26   ar
    26    26    27   ar
    27    27    28    1
    28    27    29   ar
    29    29    30    1
    30    30    31    1
    31    30    32    1
    32    30    33    1
    33    29    34   ar
    34    19    35   ar
    35    35    36   ar
    36    36    37   ar
    37    37    38    1
    38    37    39   ar
    39    39    40   ar
    40    40    41   ar
    41    10     2   ar
    42    41    17   ar
    43    13     9    1
    44    34    24   ar
    45    41    36   ar
    46     1    42    1
    47     1    43    1
    48     1    44    1
    49     6    45    1
    50     7    46    1
    51     8    47    1
    52    11    48    1
    53    11    49    1
    54    12    50    1
    55    12    51    1
    56    13    52    1
    57    14    53    1
    58    18    54    1
    59    22    55    1
    60    23    56    1
    61    23    57    1
    62    25    58    1
    63    26    59    1
    64    34    60    1
    65    39    61    1
