
     RDKit          3D

 61 65  0  0  0  0  0  0  0  0999 V2000
    8.1167   -1.2485   -1.3359 C   0  0  0  0  0  0  0  0  0  0  0  0
    7.0215   -0.6334   -0.5372 C   0  0  0  0  0  0  0  0  0  0  0  0
    7.3293    0.1956    0.5167 C   0  0  0  0  0  0  0  0  0  0  0  0
    8.7332    0.4923    0.8731 C   0  0  0  0  0  0  0  0  0  0  0  0
    8.9749    1.2529    1.8419 O   0  0  0  0  0  0  0  0  0  0  0  0
    9.7799   -0.0475    0.1656 O   0  0  0  0  0  0  0  0  0  0  0  0
    6.3007    0.7469    1.2358 C   0  0  0  0  0  0  0  0  0  0  0  0
    4.9799    0.4944    0.9334 C   0  0  0  0  0  0  0  0  0  0  0  0
    4.6522   -0.3437   -0.1317 C   0  0  0  0  0  0  0  0  0  0  0  0
    5.6986   -0.8923   -0.8481 C   0  0  0  0  0  0  0  0  0  0  0  0
    5.1463   -1.7542   -1.9448 C   0  0  0  0  0  0  0  0  0  0  0  0
    3.7993   -1.0556   -2.1783 C   0  0  0  0  0  0  0  0  0  0  0  0
    3.3935   -0.8211   -0.7177 C   0  0  2  0  0  0  0  0  0  0  0  0
    2.3091    0.1362   -0.6400 N   0  0  0  0  0  0  0  0  0  0  0  0
    1.0780   -0.2545   -0.1012 C   0  0  0  0  0  0  0  0  0  0  0  0
    0.9744   -1.4686    0.3046 O   0  0  0  0  0  0  0  0  0  0  0  0
   -0.1015    0.5843    0.0447 C   0  0  0  0  0  0  0  0  0  0  0  0
   -1.2561    0.0450    0.6015 C   0  0  0  0  0  0  0  0  0  0  0  0
   -2.4235    0.7540    0.7824 C   0  0  0  0  0  0  0  0  0  0  0  0
   -3.5877    0.1029    1.3765 C   0  0  0  0  0  0  0  0  0  0  0  0
   -3.5254   -1.1001    1.7207 O   0  0  0  0  0  0  0  0  0  0  0  0
   -4.8056    0.7982    1.5801 N   0  0  0  0  0  0  0  0  0  0  0  0
   -6.0038    0.2245    2.1597 C   0  0  0  0  0  0  0  0  0  0  0  0
   -6.7299   -0.6244    1.2071 C   0  0  0  0  0  0  0  0  0  0  0  0
   -6.5614   -1.9834    1.0770 C   0  0  0  0  0  0  0  0  0  0  0  0
   -7.2884   -2.7174    0.1385 C   0  0  0  0  0  0  0  0  0  0  0  0
   -8.1976   -2.0873   -0.6827 C   0  0  0  0  0  0  0  0  0  0  0  0
   -8.9094   -2.8063   -1.6019 F   0  0  0  0  0  0  0  0  0  0  0  0
   -8.3823   -0.7327   -0.5704 C   0  0  0  0  0  0  0  0  0  0  0  0
   -9.3519   -0.0323   -1.4404 C   0  0  0  0  0  0  0  0  0  0  0  0
   -9.0020   -0.1970   -2.7868 F   0  0  0  0  0  0  0  0  0  0  0  0
  -10.5679   -0.6832   -1.2937 F   0  0  0  0  0  0  0  0  0  0  0  0
   -9.4561    1.3016   -1.1482 F   0  0  0  0  0  0  0  0  0  0  0  0
   -7.6587   -0.0282    0.3576 C   0  0  0  0  0  0  0  0  0  0  0  0
   -2.4206    2.0261    0.3940 N   0  0  0  0  0  0  0  0  0  0  0  0
   -1.3291    2.5983   -0.1513 C   0  0  0  0  0  0  0  0  0  0  0  0
   -1.0461    3.8577   -0.6308 C   0  0  0  0  0  0  0  0  0  0  0  0
   -1.8899    4.9211   -0.6677 F   0  0  0  0  0  0  0  0  0  0  0  0
    0.2538    3.8972   -1.0846 C   0  0  0  0  0  0  0  0  0  0  0  0
    0.7321    2.6629   -0.8716 N   0  0  0  0  0  0  0  0  0  0  0  0
   -0.1834    1.8739   -0.3202 N   0  0  0  0  0  0  0  0  0  0  0  0
    8.7432   -1.9378   -0.7277 H   0  0  0  0  0  0  0  0  0  0  0  0
    8.7091   -0.4732   -1.8635 H   0  0  0  0  0  0  0  0  0  0  0  0
    7.6628   -1.8709   -2.1539 H   0  0  0  0  0  0  0  0  0  0  0  0
   10.6884    0.3842    0.1015 H   0  0  0  0  0  0  0  0  0  0  0  0
    6.5582    1.4022    2.0684 H   0  0  0  0  0  0  0  0  0  0  0  0
    4.1834    0.9446    1.5200 H   0  0  0  0  0  0  0  0  0  0  0  0
    4.9432   -2.7739   -1.5930 H   0  0  0  0  0  0  0  0  0  0  0  0
    5.7630   -1.7223   -2.8613 H   0  0  0  0  0  0  0  0  0  0  0  0
    3.0875   -1.7098   -2.6953 H   0  0  0  0  0  0  0  0  0  0  0  0
    4.0173   -0.1073   -2.6762 H   0  0  0  0  0  0  0  0  0  0  0  0
    3.0639   -1.7799   -0.3080 H   0  0  0  0  0  0  0  0  0  0  0  0
    2.4346    1.1078   -0.9790 H   0  0  0  0  0  0  0  0  0  0  0  0
   -1.2637   -1.0030    0.9231 H   0  0  0  0  0  0  0  0  0  0  0  0
   -4.7842    1.8156    1.2659 H   0  0  0  0  0  0  0  0  0  0  0  0
   -5.7486   -0.3188    3.0959 H   0  0  0  0  0  0  0  0  0  0  0  0
   -6.6815    1.0754    2.4514 H   0  0  0  0  0  0  0  0  0  0  0  0
   -5.8536   -2.4887    1.7211 H   0  0  0  0  0  0  0  0  0  0  0  0
   -7.1106   -3.7982    0.0807 H   0  0  0  0  0  0  0  0  0  0  0  0
   -7.7990    1.0590    0.4564 H   0  0  0  0  0  0  0  0  0  0  0  0
    0.7913    4.7408   -1.5241 H   0  0  0  0  0  0  0  0  0  0  0  0
  1  2  1  0
  2  3  2  0
  3  4  1  0
  4  5  2  0
  4  6  1  0
  3  7  1  0
  7  8  2  0
  8  9  1  0
  9 10  2  0
 10 11  1  0
 11 12  1  0
 12 13  1  0
 13 14  1  0
 14 15  1  0
 15 16  2  0
 15 17  1  0
 17 18  2  0
 18 19  1  0
 19 20  1  0
 20 21  2  0
 20 22  1  0
 22 23  1  0
 23 24  1  0
 24 25  2  0
 25 26  1  0
 26 27  2  0
 27 28  1  0
 27 29  1  0
 29 30  1  0
 30 31  1  0
 30 32  1  0
 30 33  1  0
 29 34  2  0
 19 35  2  0
 35 36  1  0
 36 37  2  0
 37 38  1  0
 37 39  1  0
 39 40  2  0
 40 41  1  0
 10  2  1  0
 41 17  1  0
 13  9  1  0
 34 24  1  0
 41 36  1  0
  1 42  1  0
  1 43  1  0
  1 44  1  0
  6 45  1  0
  7 46  1  0
  8 47  1  0
 11 48  1  0
 11 49  1  0
 12 50  1  0
 12 51  1  0
 13 52  1  1
 14 53  1  0
 18 54  1  0
 22 55  1  0
 23 56  1  0
 23 57  1  0
 25 58  1  0
 26 59  1  0
 34 60  1  0
 39 61  1  0
M  END
$$$$
