@<TRIPOS>MOLECULE
*****
 70 74 0 0 0
SMALL
GASTEIGER

@<TRIPOS>ATOM
      1 C          -5.2324    1.6414   -1.0026 C.3     1  UNL1        0.0000
      2 C          -4.0128    1.0287   -1.7069 C.3     1  UNL1        0.0000
      3 C          -2.9575    2.0801   -1.6288 C.ar    1  UNL1        0.0000
      4 C          -1.6810    1.8652   -1.1866 C.ar    1  UNL1        0.0000
      5 C          -0.7125    2.8341   -1.1389 C.ar    1  UNL1        0.0000
      6 C           0.6538    2.6162   -0.6797 C.2     1  UNL1        0.0000
      7 C           1.3244    1.5015   -0.9141 C.2     1  UNL1        0.0000
      8 F           0.6615    0.5463   -1.6216 F       1  UNL1        0.0000
      9 C           2.6838    1.2474   -0.4783 C.ar    1  UNL1        0.0000
     10 C           3.2679    0.0325   -0.7658 C.ar    1  UNL1        0.0000
     11 N           4.5374   -0.2503   -0.3780 N.ar    1  UNL1        0.0000
     12 C           5.2374    0.6746    0.3009 C.ar    1  UNL1        0.0000
     13 C           6.6000    0.3737    0.7210 C.1     1  UNL1        0.0000
     14 C           7.7381    0.1314    1.0618 C.1     1  UNL1        0.0000
     15 SI          9.4492   -0.2181    1.5440 Si      1  UNL1        0.0000
     16 C           9.5809   -0.1216    3.3858 C.3     1  UNL1        0.0000
     17 C           9.9645   -1.9340    0.9661 C.3     1  UNL1        0.0000
     18 C          10.6273    1.0357    0.8058 C.3     1  UNL1        0.0000
     19 C           4.6856    1.8902    0.6007 C.ar    1  UNL1        0.0000
     20 N           3.4137    2.1342    0.1952 N.ar    1  UNL1        0.0000
     21 C          -1.0799    4.0994   -1.5707 C.ar    1  UNL1        0.0000
     22 C          -2.3554    4.3665   -2.0253 C.ar    1  UNL1        0.0000
     23 C          -3.2988    3.3454   -2.0529 C.ar    1  UNL1        0.0000
     24 F          -4.5559    3.6201   -2.5064 F       1  UNL1        0.0000
     25 N          -4.3614    0.9495   -3.0929 N.2     1  UNL1        0.0000
     26 C          -5.2630    0.1545   -3.5098 C.2     1  UNL1        0.0000
     27 N          -5.6551    0.0273   -4.8512 N.pl3   1  UNL1        0.0000
     28 S          -6.0122   -0.8731   -2.2582 S.3     1  UNL1        0.0000
     29 C          -4.6130   -1.3041   -1.1532 C.3     1  UNL1        0.0000
     30 C          -4.8635   -2.3566   -0.1836 C.2     1  UNL1        0.0000
     31 O          -5.2934   -3.4708   -0.7008 O.2     1  UNL1        0.0000
     32 N          -4.7017   -2.2988    1.2009 N.am    1  UNL1        0.0000
     33 C          -4.3022   -1.1426    1.9551 C.3     1  UNL1        0.0000
     34 C          -5.0561   -1.0602    3.2804 C.3     1  UNL1        0.0000
     35 O          -5.2025   -2.2675    3.9163 O.3     1  UNL1        0.0000
     36 C          -5.9174   -3.1174    3.0800 C.3     1  UNL1        0.0000
     37 C          -4.9385   -3.5258    1.9788 C.3     1  UNL1        0.0000
     38 C          -3.2786   -1.4265   -1.9083 C.3     1  UNL1        0.0000
     39 C          -3.6079   -0.2484   -1.0699 C.3     1  UNL1        0.0000
     40 H          -5.9826    2.0258   -1.7278 H       1  UNL1        0.0000
     41 H          -5.7537    0.9073   -0.3723 H       1  UNL1        0.0000
     42 H          -4.9546    2.5050   -0.3679 H       1  UNL1        0.0000
     43 H          -1.4292    0.8786   -0.8583 H       1  UNL1        0.0000
     44 H           1.1904    3.3880   -0.1107 H       1  UNL1        0.0000
     45 H           2.7624   -0.7412   -1.2986 H       1  UNL1        0.0000
     46 H           9.5016    0.9335    3.7482 H       1  UNL1        0.0000
     47 H           8.8243   -0.7281    3.9118 H       1  UNL1        0.0000
     48 H          10.6062   -0.4605    3.6796 H       1  UNL1        0.0000
     49 H           9.7175   -1.9973   -0.1257 H       1  UNL1        0.0000
     50 H          11.0463   -2.0442    1.1438 H       1  UNL1        0.0000
     51 H           9.3402   -2.6797    1.4893 H       1  UNL1        0.0000
     52 H          11.6581    0.6929    1.0285 H       1  UNL1        0.0000
     53 H          10.4933    2.0174    1.2995 H       1  UNL1        0.0000
     54 H          10.5237    1.1166   -0.2853 H       1  UNL1        0.0000
     55 H           5.2819    2.6097    1.1444 H       1  UNL1        0.0000
     56 H          -0.3468    4.8965   -1.5513 H       1  UNL1        0.0000
     57 H          -2.6622    5.3464   -2.3695 H       1  UNL1        0.0000
     58 H          -5.9720   -0.9046   -5.1902 H       1  UNL1        0.0000
     59 H          -5.6550    0.8076   -5.5482 H       1  UNL1        0.0000
     60 H          -4.6349   -0.2315    1.4013 H       1  UNL1        0.0000
     61 H          -3.2167   -1.1870    2.1150 H       1  UNL1        0.0000
     62 H          -6.0730   -0.6631    3.0384 H       1  UNL1        0.0000
     63 H          -4.5217   -0.3133    3.9151 H       1  UNL1        0.0000
     64 H          -6.7232   -2.5604    2.5563 H       1  UNL1        0.0000
     65 H          -6.3245   -3.9988    3.6175 H       1  UNL1        0.0000
     66 H          -3.9842   -3.7877    2.4770 H       1  UNL1        0.0000
     67 H          -5.3441   -4.3256    1.3479 H       1  UNL1        0.0000
     68 H          -3.2872   -1.3020   -3.0120 H       1  UNL1        0.0000
     69 H          -2.5642   -2.1891   -1.5689 H       1  UNL1        0.0000
     70 H          -2.9889   -0.2105   -0.1355 H       1  UNL1        0.0000
@<TRIPOS>BOND
     1     2     1    1
     2     2     3    1
     3     3     4   ar
     4     4     5   ar
     5     5     6    1
     6     6     7    2
     7     7     8    1
     8     7     9    1
     9     9    10   ar
    10    10    11   ar
    11    11    12   ar
    12    12    13    1
    13    13    14    3
    14    14    15    1
    15    15    16    1
    16    15    17    1
    17    15    18    1
    18    12    19   ar
    19    19    20   ar
    20     5    21   ar
    21    21    22   ar
    22    22    23   ar
    23    23    24    1
    24     2    25    1
    25    25    26    2
    26    26    27    1
    27    26    28    1
    28    28    29    1
    29    29    30    1
    30    30    31    2
    31    30    32   am
    32    32    33    1
    33    33    34    1
    34    34    35    1
    35    35    36    1
    36    36    37    1
    37    29    38    1
    38    38    39    1
    39    39     2    1
    40    23     3   ar
    41    39    29    1
    42    20     9   ar
    43    37    32    1
    44     1    40    1
    45     1    41    1
    46     1    42    1
    47     4    43    1
    48     6    44    1
    49    10    45    1
    50    16    46    1
    51    16    47    1
    52    16    48    1
    53    17    49    1
    54    17    50    1
    55    17    51    1
    56    18    52    1
    57    18    53    1
    58    18    54    1
    59    19    55    1
    60    21    56    1
    61    22    57    1
    62    27    58    1
    63    27    59    1
    64    33    60    1
    65    33    61    1
    66    34    62    1
    67    34    63    1
    68    36    64    1
    69    36    65    1
    70    37    66    1
    71    37    67    1
    72    38    68    1
    73    38    69    1
    74    39    70    1
