@<TRIPOS>MOLECULE
*****
 69 72 0 0 0
SMALL
GASTEIGER

@<TRIPOS>ATOM
      1 C           5.1940    2.9324   -2.3813 C.3     1  UNL1       -0.0526
      2 C           4.3370    2.8211   -1.1506 C.3     1  UNL1       -0.0068
      3 N           4.8911    2.0222   -0.1053 N.3     1  UNL1       -0.3137
      4 C           4.9864    0.6196   -0.3765 C.3     1  UNL1        0.0237
      5 C           3.6378   -0.0099   -0.4533 C.3     1  UNL1        0.0862
      6 O           3.6156   -1.3556   -0.7005 O.3     1  UNL1       -0.3887
      7 C           2.7668    0.4571    0.6817 C.3     1  UNL1        0.0545
      8 C           3.1751   -0.0243    2.0361 C.3     1  UNL1       -0.0067
      9 C           3.1821   -1.4600    2.2401 C.ar    1  UNL1       -0.0455
     10 C           2.0366   -2.1156    2.6883 C.ar    1  UNL1       -0.0585
     11 C           2.1236   -3.4796    2.8590 C.ar    1  UNL1       -0.0615
     12 C           3.2749   -4.1971    2.6077 C.ar    1  UNL1       -0.0617
     13 C           4.4087   -3.5498    2.1642 C.ar    1  UNL1       -0.0615
     14 C           4.3265   -2.1789    1.9912 C.ar    1  UNL1       -0.0585
     15 N           1.3578    0.1367    0.4246 N.am    1  UNL1       -0.3057
     16 C           0.3498    1.0709    0.1704 C.2     1  UNL1        0.2445
     17 O           0.6987    2.3010    0.1615 O.2     1  UNL1       -0.2702
     18 C          -1.0428    0.7350   -0.0793 C.ar    1  UNL1        0.0392
     19 C          -1.5151   -0.5405   -0.0312 C.ar    1  UNL1       -0.0249
     20 C          -2.8535   -0.8619   -0.2737 C.ar    1  UNL1        0.0753
     21 C          -3.7554    0.1255   -0.5758 C.ar    1  UNL1        0.0723
     22 C          -3.2878    1.4431   -0.6296 C.ar    1  UNL1        0.0056
     23 C          -1.9527    1.7216   -0.3828 C.ar    1  UNL1       -0.0401
     24 C          -4.3681    2.2321   -0.9460 C.ar    1  UNL1       -0.0223
     25 C          -4.3331    3.6997   -1.1083 C.3     1  UNL1       -0.0285
     26 C          -4.2661    4.4482    0.1933 C.3     1  UNL1       -0.0612
     27 C          -5.4411    1.4089   -1.0747 C.ar    1  UNL1        0.0090
     28 N          -5.0697    0.1173   -0.8487 N.ar    1  UNL1       -0.3433
     29 C          -5.9739   -1.0064   -0.9053 C.3     1  UNL1        0.0445
     30 C          -5.4953   -2.1460   -1.7453 C.3     1  UNL1        0.1028
     31 S          -4.3289   -3.1736   -0.9070 S.O2    1  UNL1        0.0470
     32 O          -5.0313   -4.0396    0.1215 O.2     1  UNL1       -0.1549
     33 O          -3.6964   -4.0863   -1.9171 O.2     1  UNL1       -0.1549
     34 N          -3.0856   -2.2582   -0.1583 N.pl3   1  UNL1       -0.2083
     35 C          -2.1439   -2.9777    0.7024 C.3     1  UNL1        0.0232
     36 H           6.2885    2.9132   -2.1479 H       1  UNL1        0.0242
     37 H           4.9219    2.2063   -3.1743 H       1  UNL1        0.0242
     38 H           5.0096    3.9477   -2.8421 H       1  UNL1        0.0242
     39 H           4.2364    3.8636   -0.7264 H       1  UNL1        0.0421
     40 H           3.3157    2.5242   -1.4612 H       1  UNL1        0.0421
     41 H           5.8143    2.4533    0.1573 H       1  UNL1        0.1220
     42 H           5.4271    0.5365   -1.4176 H       1  UNL1        0.0450
     43 H           5.7168    0.1566    0.2796 H       1  UNL1        0.0450
     44 H           3.1677    0.4599   -1.3810 H       1  UNL1        0.0624
     45 H           3.6057   -1.5653   -1.6804 H       1  UNL1        0.2099
     46 H           2.8252    1.5605    0.6955 H       1  UNL1        0.0527
     47 H           2.4370    0.4261    2.7598 H       1  UNL1        0.0332
     48 H           4.1528    0.4123    2.3315 H       1  UNL1        0.0332
     49 H           1.1202   -1.5645    2.8907 H       1  UNL1        0.0620
     50 H           1.2326   -3.9902    3.2082 H       1  UNL1        0.0618
     51 H           3.2951   -5.2883    2.7595 H       1  UNL1        0.0618
     52 H           5.3052   -4.1255    1.9710 H       1  UNL1        0.0618
     53 H           5.2526   -1.7215    1.6417 H       1  UNL1        0.0620
     54 H           1.1100   -0.8727    0.4370 H       1  UNL1        0.1494
     55 H          -0.8538   -1.3452    0.2010 H       1  UNL1        0.0645
     56 H          -1.6062    2.7568   -0.4301 H       1  UNL1        0.0632
     57 H          -3.4424    4.0314   -1.7164 H       1  UNL1        0.0311
     58 H          -5.2281    4.0163   -1.6851 H       1  UNL1        0.0311
     59 H          -3.8692    5.4658   -0.0225 H       1  UNL1        0.0233
     60 H          -3.5757    3.9703    0.9083 H       1  UNL1        0.0233
     61 H          -5.3036    4.5430    0.5861 H       1  UNL1        0.0233
     62 H          -6.4575    1.7024   -1.3202 H       1  UNL1        0.0812
     63 H          -6.9572   -0.6712   -1.3425 H       1  UNL1        0.0508
     64 H          -6.2534   -1.3948    0.1095 H       1  UNL1        0.0508
     65 H          -6.3975   -2.7911   -1.9408 H       1  UNL1        0.0536
     66 H          -5.1593   -1.8192   -2.7396 H       1  UNL1        0.0536
     67 H          -2.6970   -3.8857    1.0537 H       1  UNL1        0.0446
     68 H          -1.2682   -3.3425    0.1381 H       1  UNL1        0.0446
     69 H          -1.8875   -2.4002    1.6081 H       1  UNL1        0.0446
@<TRIPOS>BOND
     1     1     2    1
     2     2     3    1
     3     3     4    1
     4     4     5    1
     5     5     6    1
     6     5     7    1
     7     7     8    1
     8     8     9    1
     9     9    10   ar
    10    10    11   ar
    11    11    12   ar
    12    12    13   ar
    13    13    14   ar
    14     7    15    1
    15    15    16   am
    16    16    17    2
    17    16    18    1
    18    18    19   ar
    19    19    20   ar
    20    20    21   ar
    21    21    22   ar
    22    22    23   ar
    23    22    24   ar
    24    24    25    1
    25    25    26    1
    26    24    27   ar
    27    27    28   ar
    28    28    29    1
    29    29    30    1
    30    30    31    1
    31    31    32    2
    32    31    33    2
    33    31    34    1
    34    34    35    1
    35    14     9   ar
    36    23    18   ar
    37    34    20    1
    38    28    21   ar
    39     1    36    1
    40     1    37    1
    41     1    38    1
    42     2    39    1
    43     2    40    1
    44     3    41    1
    45     4    42    1
    46     4    43    1
    47     5    44    1
    48     6    45    1
    49     7    46    1
    50     8    47    1
    51     8    48    1
    52    10    49    1
    53    11    50    1
    54    12    51    1
    55    13    52    1
    56    14    53    1
    57    15    54    1
    58    19    55    1
    59    23    56    1
    60    25    57    1
    61    25    58    1
    62    26    59    1
    63    26    60    1
    64    26    61    1
    65    27    62    1
    66    29    63    1
    67    29    64    1
    68    30    65    1
    69    30    66    1
    70    35    67    1
    71    35    68    1
    72    35    69    1
