
     RDKit          3D

 69 72  0  0  0  0  0  0  0  0999 V2000
    5.1940    2.9324   -2.3813 C   0  0  0  0  0  0  0  0  0  0  0  0
    4.3370    2.8211   -1.1506 C   0  0  0  0  0  0  0  0  0  0  0  0
    4.8911    2.0222   -0.1053 N   0  0  0  0  0  0  0  0  0  0  0  0
    4.9864    0.6196   -0.3765 C   0  0  0  0  0  0  0  0  0  0  0  0
    3.6378   -0.0099   -0.4533 C   0  0  1  0  0  0  0  0  0  0  0  0
    3.6156   -1.3556   -0.7005 O   0  0  0  0  0  0  0  0  0  0  0  0
    2.7668    0.4571    0.6817 C   0  0  2  0  0  0  0  0  0  0  0  0
    3.1751   -0.0243    2.0361 C   0  0  0  0  0  0  0  0  0  0  0  0
    3.1821   -1.4600    2.2401 C   0  0  0  0  0  0  0  0  0  0  0  0
    2.0366   -2.1156    2.6883 C   0  0  0  0  0  0  0  0  0  0  0  0
    2.1236   -3.4796    2.8590 C   0  0  0  0  0  0  0  0  0  0  0  0
    3.2749   -4.1971    2.6077 C   0  0  0  0  0  0  0  0  0  0  0  0
    4.4087   -3.5498    2.1642 C   0  0  0  0  0  0  0  0  0  0  0  0
    4.3265   -2.1789    1.9912 C   0  0  0  0  0  0  0  0  0  0  0  0
    1.3578    0.1367    0.4246 N   0  0  0  0  0  0  0  0  0  0  0  0
    0.3498    1.0709    0.1704 C   0  0  0  0  0  0  0  0  0  0  0  0
    0.6987    2.3010    0.1615 O   0  0  0  0  0  0  0  0  0  0  0  0
   -1.0428    0.7350   -0.0793 C   0  0  0  0  0  0  0  0  0  0  0  0
   -1.5151   -0.5405   -0.0312 C   0  0  0  0  0  0  0  0  0  0  0  0
   -2.8535   -0.8619   -0.2737 C   0  0  0  0  0  0  0  0  0  0  0  0
   -3.7554    0.1255   -0.5758 C   0  0  0  0  0  0  0  0  0  0  0  0
   -3.2878    1.4431   -0.6296 C   0  0  0  0  0  0  0  0  0  0  0  0
   -1.9527    1.7216   -0.3828 C   0  0  0  0  0  0  0  0  0  0  0  0
   -4.3681    2.2321   -0.9460 C   0  0  0  0  0  0  0  0  0  0  0  0
   -4.3331    3.6997   -1.1083 C   0  0  0  0  0  0  0  0  0  0  0  0
   -4.2661    4.4482    0.1933 C   0  0  0  0  0  0  0  0  0  0  0  0
   -5.4411    1.4089   -1.0747 C   0  0  0  0  0  0  0  0  0  0  0  0
   -5.0697    0.1173   -0.8487 N   0  0  0  0  0  0  0  0  0  0  0  0
   -5.9739   -1.0064   -0.9053 C   0  0  0  0  0  0  0  0  0  0  0  0
   -5.4953   -2.1460   -1.7453 C   0  0  0  0  0  0  0  0  0  0  0  0
   -4.3289   -3.1736   -0.9070 S   0  0  0  0  0  6  0  0  0  0  0  0
   -5.0313   -4.0396    0.1215 O   0  0  0  0  0  0  0  0  0  0  0  0
   -3.6964   -4.0863   -1.9171 O   0  0  0  0  0  0  0  0  0  0  0  0
   -3.0856   -2.2582   -0.1583 N   0  0  0  0  0  0  0  0  0  0  0  0
   -2.1439   -2.9777    0.7024 C   0  0  0  0  0  0  0  0  0  0  0  0
    6.2885    2.9132   -2.1479 H   0  0  0  0  0  0  0  0  0  0  0  0
    4.9219    2.2063   -3.1743 H   0  0  0  0  0  0  0  0  0  0  0  0
    5.0096    3.9477   -2.8421 H   0  0  0  0  0  0  0  0  0  0  0  0
    4.2364    3.8636   -0.7264 H   0  0  0  0  0  0  0  0  0  0  0  0
    3.3157    2.5242   -1.4612 H   0  0  0  0  0  0  0  0  0  0  0  0
    5.8143    2.4533    0.1573 H   0  0  0  0  0  0  0  0  0  0  0  0
    5.4271    0.5365   -1.4176 H   0  0  0  0  0  0  0  0  0  0  0  0
    5.7168    0.1566    0.2796 H   0  0  0  0  0  0  0  0  0  0  0  0
    3.1677    0.4599   -1.3810 H   0  0  0  0  0  0  0  0  0  0  0  0
    3.6057   -1.5653   -1.6804 H   0  0  0  0  0  0  0  0  0  0  0  0
    2.8252    1.5605    0.6955 H   0  0  0  0  0  0  0  0  0  0  0  0
    2.4370    0.4261    2.7598 H   0  0  0  0  0  0  0  0  0  0  0  0
    4.1528    0.4123    2.3315 H   0  0  0  0  0  0  0  0  0  0  0  0
    1.1202   -1.5645    2.8907 H   0  0  0  0  0  0  0  0  0  0  0  0
    1.2326   -3.9902    3.2082 H   0  0  0  0  0  0  0  0  0  0  0  0
    3.2951   -5.2883    2.7595 H   0  0  0  0  0  0  0  0  0  0  0  0
    5.3052   -4.1255    1.9710 H   0  0  0  0  0  0  0  0  0  0  0  0
    5.2526   -1.7215    1.6417 H   0  0  0  0  0  0  0  0  0  0  0  0
    1.1100   -0.8727    0.4370 H   0  0  0  0  0  0  0  0  0  0  0  0
   -0.8538   -1.3452    0.2010 H   0  0  0  0  0  0  0  0  0  0  0  0
   -1.6062    2.7568   -0.4301 H   0  0  0  0  0  0  0  0  0  0  0  0
   -3.4424    4.0314   -1.7164 H   0  0  0  0  0  0  0  0  0  0  0  0
   -5.2281    4.0163   -1.6851 H   0  0  0  0  0  0  0  0  0  0  0  0
   -3.8692    5.4658   -0.0225 H   0  0  0  0  0  0  0  0  0  0  0  0
   -3.5757    3.9703    0.9083 H   0  0  0  0  0  0  0  0  0  0  0  0
   -5.3036    4.5430    0.5861 H   0  0  0  0  0  0  0  0  0  0  0  0
   -6.4575    1.7024   -1.3202 H   0  0  0  0  0  0  0  0  0  0  0  0
   -6.9572   -0.6712   -1.3425 H   0  0  0  0  0  0  0  0  0  0  0  0
   -6.2534   -1.3948    0.1095 H   0  0  0  0  0  0  0  0  0  0  0  0
   -6.3975   -2.7911   -1.9408 H   0  0  0  0  0  0  0  0  0  0  0  0
   -5.1593   -1.8192   -2.7396 H   0  0  0  0  0  0  0  0  0  0  0  0
   -2.6970   -3.8857    1.0537 H   0  0  0  0  0  0  0  0  0  0  0  0
   -1.2682   -3.3425    0.1381 H   0  0  0  0  0  0  0  0  0  0  0  0
   -1.8875   -2.4002    1.6081 H   0  0  0  0  0  0  0  0  0  0  0  0
  1  2  1  0
  2  3  1  0
  3  4  1  0
  4  5  1  0
  5  6  1  0
  5  7  1  0
  7  8  1  0
  8  9  1  0
  9 10  2  0
 10 11  1  0
 11 12  2  0
 12 13  1  0
 13 14  2  0
  7 15  1  0
 15 16  1  0
 16 17  2  0
 16 18  1  0
 18 19  2  0
 19 20  1  0
 20 21  2  0
 21 22  1  0
 22 23  2  0
 22 24  1  0
 24 25  1  0
 25 26  1  0
 24 27  2  0
 27 28  1  0
 28 29  1  0
 29 30  1  0
 30 31  1  0
 31 32  2  0
 31 33  2  0
 31 34  1  0
 34 35  1  0
 14  9  1  0
 23 18  1  0
 34 20  1  0
 28 21  1  0
  1 36  1  0
  1 37  1  0
  1 38  1  0
  2 39  1  0
  2 40  1  0
  3 41  1  0
  4 42  1  0
  4 43  1  0
  5 44  1  6
  6 45  1  0
  7 46  1  1
  8 47  1  0
  8 48  1  0
 10 49  1  0
 11 50  1  0
 12 51  1  0
 13 52  1  0
 14 53  1  0
 15 54  1  0
 19 55  1  0
 23 56  1  0
 25 57  1  0
 25 58  1  0
 26 59  1  0
 26 60  1  0
 26 61  1  0
 27 62  1  0
 29 63  1  0
 29 64  1  0
 30 65  1  0
 30 66  1  0
 35 67  1  0
 35 68  1  0
 35 69  1  0
M  END
$$$$
