
     RDKit          3D

 71 73  0  0  0  0  0  0  0  0999 V2000
    3.0250    2.5405    1.9134 C   0  0  0  0  0  0  0  0  0  0  0  0
    4.0043    1.5014    1.4166 C   0  0  0  0  0  0  0  0  0  0  0  0
    3.4903    0.8635    0.1309 C   0  0  2  0  0  0  0  0  0  0  0  0
    2.2177    0.2556    0.4752 N   0  0  0  0  0  0  0  0  0  0  0  0
    0.9973    0.6348   -0.1212 C   0  0  0  0  0  0  0  0  0  0  0  0
    0.9468    1.5142   -0.9792 O   0  0  0  0  0  0  0  0  0  0  0  0
   -0.2390   -0.0715    0.3277 C   0  0  2  0  0  0  0  0  0  0  0  0
   -0.2203   -1.4912   -0.1876 C   0  0  0  0  0  0  0  0  0  0  0  0
   -1.6758   -1.8628   -0.2082 C   0  0  1  0  0  0  0  0  0  0  0  0
   -2.1063   -2.5016    1.3938 S   0  0  0  0  0  6  0  0  0  0  0  0
   -1.7694   -1.5368    2.4718 O   0  0  0  0  0  0  0  0  0  0  0  0
   -1.3344   -3.7690    1.6828 O   0  0  0  0  0  0  0  0  0  0  0  0
   -3.8201   -2.8472    1.3993 C   0  0  0  0  0  0  0  0  0  0  0  0
   -4.5838   -2.1299    2.3186 C   0  0  0  0  0  0  0  0  0  0  0  0
   -5.9361   -2.3676    2.3528 C   0  0  0  0  0  0  0  0  0  0  0  0
   -6.5322   -3.2808    1.5135 C   0  0  0  0  0  0  0  0  0  0  0  0
   -8.2530   -3.5472    1.5963 Cl  0  0  0  0  0  0  0  0  0  0  0  0
   -5.7472   -3.9671    0.6219 C   0  0  0  0  0  0  0  0  0  0  0  0
   -4.3696   -3.7602    0.5505 C   0  0  0  0  0  0  0  0  0  0  0  0
   -3.5420   -4.5328   -0.4258 C   0  0  0  0  0  0  0  0  0  0  0  0
   -2.3904   -0.5556   -0.4422 C   0  0  0  0  0  0  0  0  0  0  0  0
   -1.4525    0.4812   -0.1293 N   0  0  0  0  0  0  0  0  0  0  0  0
   -1.7588    1.8665   -0.2589 C   0  0  0  0  0  0  0  0  0  0  0  0
   -0.9765    2.8062    0.0233 O   0  0  0  0  0  0  0  0  0  0  0  0
   -3.0023    2.3021   -0.7291 O   0  0  0  0  0  0  0  0  0  0  0  0
   -3.3803    3.6299   -0.8871 C   0  0  0  0  0  0  0  0  0  0  0  0
   -3.3445    4.4302    0.3929 C   0  0  0  0  0  0  0  0  0  0  0  0
   -2.6055    4.3612   -1.9546 C   0  0  0  0  0  0  0  0  0  0  0  0
   -4.8427    3.6213   -1.3518 C   0  0  0  0  0  0  0  0  0  0  0  0
    4.4002   -0.2054   -0.3314 C   0  0  0  0  0  0  0  0  0  0  0  0
    3.9741   -1.3827   -0.3750 O   0  0  0  0  0  0  0  0  0  0  0  0
    5.7666    0.1410   -0.7227 C   0  0  0  0  0  0  0  0  0  0  0  0
    6.1707    1.3263   -0.6760 O   0  0  0  0  0  0  0  0  0  0  0  0
    6.6467   -0.8828   -1.1613 N   0  0  0  0  0  0  0  0  0  0  0  0
    8.0080   -0.6471   -1.5655 C   0  0  0  0  0  0  0  0  0  0  0  0
    8.7689   -1.5843   -2.3947 C   0  0  0  0  0  0  0  0  0  0  0  0
    8.9948   -1.5957   -0.8986 C   0  0  0  0  0  0  0  0  0  0  0  0
    3.5260    3.1882    2.6645 H   0  0  0  0  0  0  0  0  0  0  0  0
    2.1064    2.0656    2.3439 H   0  0  0  0  0  0  0  0  0  0  0  0
    2.7157    3.2125    1.0859 H   0  0  0  0  0  0  0  0  0  0  0  0
    4.0869    0.7292    2.2064 H   0  0  0  0  0  0  0  0  0  0  0  0
    4.9582    2.0011    1.1935 H   0  0  0  0  0  0  0  0  0  0  0  0
    3.3630    1.6257   -0.6608 H   0  0  0  0  0  0  0  0  0  0  0  0
    2.2159   -0.5110    1.2144 H   0  0  0  0  0  0  0  0  0  0  0  0
   -0.2246   -0.1654    1.4566 H   0  0  0  0  0  0  0  0  0  0  0  0
    0.1868   -1.4298   -1.2255 H   0  0  0  0  0  0  0  0  0  0  0  0
    0.3871   -2.1630    0.4521 H   0  0  0  0  0  0  0  0  0  0  0  0
   -1.9019   -2.6021   -1.0117 H   0  0  0  0  0  0  0  0  0  0  0  0
   -4.1302   -1.4050    2.9899 H   0  0  0  0  0  0  0  0  0  0  0  0
   -6.5096   -1.7894    3.0878 H   0  0  0  0  0  0  0  0  0  0  0  0
   -6.1532   -4.6975   -0.0648 H   0  0  0  0  0  0  0  0  0  0  0  0
   -4.0111   -5.5607   -0.4302 H   0  0  0  0  0  0  0  0  0  0  0  0
   -2.5084   -4.7051   -0.0866 H   0  0  0  0  0  0  0  0  0  0  0  0
   -3.6212   -4.1725   -1.4529 H   0  0  0  0  0  0  0  0  0  0  0  0
   -3.2675   -0.4398    0.2522 H   0  0  0  0  0  0  0  0  0  0  0  0
   -2.7592   -0.5075   -1.4901 H   0  0  0  0  0  0  0  0  0  0  0  0
   -3.8843    3.8259    1.1547 H   0  0  0  0  0  0  0  0  0  0  0  0
   -2.3138    4.6986    0.6938 H   0  0  0  0  0  0  0  0  0  0  0  0
   -3.9879    5.3320    0.2136 H   0  0  0  0  0  0  0  0  0  0  0  0
   -1.5578    4.5710   -1.6537 H   0  0  0  0  0  0  0  0  0  0  0  0
   -3.0959    5.3600   -2.0768 H   0  0  0  0  0  0  0  0  0  0  0  0
   -2.6948    3.8634   -2.9346 H   0  0  0  0  0  0  0  0  0  0  0  0
   -4.9111    2.7843   -2.0948 H   0  0  0  0  0  0  0  0  0  0  0  0
   -5.1133    4.5358   -1.8925 H   0  0  0  0  0  0  0  0  0  0  0  0
   -5.4782    3.3792   -0.5015 H   0  0  0  0  0  0  0  0  0  0  0  0
    6.2825   -1.8556   -1.1930 H   0  0  0  0  0  0  0  0  0  0  0  0
    8.3167    0.4092   -1.4986 H   0  0  0  0  0  0  0  0  0  0  0  0
    8.2910   -2.4617   -2.8742 H   0  0  0  0  0  0  0  0  0  0  0  0
    9.6167   -1.1740   -2.9919 H   0  0  0  0  0  0  0  0  0  0  0  0
    8.5971   -2.5055   -0.3953 H   0  0  0  0  0  0  0  0  0  0  0  0
    9.9453   -1.1928   -0.5086 H   0  0  0  0  0  0  0  0  0  0  0  0
  1  2  1  0
  2  3  1  0
  3  4  1  0
  4  5  1  0
  5  6  2  0
  5  7  1  0
  7  8  1  0
  8  9  1  0
  9 10  1  0
 10 11  2  0
 10 12  2  0
 10 13  1  0
 13 14  2  0
 14 15  1  0
 15 16  2  0
 16 17  1  0
 16 18  1  0
 18 19  2  0
 19 20  1  0
  9 21  1  0
 21 22  1  0
 22 23  1  0
 23 24  2  0
 23 25  1  0
 25 26  1  0
 26 27  1  0
 26 28  1  0
 26 29  1  0
  3 30  1  0
 30 31  2  0
 30 32  1  0
 32 33  2  0
 32 34  1  0
 34 35  1  0
 35 36  1  0
 36 37  1  0
 22  7  1  0
 37 35  1  0
 19 13  1  0
  1 38  1  0
  1 39  1  0
  1 40  1  0
  2 41  1  0
  2 42  1  0
  3 43  1  6
  4 44  1  0
  7 45  1  1
  8 46  1  0
  8 47  1  0
  9 48  1  6
 14 49  1  0
 15 50  1  0
 18 51  1  0
 20 52  1  0
 20 53  1  0
 20 54  1  0
 21 55  1  0
 21 56  1  0
 27 57  1  0
 27 58  1  0
 27 59  1  0
 28 60  1  0
 28 61  1  0
 28 62  1  0
 29 63  1  0
 29 64  1  0
 29 65  1  0
 34 66  1  0
 35 67  1  0
 36 68  1  0
 36 69  1  0
 37 70  1  0
 37 71  1  0
M  END
$$$$
