@<TRIPOS>MOLECULE
*****
 71 73 0 0 0
SMALL
GASTEIGER

@<TRIPOS>ATOM
      1 C           3.0250    2.5405    1.9134 C.3     1  UNL1       -0.0632
      2 C           4.0043    1.5014    1.4166 C.3     1  UNL1       -0.0299
      3 C           3.4903    0.8635    0.1309 C.3     1  UNL1        0.0904
      4 N           2.2177    0.2556    0.4752 N.am    1  UNL1       -0.3036
      5 C           0.9973    0.6348   -0.1212 C.2     1  UNL1        0.2343
      6 O           0.9468    1.5142   -0.9792 O.2     1  UNL1       -0.2738
      7 C          -0.2390   -0.0715    0.3277 C.3     1  UNL1        0.1071
      8 C          -0.2203   -1.4912   -0.1876 C.3     1  UNL1       -0.0015
      9 C          -1.6758   -1.8628   -0.2082 C.3     1  UNL1        0.0999
     10 S          -2.1063   -2.5016    1.3938 S.O2    1  UNL1        0.0015
     11 O          -1.7694   -1.5368    2.4718 O.2     1  UNL1       -0.1690
     12 O          -1.3344   -3.7690    1.6828 O.2     1  UNL1       -0.1690
     13 C          -3.8201   -2.8472    1.3993 C.ar    1  UNL1        0.0915
     14 C          -4.5838   -2.1299    2.3186 C.ar    1  UNL1       -0.0352
     15 C          -5.9361   -2.3676    2.3528 C.ar    1  UNL1       -0.0416
     16 C          -6.5322   -3.2808    1.5135 C.ar    1  UNL1        0.0413
     17 CL         -8.2530   -3.5472    1.5963 Cl      1  UNL1       -0.0835
     18 C          -5.7472   -3.9671    0.6219 C.ar    1  UNL1       -0.0387
     19 C          -4.3696   -3.7602    0.5505 C.ar    1  UNL1       -0.0243
     20 C          -3.5420   -4.5328   -0.4258 C.3     1  UNL1       -0.0379
     21 C          -2.3904   -0.5556   -0.4422 C.3     1  UNL1        0.0413
     22 N          -1.4525    0.4812   -0.1293 N.am    1  UNL1       -0.2540
     23 C          -1.7588    1.8665   -0.2589 C.2     1  UNL1        0.4040
     24 O          -0.9765    2.8062    0.0233 O.2     1  UNL1       -0.2262
     25 O          -3.0023    2.3021   -0.7291 O.3     1  UNL1       -0.4445
     26 C          -3.3803    3.6299   -0.8871 C.3     1  UNL1        0.1068
     27 C          -3.3445    4.4302    0.3929 C.3     1  UNL1       -0.0253
     28 C          -2.6055    4.3612   -1.9546 C.3     1  UNL1       -0.0253
     29 C          -4.8427    3.6213   -1.3518 C.3     1  UNL1       -0.0253
     30 C           4.4002   -0.2054   -0.3314 C.2     1  UNL1        0.2371
     31 O           3.9741   -1.3827   -0.3750 O.2     1  UNL1       -0.2852
     32 C           5.7666    0.1410   -0.7227 C.2     1  UNL1        0.2817
     33 O           6.1707    1.3263   -0.6760 O.2     1  UNL1       -0.2670
     34 N           6.6467   -0.8828   -1.1613 N.am    1  UNL1       -0.3061
     35 C           8.0080   -0.6471   -1.5655 C.3     1  UNL1        0.0236
     36 C           8.7689   -1.5843   -2.3947 C.3     1  UNL1       -0.0328
     37 C           8.9948   -1.5957   -0.8986 C.3     1  UNL1       -0.0328
     38 H           3.5260    3.1882    2.6645 H       1  UNL1        0.0230
     39 H           2.1064    2.0656    2.3439 H       1  UNL1        0.0230
     40 H           2.7157    3.2125    1.0859 H       1  UNL1        0.0230
     41 H           4.0869    0.7292    2.2064 H       1  UNL1        0.0285
     42 H           4.9582    2.0011    1.1935 H       1  UNL1        0.0285
     43 H           3.3630    1.6257   -0.6608 H       1  UNL1        0.0582
     44 H           2.2159   -0.5110    1.2144 H       1  UNL1        0.1495
     45 H          -0.2246   -0.1654    1.4566 H       1  UNL1        0.0598
     46 H           0.1868   -1.4298   -1.2255 H       1  UNL1        0.0307
     47 H           0.3871   -2.1630    0.4521 H       1  UNL1        0.0307
     48 H          -1.9019   -2.6021   -1.0117 H       1  UNL1        0.0556
     49 H          -4.1302   -1.4050    2.9899 H       1  UNL1        0.0637
     50 H          -6.5096   -1.7894    3.0878 H       1  UNL1        0.0633
     51 H          -6.1532   -4.6975   -0.0648 H       1  UNL1        0.0635
     52 H          -4.0111   -5.5607   -0.4302 H       1  UNL1        0.0278
     53 H          -2.5084   -4.7051   -0.0866 H       1  UNL1        0.0278
     54 H          -3.6212   -4.1725   -1.4529 H       1  UNL1        0.0278
     55 H          -3.2675   -0.4398    0.2522 H       1  UNL1        0.0485
     56 H          -2.7592   -0.5075   -1.4901 H       1  UNL1        0.0485
     57 H          -3.8843    3.8259    1.1547 H       1  UNL1        0.0268
     58 H          -2.3138    4.6986    0.6938 H       1  UNL1        0.0268
     59 H          -3.9879    5.3320    0.2136 H       1  UNL1        0.0268
     60 H          -1.5578    4.5710   -1.6537 H       1  UNL1        0.0268
     61 H          -3.0959    5.3600   -2.0768 H       1  UNL1        0.0268
     62 H          -2.6948    3.8634   -2.9346 H       1  UNL1        0.0268
     63 H          -4.9111    2.7843   -2.0948 H       1  UNL1        0.0268
     64 H          -5.1133    4.5358   -1.8925 H       1  UNL1        0.0268
     65 H          -5.4782    3.3792   -0.5015 H       1  UNL1        0.0268
     66 H           6.2825   -1.8556   -1.1930 H       1  UNL1        0.1494
     67 H           8.3167    0.4092   -1.4986 H       1  UNL1        0.0498
     68 H           8.2910   -2.4617   -2.8742 H       1  UNL1        0.0284
     69 H           9.6167   -1.1740   -2.9919 H       1  UNL1        0.0284
     70 H           8.5971   -2.5055   -0.3953 H       1  UNL1        0.0284
     71 H           9.9453   -1.1928   -0.5086 H       1  UNL1        0.0284
@<TRIPOS>BOND
     1     1     2    1
     2     2     3    1
     3     3     4    1
     4     4     5   am
     5     5     6    2
     6     5     7    1
     7     7     8    1
     8     8     9    1
     9     9    10    1
    10    10    11    2
    11    10    12    2
    12    10    13    1
    13    13    14   ar
    14    14    15   ar
    15    15    16   ar
    16    16    17    1
    17    16    18   ar
    18    18    19   ar
    19    19    20    1
    20     9    21    1
    21    21    22    1
    22    22    23   am
    23    23    24    2
    24    23    25    1
    25    25    26    1
    26    26    27    1
    27    26    28    1
    28    26    29    1
    29     3    30    1
    30    30    31    2
    31    30    32    1
    32    32    33    2
    33    32    34   am
    34    34    35    1
    35    35    36    1
    36    36    37    1
    37    22     7    1
    38    37    35    1
    39    19    13   ar
    40     1    38    1
    41     1    39    1
    42     1    40    1
    43     2    41    1
    44     2    42    1
    45     3    43    1
    46     4    44    1
    47     7    45    1
    48     8    46    1
    49     8    47    1
    50     9    48    1
    51    14    49    1
    52    15    50    1
    53    18    51    1
    54    20    52    1
    55    20    53    1
    56    20    54    1
    57    21    55    1
    58    21    56    1
    59    27    57    1
    60    27    58    1
    61    27    59    1
    62    28    60    1
    63    28    61    1
    64    28    62    1
    65    29    63    1
    66    29    64    1
    67    29    65    1
    68    34    66    1
    69    35    67    1
    70    36    68    1
    71    36    69    1
    72    37    70    1
    73    37    71    1
