@<TRIPOS>MOLECULE
*****
 45 48 0 0 0
SMALL
GASTEIGER

@<TRIPOS>ATOM
      1 O           8.3575    0.6390    0.0659 O.2     1  UNL1       -0.2663
      2 C           7.1567    0.5121   -0.2925 C.2     1  UNL1        0.2887
      3 N           6.6726   -0.0791   -1.4934 N.am    1  UNL1       -0.2782
      4 C           5.2631   -0.0220   -1.5112 C.ar    1  UNL1        0.0449
      5 C           4.3625   -0.4583   -2.4472 C.ar    1  UNL1       -0.0379
      6 C           3.0091   -0.2778   -2.2183 C.ar    1  UNL1       -0.0336
      7 C           2.5355    0.3297   -1.0735 C.ar    1  UNL1        0.1063
      8 S           0.7960    0.5565   -0.8091 S.O2    1  UNL1        0.0612
      9 O           0.6653    1.7839    0.0436 O.2     1  UNL1       -0.1528
     10 O           0.2198    0.8733   -2.1653 O.2     1  UNL1       -0.1528
     11 N           0.2028   -0.8643   -0.1151 N.3     1  UNL1       -0.1703
     12 C           0.8637   -1.0782    1.1609 C.3     1  UNL1        0.0210
     13 C           0.0944   -0.1746    2.1325 C.3     1  UNL1       -0.0370
     14 C          -1.2377    0.1189    1.4148 C.3     1  UNL1       -0.0313
     15 C          -1.1778   -0.8468    0.3068 C.3     1  UNL1        0.0659
     16 C          -2.1284   -0.7289   -0.8203 C.3     1  UNL1        0.1067
     17 O          -3.4414   -0.7278   -0.6317 O.3     1  UNL1       -0.4904
     18 C          -4.4959   -0.1214   -0.0890 C.ar    1  UNL1        0.1206
     19 C          -4.4939    1.0386    0.6370 C.ar    1  UNL1       -0.0199
     20 C          -5.6488    1.5632    1.1475 C.ar    1  UNL1       -0.0583
     21 C          -6.8684    0.9498    0.9549 C.ar    1  UNL1       -0.0615
     22 C          -6.8947   -0.2224    0.2243 C.ar    1  UNL1       -0.0583
     23 C          -5.7437   -0.7410   -0.2815 C.ar    1  UNL1       -0.0199
     24 C           3.4753    0.7531   -0.1596 C.ar    1  UNL1       -0.0226
     25 C           4.8315    0.5883   -0.3573 C.ar    1  UNL1        0.0499
     26 C           5.9945    0.9420    0.4413 C.2     1  UNL1        0.2494
     27 O           5.9518    1.5194    1.5666 O.2     1  UNL1       -0.2817
     28 H           7.2732   -0.4909   -2.2435 H       1  UNL1        0.1552
     29 H           4.7088   -0.9456   -3.3686 H       1  UNL1        0.0637
     30 H           2.3031   -0.6176   -2.9479 H       1  UNL1        0.0638
     31 H           1.9058   -0.7289    1.1446 H       1  UNL1        0.0444
     32 H           0.7733   -2.1408    1.4734 H       1  UNL1        0.0444
     33 H           0.6402    0.7453    2.3532 H       1  UNL1        0.0279
     34 H          -0.0643   -0.7677    3.0460 H       1  UNL1        0.0279
     35 H          -2.0310   -0.0895    2.1504 H       1  UNL1        0.0282
     36 H          -1.2817    1.1885    1.1294 H       1  UNL1        0.0282
     37 H          -1.3433   -1.8705    0.7544 H       1  UNL1        0.0513
     38 H          -1.8632    0.1299   -1.5120 H       1  UNL1        0.0713
     39 H          -1.8726   -1.6227   -1.4992 H       1  UNL1        0.0713
     40 H          -3.5746    1.5645    0.8058 H       1  UNL1        0.0654
     41 H          -5.6486    2.5030    1.7365 H       1  UNL1        0.0619
     42 H          -7.7648    1.3636    1.3554 H       1  UNL1        0.0618
     43 H          -7.8754   -0.6759    0.0941 H       1  UNL1        0.0619
     44 H          -5.7813   -1.6659   -0.8553 H       1  UNL1        0.0654
     45 H           3.1751    1.2385    0.7521 H       1  UNL1        0.0645
@<TRIPOS>BOND
     1     1     2    2
     2     2     3   am
     3     3     4    1
     4     4     5   ar
     5     5     6   ar
     6     6     7   ar
     7     7     8    1
     8     8     9    2
     9     8    10    2
    10     8    11    1
    11    11    12    1
    12    12    13    1
    13    13    14    1
    14    14    15    1
    15    15    16    1
    16    16    17    1
    17    17    18    1
    18    18    19   ar
    19    19    20   ar
    20    20    21   ar
    21    21    22   ar
    22    22    23   ar
    23     7    24   ar
    24    24    25   ar
    25    25    26    1
    26    26    27    2
    27    26     2    1
    28    25     4   ar
    29    15    11    1
    30    23    18   ar
    31     3    28    1
    32     5    29    1
    33     6    30    1
    34    12    31    1
    35    12    32    1
    36    13    33    1
    37    13    34    1
    38    14    35    1
    39    14    36    1
    40    15    37    1
    41    16    38    1
    42    16    39    1
    43    19    40    1
    44    20    41    1
    45    21    42    1
    46    22    43    1
    47    23    44    1
    48    24    45    1
