@<TRIPOS>MOLECULE
*****
 59 65 0 0 0
SMALL
GASTEIGER

@<TRIPOS>ATOM
      1 C           4.0455   -1.2938   -3.9578 C.3     1  UNL1       -0.0361
      2 C           3.6159   -0.9326   -2.5742 C.ar    1  UNL1       -0.0041
      3 C           2.2822   -0.8288   -2.2350 C.ar    1  UNL1       -0.0324
      4 C           1.8595   -0.4979   -0.9687 C.ar    1  UNL1        0.0545
      5 N           0.4839   -0.4018   -0.6381 N.am    1  UNL1       -0.2531
      6 C          -0.2535   -1.4961   -0.1296 C.2     1  UNL1        0.2705
      7 O           0.1661   -2.6742    0.1263 O.2     1  UNL1       -0.2679
      8 C          -1.6127   -1.0751    0.0693 C.ar    1  UNL1        0.1367
      9 C          -1.6954    0.2338   -0.3060 C.ar    1  UNL1        0.0315
     10 C          -3.0347    0.5860   -0.0980 C.ar    1  UNL1        0.0726
     11 C          -3.5675    1.9414   -0.3821 C.3     1  UNL1        0.0035
     12 C          -4.1014    2.1895   -1.7478 C.3     1  UNL1       -0.0441
     13 C          -5.0744    2.0588   -0.6208 C.3     1  UNL1       -0.0441
     14 N          -3.6438   -0.4909    0.3700 N.ar    1  UNL1       -0.1687
     15 N          -2.8336   -1.5266    0.4923 N.ar    1  UNL1       -0.2092
     16 C          -3.1295   -2.8394    0.9581 C.ar    1  UNL1        0.1530
     17 C          -3.5819   -3.9224    0.2250 C.ar    1  UNL1        0.0020
     18 C          -3.7457   -5.0156    1.0555 C.ar    1  UNL1        0.0515
     19 N          -3.3875   -4.5721    2.2831 N.ar    1  UNL1       -0.1780
     20 N          -3.0274   -3.2979    2.2224 N.ar    1  UNL1       -0.2500
     21 C          -2.5860   -2.5088    3.3553 C.3     1  UNL1        0.0324
     22 C          -0.3740    0.7162   -0.7555 C.3     1  UNL1        0.0855
     23 C           0.0241    1.9031    0.0336 C.ar    1  UNL1       -0.0221
     24 C           0.4166    1.8915    1.3432 C.ar    1  UNL1       -0.0551
     25 C           0.7705    3.0659    1.9986 C.ar    1  UNL1       -0.0431
     26 C           0.7433    4.2747    1.3729 C.ar    1  UNL1        0.0410
     27 CL          1.1755    5.7833    2.1404 Cl      1  UNL1       -0.0835
     28 C           0.3465    4.3110    0.0380 C.ar    1  UNL1       -0.0431
     29 C           0.0001    3.1329   -0.5909 C.ar    1  UNL1       -0.0551
     30 C           2.8056   -0.2625   -0.0075 C.ar    1  UNL1        0.0344
     31 N           4.1323   -0.3579   -0.3144 N.ar    1  UNL1       -0.2846
     32 C           5.2214   -0.1747    0.4502 C.ar    1  UNL1        0.1347
     33 C           5.2394    0.1896    1.8679 C.3     1  UNL1       -0.0041
     34 N           6.2832   -0.3886   -0.3304 N.ar    1  UNL1       -0.1340
     35 N           5.8697   -0.7009   -1.5645 N.ar    1  UNL1       -0.1292
     36 C           4.5177   -0.6827   -1.5588 C.ar    1  UNL1        0.1641
     37 H           3.4402   -2.1568   -4.3222 H       1  UNL1        0.0279
     38 H           3.9749   -0.4220   -4.6524 H       1  UNL1        0.0279
     39 H           5.1025   -1.6127   -3.9477 H       1  UNL1        0.0279
     40 H           1.5675   -1.0285   -3.0459 H       1  UNL1        0.0640
     41 H          -3.0936    2.7923    0.1859 H       1  UNL1        0.0365
     42 H          -4.0543    1.3300   -2.4700 H       1  UNL1        0.0272
     43 H          -4.0557    3.1649   -2.2348 H       1  UNL1        0.0272
     44 H          -5.6954    1.1614   -0.5755 H       1  UNL1        0.0272
     45 H          -5.5743    2.9827   -0.2429 H       1  UNL1        0.0272
     46 H          -3.7682   -3.8749   -0.8477 H       1  UNL1        0.0670
     47 H          -4.0858   -6.0107    0.7874 H       1  UNL1        0.0848
     48 H          -1.5449   -2.7671    3.6177 H       1  UNL1        0.0473
     49 H          -2.6655   -1.4258    3.1210 H       1  UNL1        0.0473
     50 H          -3.2265   -2.6938    4.2410 H       1  UNL1        0.0473
     51 H          -0.3927    1.0150   -1.8361 H       1  UNL1        0.0606
     52 H           0.4418    0.9206    1.8570 H       1  UNL1        0.0621
     53 H           1.0755    3.0239    3.0310 H       1  UNL1        0.0632
     54 H           0.3151    5.2676   -0.4902 H       1  UNL1        0.0632
     55 H          -0.3026    3.2314   -1.6407 H       1  UNL1        0.0621
     56 H           2.5454   -0.0041    0.9991 H       1  UNL1        0.0833
     57 H           4.3206   -0.2012    2.3951 H       1  UNL1        0.0308
     58 H           6.0904   -0.3070    2.4193 H       1  UNL1        0.0308
     59 H           5.2358    1.2785    2.0291 H       1  UNL1        0.0308
@<TRIPOS>BOND
     1     1     2    1
     2     2     3   ar
     3     3     4   ar
     4     4     5    1
     5     5     6   am
     6     6     7    2
     7     6     8    1
     8     8     9   ar
     9     9    10   ar
    10    10    11    1
    11    11    12    1
    12    12    13    1
    13    10    14   ar
    14    14    15   ar
    15    15    16    1
    16    16    17   ar
    17    17    18   ar
    18    18    19   ar
    19    19    20   ar
    20    20    21    1
    21     9    22    1
    22    22    23    1
    23    23    24   ar
    24    24    25   ar
    25    25    26   ar
    26    26    27    1
    27    26    28   ar
    28    28    29   ar
    29     4    30   ar
    30    30    31   ar
    31    31    32   ar
    32    32    33    1
    33    32    34   ar
    34    34    35   ar
    35    35    36   ar
    36    36     2   ar
    37    22     5    1
    38    29    23   ar
    39    36    31   ar
    40    15     8   ar
    41    20    16   ar
    42    13    11    1
    43     1    37    1
    44     1    38    1
    45     1    39    1
    46     3    40    1
    47    11    41    1
    48    12    42    1
    49    12    43    1
    50    13    44    1
    51    13    45    1
    52    17    46    1
    53    18    47    1
    54    21    48    1
    55    21    49    1
    56    21    50    1
    57    22    51    1
    58    24    52    1
    59    25    53    1
    60    28    54    1
    61    29    55    1
    62    30    56    1
    63    33    57    1
    64    33    58    1
    65    33    59    1
