@<TRIPOS>MOLECULE
*****
 10 9 0 0 0
SMALL
GASTEIGER

@<TRIPOS>ATOM
      1 C          -1.4458    0.0866    0.0202 C.3     1  UNL1        0.0141
      2 C          -0.0979   -0.3645   -0.3919 C.2     1  UNL1        0.2323
      3 O           0.1834   -1.0656   -1.4013 O.2     1  UNL1       -0.2740
      4 N           1.0173    0.0283    0.4325 N.am    1  UNL1       -0.1977
      5 O           2.2966   -0.3467    0.1221 O.3     1  UNL1       -0.2952
      6 H          -2.1502    0.0823   -0.8430 H       1  UNL1        0.0323
      7 H          -1.4598    1.1344    0.3868 H       1  UNL1        0.0323
      8 H          -1.8215   -0.5710    0.8355 H       1  UNL1        0.0323
      9 H           0.8363    0.6169    1.2910 H       1  UNL1        0.1822
     10 H           2.6416    0.3994   -0.4518 H       1  UNL1        0.2414
@<TRIPOS>BOND
     1     1     2    1
     2     2     3    2
     3     2     4   am
     4     4     5    1
     5     1     6    1
     6     1     7    1
     7     1     8    1
     8     4     9    1
     9     5    10    1
