
     RDKit          3D

 89 88  0  0  0  0  0  0  0  0999 V2000
    5.8919    0.2766    2.0201 C   0  0  2  0  0  0  0  0  0  0  0  0
    5.3075    1.4659    1.3282 C   0  0  0  0  0  0  0  0  0  0  0  0
    4.1525    1.9638    1.8526 O   0  0  0  0  0  0  0  0  0  0  0  0
    3.0483    1.1596    1.8632 C   0  0  0  0  0  0  0  0  0  0  0  0
    2.6218    0.7787    0.4595 C   0  0  0  0  0  0  0  0  0  0  0  0
    1.4349   -0.1248    0.4912 C   0  0  0  0  0  0  0  0  0  0  0  0
    0.2243    0.4533    1.1474 C   0  0  0  0  0  0  0  0  0  0  0  0
   -0.8766   -0.5831    1.1070 C   0  0  0  0  0  0  0  0  0  0  0  0
   -2.1623   -0.1047    1.7493 C   0  0  0  0  0  0  0  0  0  0  0  0
   -3.2215   -1.1664    1.6915 C   0  0  0  0  0  0  0  0  0  0  0  0
   -4.5245   -0.8335    2.2837 C   0  0  0  0  0  0  0  0  0  0  0  0
   -5.2859    0.3137    1.7542 C   0  0  0  0  0  0  0  0  0  0  0  0
   -5.6678    0.2734    0.3172 C   0  0  0  0  0  0  0  0  0  0  0  0
   -6.5328   -0.9143   -0.0351 C   0  0  0  0  0  0  0  0  0  0  0  0
   -6.8883   -0.8982   -1.4964 C   0  0  0  0  0  0  0  0  0  0  0  0
   -7.6516    0.3303   -1.9071 C   0  0  0  0  0  0  0  0  0  0  0  0
   -8.9403    0.4720   -1.1718 C   0  0  0  0  0  0  0  0  0  0  0  0
   -9.7458    1.6658   -1.5194 C   0  0  0  0  0  0  0  0  0  0  0  0
  -10.1664    1.7578   -2.9573 C   0  0  0  0  0  0  0  0  0  0  0  0
  -11.0114    0.5577   -3.3469 C   0  0  0  0  0  0  0  0  0  0  0  0
  -12.2334    0.5441   -2.4521 C   0  0  0  0  0  0  0  0  0  0  0  0
    7.2695   -0.0056    1.4434 C   0  0  0  0  0  0  0  0  0  0  0  0
    7.9290   -0.9749    2.1527 O   0  0  0  0  0  0  0  0  0  0  0  0
    9.3634   -1.5115    1.5107 P   0  0  0  0  0  0  0  0  0  0  0  0
   10.2150   -2.3120    2.7557 O   0  0  0  0  0  0  0  0  0  0  0  0
    9.1365   -2.5560    0.4412 O   0  0  0  0  0  0  0  0  0  0  0  0
   10.3720   -0.3359    0.8963 O   0  0  0  0  0  0  0  0  0  0  0  0
   10.0825    0.0720   -0.3857 C   0  0  0  0  0  0  0  0  0  0  0  0
   11.2767    0.7415   -1.0784 C   0  0  0  0  0  0  0  0  0  0  0  0
   10.7938    1.2408   -2.7542 S   0  0  0  0  0  0  0  0  0  0  0  0
   12.1409    2.0288   -3.6371 C   0  0  0  0  0  0  0  0  0  0  0  0
    5.0302   -0.8457    2.0327 N   0  0  0  0  0  0  0  0  0  0  0  0
    4.8717   -1.7837    1.1952 C   0  0  0  0  0  0  0  0  0  0  0  0
    5.4316   -2.2069   -0.1365 C   0  0  0  0  0  0  0  0  0  0  0  0
    3.8735   -2.5720    1.7971 O   0  0  0  0  0  0  0  0  0  0  0  0
    6.1114    0.5247    3.1149 H   0  0  0  0  0  0  0  0  0  0  0  0
    5.1819    1.2525    0.2354 H   0  0  0  0  0  0  0  0  0  0  0  0
    6.0439    2.3284    1.3314 H   0  0  0  0  0  0  0  0  0  0  0  0
    3.0893    0.3051    2.5379 H   0  0  0  0  0  0  0  0  0  0  0  0
    2.2089    1.8092    2.2660 H   0  0  0  0  0  0  0  0  0  0  0  0
    3.4292    0.3014   -0.1112 H   0  0  0  0  0  0  0  0  0  0  0  0
    2.3886    1.7472   -0.0541 H   0  0  0  0  0  0  0  0  0  0  0  0
    1.1536   -0.3696   -0.5600 H   0  0  0  0  0  0  0  0  0  0  0  0
    1.7005   -1.0820    0.9920 H   0  0  0  0  0  0  0  0  0  0  0  0
   -0.1488    1.3418    0.5755 H   0  0  0  0  0  0  0  0  0  0  0  0
    0.3808    0.8038    2.1698 H   0  0  0  0  0  0  0  0  0  0  0  0
   -1.0239   -0.9600    0.0791 H   0  0  0  0  0  0  0  0  0  0  0  0
   -0.5494   -1.4933    1.6883 H   0  0  0  0  0  0  0  0  0  0  0  0
   -1.9015    0.2562    2.7382 H   0  0  0  0  0  0  0  0  0  0  0  0
   -2.4739    0.7884    1.1413 H   0  0  0  0  0  0  0  0  0  0  0  0
   -3.2627   -1.5829    0.6661 H   0  0  0  0  0  0  0  0  0  0  0  0
   -2.8040   -2.0252    2.2995 H   0  0  0  0  0  0  0  0  0  0  0  0
   -4.4435   -0.6926    3.3940 H   0  0  0  0  0  0  0  0  0  0  0  0
   -5.1835   -1.7406    2.1898 H   0  0  0  0  0  0  0  0  0  0  0  0
   -4.8570    1.3143    1.9862 H   0  0  0  0  0  0  0  0  0  0  0  0
   -6.2631    0.3247    2.3259 H   0  0  0  0  0  0  0  0  0  0  0  0
   -6.3145    1.1866    0.1476 H   0  0  0  0  0  0  0  0  0  0  0  0
   -4.8230    0.4277   -0.3854 H   0  0  0  0  0  0  0  0  0  0  0  0
   -7.3681   -0.9513    0.6588 H   0  0  0  0  0  0  0  0  0  0  0  0
   -5.9248   -1.8270    0.1686 H   0  0  0  0  0  0  0  0  0  0  0  0
   -7.4371   -1.8210   -1.7678 H   0  0  0  0  0  0  0  0  0  0  0  0
   -5.9372   -0.9107   -2.0665 H   0  0  0  0  0  0  0  0  0  0  0  0
   -7.9045    0.1794   -2.9984 H   0  0  0  0  0  0  0  0  0  0  0  0
   -7.0455    1.2432   -1.7500 H   0  0  0  0  0  0  0  0  0  0  0  0
   -8.7020    0.5308   -0.0765 H   0  0  0  0  0  0  0  0  0  0  0  0
   -9.5551   -0.4261   -1.4258 H   0  0  0  0  0  0  0  0  0  0  0  0
   -9.2120    2.6343   -1.2761 H   0  0  0  0  0  0  0  0  0  0  0  0
  -10.6711    1.7329   -0.8989 H   0  0  0  0  0  0  0  0  0  0  0  0
  -10.8396    2.6435   -3.0972 H   0  0  0  0  0  0  0  0  0  0  0  0
   -9.3258    1.9396   -3.6609 H   0  0  0  0  0  0  0  0  0  0  0  0
  -11.3946    0.7049   -4.3868 H   0  0  0  0  0  0  0  0  0  0  0  0
  -10.4622   -0.4018   -3.2565 H   0  0  0  0  0  0  0  0  0  0  0  0
  -12.4107    1.5834   -2.0483 H   0  0  0  0  0  0  0  0  0  0  0  0
  -12.0696   -0.0879   -1.5309 H   0  0  0  0  0  0  0  0  0  0  0  0
  -13.1472    0.2149   -2.9792 H   0  0  0  0  0  0  0  0  0  0  0  0
    7.2337   -0.1392    0.3547 H   0  0  0  0  0  0  0  0  0  0  0  0
    7.8458    0.9474    1.6001 H   0  0  0  0  0  0  0  0  0  0  0  0
   10.4427   -1.6007    3.4116 H   0  0  0  0  0  0  0  0  0  0  0  0
    9.3057    0.8695   -0.2914 H   0  0  0  0  0  0  0  0  0  0  0  0
    9.6769   -0.7051   -1.0440 H   0  0  0  0  0  0  0  0  0  0  0  0
   12.1430    0.0311   -1.1030 H   0  0  0  0  0  0  0  0  0  0  0  0
   11.6191    1.6416   -0.5343 H   0  0  0  0  0  0  0  0  0  0  0  0
   12.0267    1.7536   -4.7222 H   0  0  0  0  0  0  0  0  0  0  0  0
   13.1301    1.6719   -3.2804 H   0  0  0  0  0  0  0  0  0  0  0  0
   12.1196    3.1209   -3.5830 H   0  0  0  0  0  0  0  0  0  0  0  0
    5.5751   -1.3567   -0.8116 H   0  0  0  0  0  0  0  0  0  0  0  0
    4.7531   -2.9661   -0.6015 H   0  0  0  0  0  0  0  0  0  0  0  0
    6.4184   -2.6624    0.0648 H   0  0  0  0  0  0  0  0  0  0  0  0
    3.9192   -2.8997    2.7521 H   0  0  0  0  0  0  0  0  0  0  0  0
  1  2  1  0
  2  3  1  0
  3  4  1  0
  4  5  1  0
  5  6  1  0
  6  7  1  0
  7  8  1  0
  8  9  1  0
  9 10  1  0
 10 11  1  0
 11 12  1  0
 12 13  1  0
 13 14  1  0
 14 15  1  0
 15 16  1  0
 16 17  1  0
 17 18  1  0
 18 19  1  0
 19 20  1  0
 20 21  1  0
  1 22  1  0
 22 23  1  0
 23 24  1  0
 24 25  1  0
 24 26  2  0
 24 27  1  0
 27 28  1  0
 28 29  1  0
 29 30  1  0
 30 31  1  0
  1 32  1  0
 32 33  2  3
 33 34  1  0
 33 35  1  0
  1 36  1  1
  2 37  1  0
  2 38  1  0
  4 39  1  0
  4 40  1  0
  5 41  1  0
  5 42  1  0
  6 43  1  0
  6 44  1  0
  7 45  1  0
  7 46  1  0
  8 47  1  0
  8 48  1  0
  9 49  1  0
  9 50  1  0
 10 51  1  0
 10 52  1  0
 11 53  1  0
 11 54  1  0
 12 55  1  0
 12 56  1  0
 13 57  1  0
 13 58  1  0
 14 59  1  0
 14 60  1  0
 15 61  1  0
 15 62  1  0
 16 63  1  0
 16 64  1  0
 17 65  1  0
 17 66  1  0
 18 67  1  0
 18 68  1  0
 19 69  1  0
 19 70  1  0
 20 71  1  0
 20 72  1  0
 21 73  1  0
 21 74  1  0
 21 75  1  0
 22 76  1  0
 22 77  1  0
 25 78  1  0
 28 79  1  0
 28 80  1  0
 29 81  1  0
 29 82  1  0
 31 83  1  0
 31 84  1  0
 31 85  1  0
 34 86  1  0
 34 87  1  0
 34 88  1  0
 35 89  1  0
M  END
$$$$
