@<TRIPOS>MOLECULE
*****
 89 88 0 0 0
SMALL
GASTEIGER

@<TRIPOS>ATOM
      1 C           5.8919    0.2766    2.0201 C.3     1  UNL1        0.1012
      2 C           5.3075    1.4659    1.3282 C.3     1  UNL1        0.0722
      3 O           4.1525    1.9638    1.8526 O.3     1  UNL1       -0.3776
      4 C           3.0483    1.1596    1.8632 C.3     1  UNL1        0.0478
      5 C           2.6218    0.7787    0.4595 C.3     1  UNL1       -0.0295
      6 C           1.4349   -0.1248    0.4912 C.3     1  UNL1       -0.0510
      7 C           0.2243    0.4533    1.1474 C.3     1  UNL1       -0.0530
      8 C          -0.8766   -0.5831    1.1070 C.3     1  UNL1       -0.0531
      9 C          -2.1623   -0.1047    1.7493 C.3     1  UNL1       -0.0531
     10 C          -3.2215   -1.1664    1.6915 C.3     1  UNL1       -0.0531
     11 C          -4.5245   -0.8335    2.2837 C.3     1  UNL1       -0.0531
     12 C          -5.2859    0.3137    1.7542 C.3     1  UNL1       -0.0531
     13 C          -5.6678    0.2734    0.3172 C.3     1  UNL1       -0.0531
     14 C          -6.5328   -0.9143   -0.0351 C.3     1  UNL1       -0.0531
     15 C          -6.8883   -0.8982   -1.4964 C.3     1  UNL1       -0.0531
     16 C          -7.6516    0.3303   -1.9071 C.3     1  UNL1       -0.0531
     17 C          -8.9403    0.4720   -1.1718 C.3     1  UNL1       -0.0531
     18 C          -9.7458    1.6658   -1.5194 C.3     1  UNL1       -0.0531
     19 C         -10.1664    1.7578   -2.9573 C.3     1  UNL1       -0.0533
     20 C         -11.0114    0.5577   -3.3469 C.3     1  UNL1       -0.0559
     21 C         -12.2334    0.5441   -2.4521 C.3     1  UNL1       -0.0653
     22 C           7.2695   -0.0056    1.4434 C.3     1  UNL1        0.0836
     23 O           7.9290   -0.9749    2.1527 O.3     1  UNL1       -0.2845
     24 P           9.3634   -1.5115    1.5107 P.3     1  UNL1        0.4750
     25 O          10.2150   -2.3120    2.7557 O.3     1  UNL1       -0.3025
     26 O           9.1365   -2.5560    0.4412 O.2     1  UNL1       -0.2273
     27 O          10.3720   -0.3359    0.8963 O.3     1  UNL1       -0.2858
     28 C          10.0825    0.0720   -0.3857 C.3     1  UNL1        0.0680
     29 C          11.2767    0.7415   -1.0784 C.3     1  UNL1        0.0175
     30 S          10.7938    1.2408   -2.7542 S.3     1  UNL1       -0.1619
     31 C          12.1409    2.0288   -3.6371 C.3     1  UNL1       -0.0180
     32 N           5.0302   -0.8457    2.0327 N.2     1  UNL1       -0.2470
     33 C           4.8717   -1.7837    1.1952 C.2     1  UNL1        0.1796
     34 C           5.4316   -2.2069   -0.1365 C.3     1  UNL1        0.0112
     35 O           3.8735   -2.5720    1.7971 O.2     1  UNL1       -0.4958
     36 H           6.1114    0.5247    3.1149 H       1  UNL1        0.0591
     37 H           5.1819    1.2525    0.2354 H       1  UNL1        0.0582
     38 H           6.0439    2.3284    1.3314 H       1  UNL1        0.0582
     39 H           3.0893    0.3051    2.5379 H       1  UNL1        0.0560
     40 H           2.2089    1.8092    2.2660 H       1  UNL1        0.0560
     41 H           3.4292    0.3014   -0.1112 H       1  UNL1        0.0287
     42 H           2.3886    1.7472   -0.0541 H       1  UNL1        0.0287
     43 H           1.1536   -0.3696   -0.5600 H       1  UNL1        0.0266
     44 H           1.7005   -1.0820    0.9920 H       1  UNL1        0.0266
     45 H          -0.1488    1.3418    0.5755 H       1  UNL1        0.0265
     46 H           0.3808    0.8038    2.1698 H       1  UNL1        0.0265
     47 H          -1.0239   -0.9600    0.0791 H       1  UNL1        0.0265
     48 H          -0.5494   -1.4933    1.6883 H       1  UNL1        0.0265
     49 H          -1.9015    0.2562    2.7382 H       1  UNL1        0.0265
     50 H          -2.4739    0.7884    1.1413 H       1  UNL1        0.0265
     51 H          -3.2627   -1.5829    0.6661 H       1  UNL1        0.0265
     52 H          -2.8040   -2.0252    2.2995 H       1  UNL1        0.0265
     53 H          -4.4435   -0.6926    3.3940 H       1  UNL1        0.0265
     54 H          -5.1835   -1.7406    2.1898 H       1  UNL1        0.0265
     55 H          -4.8570    1.3143    1.9862 H       1  UNL1        0.0265
     56 H          -6.2631    0.3247    2.3259 H       1  UNL1        0.0265
     57 H          -6.3145    1.1866    0.1476 H       1  UNL1        0.0265
     58 H          -4.8230    0.4277   -0.3854 H       1  UNL1        0.0265
     59 H          -7.3681   -0.9513    0.6588 H       1  UNL1        0.0265
     60 H          -5.9248   -1.8270    0.1686 H       1  UNL1        0.0265
     61 H          -7.4371   -1.8210   -1.7678 H       1  UNL1        0.0265
     62 H          -5.9372   -0.9107   -2.0665 H       1  UNL1        0.0265
     63 H          -7.9045    0.1794   -2.9984 H       1  UNL1        0.0265
     64 H          -7.0455    1.2432   -1.7500 H       1  UNL1        0.0265
     65 H          -8.7020    0.5308   -0.0765 H       1  UNL1        0.0265
     66 H          -9.5551   -0.4261   -1.4258 H       1  UNL1        0.0265
     67 H          -9.2120    2.6343   -1.2761 H       1  UNL1        0.0265
     68 H         -10.6711    1.7329   -0.8989 H       1  UNL1        0.0265
     69 H         -10.8396    2.6435   -3.0972 H       1  UNL1        0.0265
     70 H          -9.3258    1.9396   -3.6609 H       1  UNL1        0.0265
     71 H         -11.3946    0.7049   -4.3868 H       1  UNL1        0.0263
     72 H         -10.4622   -0.4018   -3.2565 H       1  UNL1        0.0263
     73 H         -12.4107    1.5834   -2.0483 H       1  UNL1        0.0230
     74 H         -12.0696   -0.0879   -1.5309 H       1  UNL1        0.0230
     75 H         -13.1472    0.2149   -2.9792 H       1  UNL1        0.0230
     76 H           7.2337   -0.1392    0.3547 H       1  UNL1        0.0588
     77 H           7.8458    0.9474    1.6001 H       1  UNL1        0.0588
     78 H          10.4427   -1.6007    3.4116 H       1  UNL1        0.2220
     79 H           9.3057    0.8695   -0.2914 H       1  UNL1        0.0574
     80 H           9.6769   -0.7051   -1.0440 H       1  UNL1        0.0574
     81 H          12.1430    0.0311   -1.1030 H       1  UNL1        0.0399
     82 H          11.6191    1.6416   -0.5343 H       1  UNL1        0.0399
     83 H          12.0267    1.7536   -4.7222 H       1  UNL1        0.0340
     84 H          13.1301    1.6719   -3.2804 H       1  UNL1        0.0340
     85 H          12.1196    3.1209   -3.5830 H       1  UNL1        0.0340
     86 H           5.5751   -1.3567   -0.8116 H       1  UNL1        0.0324
     87 H           4.7531   -2.9661   -0.6015 H       1  UNL1        0.0324
     88 H           6.4184   -2.6624    0.0648 H       1  UNL1        0.0324
     89 H           3.9192   -2.8997    2.7521 H       1  UNL1        0.2934
@<TRIPOS>BOND
     1     1     2    1
     2     2     3    1
     3     3     4    1
     4     4     5    1
     5     5     6    1
     6     6     7    1
     7     7     8    1
     8     8     9    1
     9     9    10    1
    10    10    11    1
    11    11    12    1
    12    12    13    1
    13    13    14    1
    14    14    15    1
    15    15    16    1
    16    16    17    1
    17    17    18    1
    18    18    19    1
    19    19    20    1
    20    20    21    1
    21     1    22    1
    22    22    23    1
    23    23    24    1
    24    24    25    1
    25    24    26    2
    26    24    27    1
    27    27    28    1
    28    28    29    1
    29    29    30    1
    30    30    31    1
    31     1    32    1
    32    32    33    2
    33    33    34    1
    34    33    35    1
    35     1    36    1
    36     2    37    1
    37     2    38    1
    38     4    39    1
    39     4    40    1
    40     5    41    1
    41     5    42    1
    42     6    43    1
    43     6    44    1
    44     7    45    1
    45     7    46    1
    46     8    47    1
    47     8    48    1
    48     9    49    1
    49     9    50    1
    50    10    51    1
    51    10    52    1
    52    11    53    1
    53    11    54    1
    54    12    55    1
    55    12    56    1
    56    13    57    1
    57    13    58    1
    58    14    59    1
    59    14    60    1
    60    15    61    1
    61    15    62    1
    62    16    63    1
    63    16    64    1
    64    17    65    1
    65    17    66    1
    66    18    67    1
    67    18    68    1
    68    19    69    1
    69    19    70    1
    70    20    71    1
    71    20    72    1
    72    21    73    1
    73    21    74    1
    74    21    75    1
    75    22    76    1
    76    22    77    1
    77    25    78    1
    78    28    79    1
    79    28    80    1
    80    29    81    1
    81    29    82    1
    82    31    83    1
    83    31    84    1
    84    31    85    1
    85    34    86    1
    86    34    87    1
    87    34    88    1
    88    35    89    1
