
     RDKit          3D

 45 48  0  0  0  0  0  0  0  0999 V2000
    3.7876    1.4575   -3.2358 N   0  0  0  0  0  0  0  0  0  0  0  0
    2.7039    1.0372   -2.3738 C   0  0  0  0  0  0  0  0  0  0  0  0
    1.5279    1.3222   -2.6429 O   0  0  0  0  0  0  0  0  0  0  0  0
    3.0943    0.2701   -1.1922 C   0  0  0  0  0  0  0  0  0  0  0  0
    4.3454   -0.1071   -0.7855 C   0  0  0  0  0  0  0  0  0  0  0  0
    4.2315   -0.7991    0.3573 N   0  0  0  0  0  0  0  0  0  0  0  0
    2.9223   -0.8802    0.7047 C   0  0  0  0  0  0  0  0  0  0  0  0
    2.2747   -1.4782    1.7828 C   0  0  0  0  0  0  0  0  0  0  0  0
    0.9062   -1.3717    1.8355 C   0  0  0  0  0  0  0  0  0  0  0  0
    0.1770   -0.7054    0.8734 C   0  0  0  0  0  0  0  0  0  0  0  0
   -1.2769   -0.5781    0.9066 C   0  0  0  0  0  0  0  0  0  0  0  0
   -1.9271    0.6424    1.0061 C   0  0  0  0  0  0  0  0  0  0  0  0
   -1.2614    1.9444    1.0925 C   0  0  0  0  0  0  0  0  0  0  0  0
   -1.4540    2.9057    0.1225 C   0  0  0  0  0  0  0  0  0  0  0  0
   -0.8339    4.1397    0.1890 C   0  0  0  0  0  0  0  0  0  0  0  0
    0.0099    4.4667    1.2340 C   0  0  0  0  0  0  0  0  0  0  0  0
    0.6322    5.6667    1.3268 F   0  0  0  0  0  0  0  0  0  0  0  0
    0.2033    3.5057    2.2052 C   0  0  0  0  0  0  0  0  0  0  0  0
   -0.4197    2.2717    2.1342 C   0  0  0  0  0  0  0  0  0  0  0  0
   -3.2500    0.3929    1.0080 N   0  0  0  0  0  0  0  0  0  0  0  0
   -3.4550   -0.9243    0.9143 C   0  0  0  0  0  0  0  0  0  0  0  0
   -2.2362   -1.5257    0.8514 N   0  0  0  0  0  0  0  0  0  0  0  0
   -1.9792   -2.9433    0.7480 C   0  0  0  0  0  0  0  0  0  0  0  0
   -1.8878   -3.3861   -0.6829 C   0  0  0  0  0  0  0  0  0  0  0  0
   -3.1986   -3.0781   -1.3683 C   0  0  0  0  0  0  0  0  0  0  0  0
   -3.1782   -3.4734   -2.6983 F   0  0  0  0  0  0  0  0  0  0  0  0
    0.8950   -0.1347   -0.1721 C   0  0  0  0  0  0  0  0  0  0  0  0
    2.2431   -0.2241   -0.2492 N   0  0  0  0  0  0  0  0  0  0  0  0
    4.0986    2.4516   -3.2483 H   0  0  0  0  0  0  0  0  0  0  0  0
    4.2779    0.7802   -3.8587 H   0  0  0  0  0  0  0  0  0  0  0  0
    5.2540    0.1329   -1.3250 H   0  0  0  0  0  0  0  0  0  0  0  0
    2.8556   -1.9978    2.5316 H   0  0  0  0  0  0  0  0  0  0  0  0
    0.3791   -1.8275    2.6651 H   0  0  0  0  0  0  0  0  0  0  0  0
   -2.1134    2.6736   -0.7111 H   0  0  0  0  0  0  0  0  0  0  0  0
   -0.9836    4.9024   -0.5756 H   0  0  0  0  0  0  0  0  0  0  0  0
    0.8662    3.7604    3.0279 H   0  0  0  0  0  0  0  0  0  0  0  0
   -0.2609    1.5163    2.9078 H   0  0  0  0  0  0  0  0  0  0  0  0
   -4.4052   -1.4298    0.8916 H   0  0  0  0  0  0  0  0  0  0  0  0
   -2.7515   -3.5154    1.3098 H   0  0  0  0  0  0  0  0  0  0  0  0
   -1.0104   -3.1644    1.2505 H   0  0  0  0  0  0  0  0  0  0  0  0
   -1.0544   -2.9299   -1.2241 H   0  0  0  0  0  0  0  0  0  0  0  0
   -1.7077   -4.4999   -0.7379 H   0  0  0  0  0  0  0  0  0  0  0  0
   -3.3812   -1.9832   -1.2831 H   0  0  0  0  0  0  0  0  0  0  0  0
   -3.9844   -3.6642   -0.8533 H   0  0  0  0  0  0  0  0  0  0  0  0
    0.3249    0.3813   -0.9166 H   0  0  0  0  0  0  0  0  0  0  0  0
  1  2  1  0
  2  3  2  0
  2  4  1  0
  4  5  2  0
  5  6  1  0
  6  7  2  0
  7  8  1  0
  8  9  2  0
  9 10  1  0
 10 11  1  0
 11 12  2  0
 12 13  1  0
 13 14  2  0
 14 15  1  0
 15 16  2  0
 16 17  1  0
 16 18  1  0
 18 19  2  0
 12 20  1  0
 20 21  2  0
 21 22  1  0
 22 23  1  0
 23 24  1  0
 24 25  1  0
 25 26  1  0
 10 27  2  0
 27 28  1  0
 28  4  1  0
 28  7  1  0
 22 11  1  0
 19 13  1  0
  1 29  1  0
  1 30  1  0
  5 31  1  0
  8 32  1  0
  9 33  1  0
 14 34  1  0
 15 35  1  0
 18 36  1  0
 19 37  1  0
 21 38  1  0
 23 39  1  0
 23 40  1  0
 24 41  1  0
 24 42  1  0
 25 43  1  0
 25 44  1  0
 27 45  1  0
M  END
$$$$
