@<TRIPOS>MOLECULE
*****
 45 48 0 0 0
SMALL
GASTEIGER

@<TRIPOS>ATOM
      1 N           3.7876    1.4575   -3.2358 N.am    1  UNL1       -0.3241
      2 C           2.7039    1.0372   -2.3738 C.2     1  UNL1        0.2599
      3 O           1.5279    1.3222   -2.6429 O.2     1  UNL1       -0.2687
      4 C           3.0943    0.2701   -1.1922 C.ar    1  UNL1        0.1280
      5 C           4.3454   -0.1071   -0.7855 C.ar    1  UNL1        0.0588
      6 N           4.2315   -0.7991    0.3573 N.ar    1  UNL1       -0.2353
      7 C           2.9223   -0.8802    0.7047 C.ar    1  UNL1        0.1381
      8 C           2.2747   -1.4782    1.7828 C.ar    1  UNL1       -0.0182
      9 C           0.9062   -1.3717    1.8355 C.ar    1  UNL1       -0.0477
     10 C           0.1770   -0.7054    0.8734 C.ar    1  UNL1        0.0173
     11 C          -1.2769   -0.5781    0.9066 C.ar    1  UNL1        0.0778
     12 C          -1.9271    0.6424    1.0061 C.ar    1  UNL1        0.0967
     13 C          -1.2614    1.9444    1.0925 C.ar    1  UNL1        0.0026
     14 C          -1.4540    2.9057    0.1225 C.ar    1  UNL1       -0.0498
     15 C          -0.8339    4.1397    0.1890 C.ar    1  UNL1       -0.0258
     16 C           0.0099    4.4667    1.2340 C.ar    1  UNL1        0.1234
     17 F           0.6322    5.6667    1.3268 F       1  UNL1       -0.2055
     18 C           0.2033    3.5057    2.2052 C.ar    1  UNL1       -0.0258
     19 C          -0.4197    2.2717    2.1342 C.ar    1  UNL1       -0.0498
     20 N          -3.2500    0.3929    1.0080 N.ar    1  UNL1       -0.2351
     21 C          -3.4550   -0.9243    0.9143 C.ar    1  UNL1        0.0971
     22 N          -2.2362   -1.5257    0.8514 N.ar    1  UNL1       -0.3295
     23 C          -1.9792   -2.9433    0.7480 C.3     1  UNL1        0.0271
     24 C          -1.8878   -3.3861   -0.6829 C.3     1  UNL1       -0.0065
     25 C          -3.1986   -3.0781   -1.3683 C.3     1  UNL1        0.0918
     26 F          -3.1782   -3.4734   -2.6983 F       1  UNL1       -0.2490
     27 C           0.8950   -0.1347   -0.1721 C.ar    1  UNL1        0.0211
     28 N           2.2431   -0.2241   -0.2492 N.ar    1  UNL1       -0.2949
     29 H           4.0986    2.4516   -3.2483 H       1  UNL1        0.1453
     30 H           4.2779    0.7802   -3.8587 H       1  UNL1        0.1453
     31 H           5.2540    0.1329   -1.3250 H       1  UNL1        0.0853
     32 H           2.8556   -1.9978    2.5316 H       1  UNL1        0.0654
     33 H           0.3791   -1.8275    2.6651 H       1  UNL1        0.0626
     34 H          -2.1134    2.6736   -0.7111 H       1  UNL1        0.0625
     35 H          -0.9836    4.9024   -0.5756 H       1  UNL1        0.0646
     36 H           0.8662    3.7604    3.0279 H       1  UNL1        0.0646
     37 H          -0.2609    1.5163    2.9078 H       1  UNL1        0.0625
     38 H          -4.4052   -1.4298    0.8916 H       1  UNL1        0.1029
     39 H          -2.7515   -3.5154    1.3098 H       1  UNL1        0.0493
     40 H          -1.0104   -3.1644    1.2505 H       1  UNL1        0.0493
     41 H          -1.0544   -2.9299   -1.2241 H       1  UNL1        0.0307
     42 H          -1.7077   -4.4999   -0.7379 H       1  UNL1        0.0307
     43 H          -3.3812   -1.9832   -1.2831 H       1  UNL1        0.0615
     44 H          -3.9844   -3.6642   -0.8533 H       1  UNL1        0.0615
     45 H           0.3249    0.3813   -0.9166 H       1  UNL1        0.0820
@<TRIPOS>BOND
     1     1     2   am
     2     2     3    2
     3     2     4    1
     4     4     5   ar
     5     5     6   ar
     6     6     7   ar
     7     7     8   ar
     8     8     9   ar
     9     9    10   ar
    10    10    11    1
    11    11    12   ar
    12    12    13    1
    13    13    14   ar
    14    14    15   ar
    15    15    16   ar
    16    16    17    1
    17    16    18   ar
    18    18    19   ar
    19    12    20   ar
    20    20    21   ar
    21    21    22   ar
    22    22    23    1
    23    23    24    1
    24    24    25    1
    25    25    26    1
    26    10    27   ar
    27    27    28   ar
    28    28     4   ar
    29    28     7   ar
    30    22    11   ar
    31    19    13   ar
    32     1    29    1
    33     1    30    1
    34     5    31    1
    35     8    32    1
    36     9    33    1
    37    14    34    1
    38    15    35    1
    39    18    36    1
    40    19    37    1
    41    21    38    1
    42    23    39    1
    43    23    40    1
    44    24    41    1
    45    24    42    1
    46    25    43    1
    47    25    44    1
    48    27    45    1
