@<TRIPOS>MOLECULE
*****
 41 40 0 0 0
SMALL
GASTEIGER

@<TRIPOS>ATOM
      1 C          -0.3310   -0.0368    0.6363 C.3     1  UNL1        0.0162
      2 C           1.1230   -0.3302    0.3387 C.3     1  UNL1       -0.0403
      3 C           1.2337   -1.8074    0.0213 C.3     1  UNL1       -0.0515
      4 C           2.6133   -2.2726   -0.3050 C.3     1  UNL1       -0.0430
      5 C           3.6118   -2.0676    0.7879 C.3     1  UNL1        0.0448
      6 C           4.9190   -2.5798    0.2900 C.2     1  UNL1        0.3047
      7 O           5.9841   -1.7681   -0.1401 O.3     1  UNL1       -0.4806
      8 O           5.0435   -3.8461    0.2684 O.2     1  UNL1       -0.2510
      9 C          -0.6142    1.3897    0.9703 C.3     1  UNL1       -0.0313
     10 C          -0.2609    2.3677   -0.1015 C.3     1  UNL1       -0.0041
     11 S          -0.6990    4.0228    0.5537 S.3     1  UNL1       -0.1456
     12 C          -0.3204    5.2996   -0.6842 C.3     1  UNL1        0.0402
     13 N           1.1180    5.3312   -0.8354 N.3     1  UNL1       -0.3216
     14 S          -1.3357   -0.6393   -0.7558 S.3     1  UNL1       -0.0896
     15 S          -3.3985   -0.3776   -0.4978 S.3     1  UNL1       -0.0906
     16 C          -4.1651   -1.8269    0.3154 C.3     1  UNL1        0.0271
     17 C          -5.6352   -1.6560    0.4985 C.3     1  UNL1        0.0540
     18 O          -6.2317   -1.4870   -0.7463 O.3     1  UNL1       -0.3942
     19 H          -0.6196   -0.6553    1.5123 H       1  UNL1        0.0421
     20 H           1.8027   -0.1225    1.1627 H       1  UNL1        0.0276
     21 H           1.3955    0.2328   -0.5811 H       1  UNL1        0.0276
     22 H           0.8434   -2.3564    0.8948 H       1  UNL1        0.0266
     23 H           0.5933   -2.0163   -0.8691 H       1  UNL1        0.0266
     24 H           2.9832   -1.8095   -1.2463 H       1  UNL1        0.0270
     25 H           2.5468   -3.3753   -0.4913 H       1  UNL1        0.0270
     26 H           3.7332   -0.9883    1.0170 H       1  UNL1        0.0377
     27 H           3.2876   -2.6701    1.6801 H       1  UNL1        0.0377
     28 H           6.7641   -2.2193   -0.6297 H       1  UNL1        0.2951
     29 H           0.0114    1.6426    1.8661 H       1  UNL1        0.0284
     30 H          -1.6641    1.4938    1.2379 H       1  UNL1        0.0284
     31 H           0.8104    2.4112   -0.3473 H       1  UNL1        0.0377
     32 H          -0.8026    2.1738   -1.0544 H       1  UNL1        0.0377
     33 H          -0.7114    6.2631   -0.2788 H       1  UNL1        0.0537
     34 H          -0.8420    5.1044   -1.6648 H       1  UNL1        0.0537
     35 H           1.3681    4.5535   -1.4999 H       1  UNL1        0.1190
     36 H           1.5375    5.0775    0.0857 H       1  UNL1        0.1190
     37 H          -3.6898   -1.8610    1.3221 H       1  UNL1        0.0407
     38 H          -3.8819   -2.7666   -0.1912 H       1  UNL1        0.0407
     39 H          -5.8386   -0.8431    1.2001 H       1  UNL1        0.0565
     40 H          -5.9889   -2.6009    1.0003 H       1  UNL1        0.0565
     41 H          -6.2932   -2.3837   -1.1603 H       1  UNL1        0.2094
@<TRIPOS>BOND
     1     1     2    1
     2     2     3    1
     3     3     4    1
     4     4     5    1
     5     5     6    1
     6     6     7    1
     7     6     8    2
     8     1     9    1
     9     9    10    1
    10    10    11    1
    11    11    12    1
    12    12    13    1
    13     1    14    1
    14    14    15    1
    15    15    16    1
    16    16    17    1
    17    17    18    1
    18     1    19    1
    19     2    20    1
    20     2    21    1
    21     3    22    1
    22     3    23    1
    23     4    24    1
    24     4    25    1
    25     5    26    1
    26     5    27    1
    27     7    28    1
    28     9    29    1
    29     9    30    1
    30    10    31    1
    31    10    32    1
    32    12    33    1
    33    12    34    1
    34    13    35    1
    35    13    36    1
    36    16    37    1
    37    16    38    1
    38    17    39    1
    39    17    40    1
    40    18    41    1
