
     RDKit          3D

 41 40  0  0  0  0  0  0  0  0999 V2000
   -0.3310   -0.0368    0.6363 C   0  0  1  0  0  0  0  0  0  0  0  0
    1.1230   -0.3302    0.3387 C   0  0  0  0  0  0  0  0  0  0  0  0
    1.2337   -1.8074    0.0213 C   0  0  0  0  0  0  0  0  0  0  0  0
    2.6133   -2.2726   -0.3050 C   0  0  0  0  0  0  0  0  0  0  0  0
    3.6118   -2.0676    0.7879 C   0  0  0  0  0  0  0  0  0  0  0  0
    4.9190   -2.5798    0.2900 C   0  0  0  0  0  0  0  0  0  0  0  0
    5.9841   -1.7681   -0.1401 O   0  0  0  0  0  0  0  0  0  0  0  0
    5.0435   -3.8461    0.2684 O   0  0  0  0  0  0  0  0  0  0  0  0
   -0.6142    1.3897    0.9703 C   0  0  0  0  0  0  0  0  0  0  0  0
   -0.2609    2.3677   -0.1015 C   0  0  0  0  0  0  0  0  0  0  0  0
   -0.6990    4.0228    0.5537 S   0  0  0  0  0  0  0  0  0  0  0  0
   -0.3204    5.2996   -0.6842 C   0  0  0  0  0  0  0  0  0  0  0  0
    1.1180    5.3312   -0.8354 N   0  0  0  0  0  0  0  0  0  0  0  0
   -1.3357   -0.6393   -0.7558 S   0  0  0  0  0  0  0  0  0  0  0  0
   -3.3985   -0.3776   -0.4978 S   0  0  0  0  0  0  0  0  0  0  0  0
   -4.1651   -1.8269    0.3154 C   0  0  0  0  0  0  0  0  0  0  0  0
   -5.6352   -1.6560    0.4985 C   0  0  0  0  0  0  0  0  0  0  0  0
   -6.2317   -1.4870   -0.7463 O   0  0  0  0  0  0  0  0  0  0  0  0
   -0.6196   -0.6553    1.5123 H   0  0  0  0  0  0  0  0  0  0  0  0
    1.8027   -0.1225    1.1627 H   0  0  0  0  0  0  0  0  0  0  0  0
    1.3955    0.2328   -0.5811 H   0  0  0  0  0  0  0  0  0  0  0  0
    0.8434   -2.3564    0.8948 H   0  0  0  0  0  0  0  0  0  0  0  0
    0.5933   -2.0163   -0.8691 H   0  0  0  0  0  0  0  0  0  0  0  0
    2.9832   -1.8095   -1.2463 H   0  0  0  0  0  0  0  0  0  0  0  0
    2.5468   -3.3753   -0.4913 H   0  0  0  0  0  0  0  0  0  0  0  0
    3.7332   -0.9883    1.0170 H   0  0  0  0  0  0  0  0  0  0  0  0
    3.2876   -2.6701    1.6801 H   0  0  0  0  0  0  0  0  0  0  0  0
    6.7641   -2.2193   -0.6297 H   0  0  0  0  0  0  0  0  0  0  0  0
    0.0114    1.6426    1.8661 H   0  0  0  0  0  0  0  0  0  0  0  0
   -1.6641    1.4938    1.2379 H   0  0  0  0  0  0  0  0  0  0  0  0
    0.8104    2.4112   -0.3473 H   0  0  0  0  0  0  0  0  0  0  0  0
   -0.8026    2.1738   -1.0544 H   0  0  0  0  0  0  0  0  0  0  0  0
   -0.7114    6.2631   -0.2788 H   0  0  0  0  0  0  0  0  0  0  0  0
   -0.8420    5.1044   -1.6648 H   0  0  0  0  0  0  0  0  0  0  0  0
    1.3681    4.5535   -1.4999 H   0  0  0  0  0  0  0  0  0  0  0  0
    1.5375    5.0775    0.0857 H   0  0  0  0  0  0  0  0  0  0  0  0
   -3.6898   -1.8610    1.3221 H   0  0  0  0  0  0  0  0  0  0  0  0
   -3.8819   -2.7666   -0.1912 H   0  0  0  0  0  0  0  0  0  0  0  0
   -5.8386   -0.8431    1.2001 H   0  0  0  0  0  0  0  0  0  0  0  0
   -5.9889   -2.6009    1.0003 H   0  0  0  0  0  0  0  0  0  0  0  0
   -6.2932   -2.3837   -1.1603 H   0  0  0  0  0  0  0  0  0  0  0  0
  1  2  1  0
  2  3  1  0
  3  4  1  0
  4  5  1  0
  5  6  1  0
  6  7  1  0
  6  8  2  0
  1  9  1  0
  9 10  1  0
 10 11  1  0
 11 12  1  0
 12 13  1  0
  1 14  1  0
 14 15  1  0
 15 16  1  0
 16 17  1  0
 17 18  1  0
  1 19  1  1
  2 20  1  0
  2 21  1  0
  3 22  1  0
  3 23  1  0
  4 24  1  0
  4 25  1  0
  5 26  1  0
  5 27  1  0
  7 28  1  0
  9 29  1  0
  9 30  1  0
 10 31  1  0
 10 32  1  0
 12 33  1  0
 12 34  1  0
 13 35  1  0
 13 36  1  0
 16 37  1  0
 16 38  1  0
 17 39  1  0
 17 40  1  0
 18 41  1  0
M  END
$$$$
