@<TRIPOS>MOLECULE
*****
 49 51 0 0 0
SMALL
GASTEIGER

@<TRIPOS>ATOM
      1 C           0.6235   -1.8565   -0.0501 C.3     1  UNL1        0.0728
      2 C           1.2641   -3.1386   -0.5850 C.3     1  UNL1        0.0178
      3 N           1.0741   -4.2033    0.3741 N.3     1  UNL1       -0.3141
      4 C          -0.1712   -4.8782    0.1830 C.3     1  UNL1       -0.0039
      5 C          -1.3658   -3.9791    0.2743 C.3     1  UNL1       -0.0370
      6 C          -1.4299   -3.0619   -0.8931 C.3     1  UNL1       -0.0127
      7 C          -0.7242   -1.7453   -0.7288 C.3     1  UNL1        0.1228
      8 O          -1.5445   -0.7389   -0.1853 O.3     1  UNL1       -0.4560
      9 C          -1.9464    0.4014   -0.8615 C.2     1  UNL1        0.3395
     10 O          -1.5172    0.4892   -2.0405 O.2     1  UNL1       -0.2450
     11 C          -2.8046    1.4165   -0.2380 C.ar    1  UNL1        0.0592
     12 C          -3.2425    1.2597    1.0626 C.ar    1  UNL1       -0.0443
     13 C          -4.0598    2.2455    1.6287 C.ar    1  UNL1       -0.0194
     14 C          -4.3839    3.3322    0.8403 C.ar    1  UNL1        0.1169
     15 O          -5.1911    4.3850    1.2842 O.3     1  UNL1       -0.5068
     16 C          -3.9451    3.4885   -0.4620 C.ar    1  UNL1       -0.0194
     17 C          -3.1333    2.5095   -1.0244 C.ar    1  UNL1       -0.0443
     18 N           1.4526   -0.7705   -0.5187 N.am    1  UNL1       -0.3037
     19 C           2.0373    0.0877    0.4282 C.2     1  UNL1        0.2444
     20 O           1.8293   -0.1058    1.6412 O.2     1  UNL1       -0.2702
     21 C           2.8895    1.2121    0.0589 C.ar    1  UNL1        0.0369
     22 C           3.4130    1.9929    1.0835 C.ar    1  UNL1       -0.0462
     23 C           4.2362    3.0877    0.8464 C.ar    1  UNL1       -0.0195
     24 C           4.5231    3.3805   -0.4714 C.ar    1  UNL1        0.1169
     25 O           5.3502    4.4791   -0.7289 O.3     1  UNL1       -0.5068
     26 C           4.0289    2.6372   -1.5234 C.ar    1  UNL1       -0.0195
     27 C           3.2061    1.5463   -1.2400 C.ar    1  UNL1       -0.0462
     28 H           0.5581   -1.8656    1.0497 H       1  UNL1        0.0547
     29 H           2.3732   -2.9749   -0.6809 H       1  UNL1        0.0443
     30 H           0.8871   -3.3863   -1.5990 H       1  UNL1        0.0443
     31 H           1.8355   -4.9067    0.2607 H       1  UNL1        0.1220
     32 H          -0.2640   -5.6114    1.0304 H       1  UNL1        0.0424
     33 H          -0.2583   -5.4596   -0.7532 H       1  UNL1        0.0424
     34 H          -2.2618   -4.6611    0.1875 H       1  UNL1        0.0279
     35 H          -1.4864   -3.4992    1.2524 H       1  UNL1        0.0279
     36 H          -1.1306   -3.6303   -1.7995 H       1  UNL1        0.0302
     37 H          -2.5137   -2.8103   -1.0816 H       1  UNL1        0.0302
     38 H          -0.4946   -1.4122   -1.7762 H       1  UNL1        0.0753
     39 H          -2.9751    0.3957    1.6660 H       1  UNL1        0.0627
     40 H          -4.4386    2.1900    2.6372 H       1  UNL1        0.0654
     41 H          -6.1976    4.2376    1.3276 H       1  UNL1        0.2921
     42 H          -4.1955    4.3377   -1.0850 H       1  UNL1        0.0654
     43 H          -2.7676    2.5938   -2.0428 H       1  UNL1        0.0627
     44 H           1.6063   -0.6362   -1.5341 H       1  UNL1        0.1495
     45 H           3.2042    1.7868    2.1380 H       1  UNL1        0.0626
     46 H           4.6226    3.6693    1.6738 H       1  UNL1        0.0654
     47 H           6.3476    4.3268   -0.8164 H       1  UNL1        0.2921
     48 H           4.2807    2.9035   -2.5494 H       1  UNL1        0.0654
     49 H           2.8001    0.9396   -2.0496 H       1  UNL1        0.0626
@<TRIPOS>BOND
     1     1     2    1
     2     2     3    1
     3     3     4    1
     4     4     5    1
     5     5     6    1
     6     6     7    1
     7     7     8    1
     8     8     9    1
     9     9    10    2
    10     9    11    1
    11    11    12   ar
    12    12    13   ar
    13    13    14   ar
    14    14    15    1
    15    14    16   ar
    16    16    17   ar
    17     1    18    1
    18    18    19   am
    19    19    20    2
    20    19    21    1
    21    21    22   ar
    22    22    23   ar
    23    23    24   ar
    24    24    25    1
    25    24    26   ar
    26    26    27   ar
    27     7     1    1
    28    17    11   ar
    29    27    21   ar
    30     1    28    1
    31     2    29    1
    32     2    30    1
    33     3    31    1
    34     4    32    1
    35     4    33    1
    36     5    34    1
    37     5    35    1
    38     6    36    1
    39     6    37    1
    40     7    38    1
    41    12    39    1
    42    13    40    1
    43    15    41    1
    44    16    42    1
    45    17    43    1
    46    18    44    1
    47    22    45    1
    48    23    46    1
    49    25    47    1
    50    26    48    1
    51    27    49    1
