@<TRIPOS>MOLECULE
*****
 40 42 0 0 0
SMALL
GASTEIGER

@<TRIPOS>ATOM
      1 C           5.6958   -1.7140   -0.2318 C.3     1  UNL1       -0.0397
      2 C           4.2947   -1.1876   -0.1649 C.ar    1  UNL1       -0.0504
      3 C           3.3065   -1.7824   -0.9217 C.ar    1  UNL1       -0.0582
      4 C           2.0436   -1.2138   -0.7836 C.ar    1  UNL1       -0.0522
      5 C           1.7111   -0.1324    0.0277 C.ar    1  UNL1        0.0029
      6 C           2.7687    0.3872    0.7411 C.ar    1  UNL1       -0.0522
      7 C           4.0483   -0.1159    0.6616 C.ar    1  UNL1       -0.0582
      8 C           0.3177    0.2794    0.0249 C.ar    1  UNL1        0.1053
      9 N          -0.6262   -0.6912    0.2071 N.ar    1  UNL1       -0.1681
     10 N          -1.8431   -0.1640    0.1733 N.ar    1  UNL1       -0.2403
     11 C          -1.7711    1.1629   -0.0304 C.ar    1  UNL1        0.1643
     12 C          -0.4220    1.4323   -0.1225 C.ar    1  UNL1        0.0859
     13 C           0.1258    2.6781   -0.3380 C.ar    1  UNL1        0.1308
     14 N           1.5075    2.9413   -0.4463 N.pl3   1  UNL1       -0.3425
     15 N          -0.7166    3.7218   -0.4688 N.ar    1  UNL1       -0.2204
     16 C          -2.0397    3.4821   -0.3812 C.ar    1  UNL1        0.1204
     17 N          -2.5736    2.2437   -0.1682 N.ar    1  UNL1       -0.2161
     18 C          -3.1228   -0.8321    0.3230 C.3     1  UNL1        0.0575
     19 C          -3.9755   -0.5643   -0.8944 C.3     1  UNL1       -0.0402
     20 C          -2.9678   -2.3225    0.4702 C.3     1  UNL1       -0.0402
     21 C          -3.8203   -0.2217    1.5169 C.3     1  UNL1       -0.0402
     22 H           6.3334   -0.8201   -0.4214 H       1  UNL1        0.0278
     23 H           5.9357   -2.1543    0.7669 H       1  UNL1        0.0278
     24 H           5.8155   -2.4942   -0.9880 H       1  UNL1        0.0278
     25 H           3.4726   -2.6129   -1.5684 H       1  UNL1        0.0620
     26 H           1.2658   -1.6926   -1.3881 H       1  UNL1        0.0624
     27 H           2.5442    1.2186    1.3915 H       1  UNL1        0.0624
     28 H           4.8164    0.3741    1.2728 H       1  UNL1        0.0620
     29 H           1.9016    2.5819   -1.3315 H       1  UNL1        0.1437
     30 H           2.1656    3.4226    0.2025 H       1  UNL1        0.1437
     31 H          -2.7816    4.2799   -0.4771 H       1  UNL1        0.1048
     32 H          -5.0559   -0.7703   -0.6698 H       1  UNL1        0.0253
     33 H          -3.6140   -1.0682   -1.8050 H       1  UNL1        0.0253
     34 H          -3.9400    0.5284   -1.1030 H       1  UNL1        0.0253
     35 H          -3.0216   -2.7660   -0.5252 H       1  UNL1        0.0253
     36 H          -3.8533   -2.6878    1.0289 H       1  UNL1        0.0253
     37 H          -2.0461   -2.6069    1.0105 H       1  UNL1        0.0253
     38 H          -4.3348    0.7020    1.1713 H       1  UNL1        0.0253
     39 H          -3.0377    0.1338    2.2424 H       1  UNL1        0.0253
     40 H          -4.5067   -0.9548    1.9968 H       1  UNL1        0.0253
@<TRIPOS>BOND
     1     1     2    1
     2     2     3   ar
     3     3     4   ar
     4     4     5   ar
     5     5     6   ar
     6     6     7   ar
     7     5     8    1
     8     8     9   ar
     9     9    10   ar
    10    10    11   ar
    11    11    12   ar
    12    12    13   ar
    13    13    14    1
    14    13    15   ar
    15    15    16   ar
    16    16    17   ar
    17    10    18    1
    18    18    19    1
    19    18    20    1
    20    18    21    1
    21     7     2   ar
    22    12     8   ar
    23    17    11   ar
    24     1    22    1
    25     1    23    1
    26     1    24    1
    27     3    25    1
    28     4    26    1
    29     6    27    1
    30     7    28    1
    31    14    29    1
    32    14    30    1
    33    16    31    1
    34    19    32    1
    35    19    33    1
    36    19    34    1
    37    20    35    1
    38    20    36    1
    39    20    37    1
    40    21    38    1
    41    21    39    1
    42    21    40    1
