@<TRIPOS>MOLECULE
*****
 43 44 0 0 0
SMALL
GASTEIGER

@<TRIPOS>ATOM
      1 O          -2.7829    2.4785    1.6826 O.2     1  UNL1       -0.2737
      2 C          -2.1162    3.2146    0.9286 C.2     1  UNL1        0.2362
      3 C          -0.8882    2.7616    0.2751 C.3     1  UNL1        0.0373
      4 C          -0.5759    1.2878    0.4213 C.3     1  UNL1        0.0480
      5 C          -1.7138    0.5526   -0.2366 C.3     1  UNL1       -0.0161
      6 C          -1.6534   -0.8987   -0.2418 C.ar    1  UNL1       -0.0466
      7 C          -1.0462   -1.5200   -1.3326 C.ar    1  UNL1       -0.0586
      8 C          -0.9487   -2.8904   -1.4439 C.ar    1  UNL1       -0.0615
      9 C          -1.4662   -3.7044   -0.4459 C.ar    1  UNL1       -0.0617
     10 C          -2.0662   -3.0789    0.6324 C.ar    1  UNL1       -0.0615
     11 C          -2.1625   -1.7179    0.7416 C.ar    1  UNL1       -0.0586
     12 C           0.6933    1.0482   -0.3551 C.2     1  UNL1        0.2201
     13 O           0.8270    1.8237   -1.3464 O.2     1  UNL1       -0.2753
     14 N           1.6205    0.0720   -0.0067 N.am    1  UNL1       -0.2878
     15 C           1.4645   -0.7634    1.1917 C.3     1  UNL1        0.0156
     16 C           1.9242   -2.1106    0.6942 C.3     1  UNL1       -0.0349
     17 C           2.5332   -1.8844   -0.6686 C.3     1  UNL1       -0.0225
     18 C           2.8259   -0.3643   -0.5834 C.3     1  UNL1        0.1228
     19 C           3.2986    0.1273   -1.8467 C.2     1  UNL1        0.3255
     20 O           2.7125    0.9007   -2.5901 O.2     1  UNL1       -0.2489
     21 O           4.5627   -0.3190   -2.2837 O.3     1  UNL1       -0.4793
     22 N          -2.5774    4.5609    0.6956 N.am    1  UNL1       -0.1975
     23 O          -3.7061    5.0090    1.2831 O.3     1  UNL1       -0.2952
     24 H          -0.0305    3.3954    0.6096 H       1  UNL1        0.0366
     25 H          -0.9969    3.0380   -0.8171 H       1  UNL1        0.0366
     26 H          -0.4620    1.0693    1.4864 H       1  UNL1        0.0402
     27 H          -1.7620    0.9405   -1.2921 H       1  UNL1        0.0321
     28 H          -2.6777    0.8453    0.2126 H       1  UNL1        0.0321
     29 H          -0.6219   -0.9395   -2.1457 H       1  UNL1        0.0620
     30 H          -0.4709   -3.3544   -2.3039 H       1  UNL1        0.0618
     31 H          -1.4151   -4.7717   -0.4869 H       1  UNL1        0.0618
     32 H          -2.4883   -3.6684    1.4432 H       1  UNL1        0.0618
     33 H          -2.6350   -1.2100    1.5902 H       1  UNL1        0.0620
     34 H           2.2482   -0.4114    1.9138 H       1  UNL1        0.0465
     35 H           0.4667   -0.7369    1.6191 H       1  UNL1        0.0465
     36 H           2.7020   -2.5489    1.3636 H       1  UNL1        0.0281
     37 H           1.0252   -2.7562    0.6561 H       1  UNL1        0.0281
     38 H           1.8304   -2.0917   -1.4993 H       1  UNL1        0.0289
     39 H           3.4600   -2.4497   -0.8291 H       1  UNL1        0.0289
     40 H           3.6404   -0.3335    0.2176 H       1  UNL1        0.0616
     41 H           5.0909    0.2379   -2.9737 H       1  UNL1        0.2951
     42 H          -2.0030    5.1534    0.0630 H       1  UNL1        0.1822
     43 H          -3.6596    6.0072    1.2909 H       1  UNL1        0.2414
@<TRIPOS>BOND
     1     1     2    2
     2     2     3    1
     3     3     4    1
     4     4     5    1
     5     5     6    1
     6     6     7   ar
     7     7     8   ar
     8     8     9   ar
     9     9    10   ar
    10    10    11   ar
    11     4    12    1
    12    12    13    2
    13    12    14   am
    14    14    15    1
    15    15    16    1
    16    16    17    1
    17    17    18    1
    18    18    19    1
    19    19    20    2
    20    19    21    1
    21     2    22   am
    22    22    23    1
    23    11     6   ar
    24    18    14    1
    25     3    24    1
    26     3    25    1
    27     4    26    1
    28     5    27    1
    29     5    28    1
    30     7    29    1
    31     8    30    1
    32     9    31    1
    33    10    32    1
    34    11    33    1
    35    15    34    1
    36    15    35    1
    37    16    36    1
    38    16    37    1
    39    17    38    1
    40    17    39    1
    41    18    40    1
    42    21    41    1
    43    22    42    1
    44    23    43    1
