@<TRIPOS>MOLECULE
*****
 52 52 0 0 0
SMALL
GASTEIGER

@<TRIPOS>ATOM
      1 C           6.1652   -0.2634    1.9519 C.3     1  UNL1       -0.0652
      2 C           6.5145   -1.0482    0.7226 C.3     1  UNL1       -0.0538
      3 C           5.9340   -0.5138   -0.5452 C.3     1  UNL1       -0.0297
      4 C           4.4138   -0.4747   -0.5333 C.3     1  UNL1        0.0477
      5 O           3.9481    0.0375   -1.7180 O.3     1  UNL1       -0.3798
      6 C           2.5831    0.1195   -1.8482 C.3     1  UNL1        0.0477
      7 C           1.8938    0.9785   -0.8165 C.3     1  UNL1       -0.0294
      8 C           0.3904    0.9641   -1.1383 C.3     1  UNL1       -0.0498
      9 C          -0.3670    1.7972   -0.1306 C.3     1  UNL1       -0.0401
     10 C          -1.8066    1.8644   -0.3378 C.3     1  UNL1       -0.0006
     11 N          -2.6908    0.8028   -0.2971 N.3     1  UNL1       -0.2923
     12 C          -3.9902    1.1010   -0.8264 C.3     1  UNL1        0.0279
     13 C          -5.0934    0.4440   -0.1180 C.3     1  UNL1        0.0962
     14 O          -5.5358    1.1126    1.0312 O.3     1  UNL1       -0.3879
     15 C          -4.8778   -1.0087    0.0372 C.3     1  UNL1        0.1095
     16 O          -5.6229   -1.7027   -0.9503 O.3     1  UNL1       -0.3866
     17 C          -3.4679   -1.4883   -0.1465 C.3     1  UNL1        0.1011
     18 O          -3.2855   -2.5995    0.6677 O.3     1  UNL1       -0.3875
     19 C          -2.4567   -0.4183    0.2951 C.3     1  UNL1        0.0621
     20 C          -2.5965   -0.4020    1.8044 C.3     1  UNL1        0.0622
     21 O          -1.7622    0.4672    2.4496 O.3     1  UNL1       -0.3934
     22 H           7.1182    0.0274    2.4806 H       1  UNL1        0.0230
     23 H           5.6819    0.7011    1.7078 H       1  UNL1        0.0230
     24 H           5.5947   -0.8714    2.6839 H       1  UNL1        0.0230
     25 H           7.6379   -1.1223    0.6337 H       1  UNL1        0.0263
     26 H           6.1938   -2.1113    0.8995 H       1  UNL1        0.0263
     27 H           6.2964    0.5176   -0.7390 H       1  UNL1        0.0287
     28 H           6.3127   -1.1356   -1.3883 H       1  UNL1        0.0287
     29 H           3.9837   -1.4626   -0.3330 H       1  UNL1        0.0560
     30 H           4.1347    0.2576    0.2749 H       1  UNL1        0.0560
     31 H           2.3350    0.4636   -2.8745 H       1  UNL1        0.0560
     32 H           2.1918   -0.9242   -1.6705 H       1  UNL1        0.0560
     33 H           2.1017    0.6262    0.2025 H       1  UNL1        0.0287
     34 H           2.2486    2.0244   -0.8989 H       1  UNL1        0.0287
     35 H           0.3375    1.5622   -2.1074 H       1  UNL1        0.0266
     36 H           0.0438   -0.0429   -1.3006 H       1  UNL1        0.0266
     37 H           0.0177    2.8649   -0.3417 H       1  UNL1        0.0278
     38 H           0.0131    1.6437    0.9005 H       1  UNL1        0.0278
     39 H          -2.2088    2.6701    0.3683 H       1  UNL1        0.0427
     40 H          -1.9622    2.3960   -1.3438 H       1  UNL1        0.0427
     41 H          -4.0820    2.2199   -0.8326 H       1  UNL1        0.0453
     42 H          -4.0042    0.7657   -1.8931 H       1  UNL1        0.0453
     43 H          -6.0175    0.5569   -0.8114 H       1  UNL1        0.0633
     44 H          -5.3720    2.0652    0.9625 H       1  UNL1        0.2099
     45 H          -5.3223   -1.3604    1.0062 H       1  UNL1        0.0646
     46 H          -5.3227   -1.2980   -1.8272 H       1  UNL1        0.2100
     47 H          -3.2082   -1.7810   -1.1781 H       1  UNL1        0.0636
     48 H          -3.4920   -3.4244    0.1812 H       1  UNL1        0.2100
     49 H          -1.4756   -0.9233    0.1011 H       1  UNL1        0.0511
     50 H          -3.6453   -0.3214    2.1323 H       1  UNL1        0.0573
     51 H          -2.3141   -1.4561    2.1858 H       1  UNL1        0.0573
     52 H          -2.1058    0.8737    3.2660 H       1  UNL1        0.2095
@<TRIPOS>BOND
     1     1     2    1
     2     2     3    1
     3     3     4    1
     4     4     5    1
     5     5     6    1
     6     6     7    1
     7     7     8    1
     8     8     9    1
     9     9    10    1
    10    10    11    1
    11    11    12    1
    12    12    13    1
    13    13    14    1
    14    13    15    1
    15    15    16    1
    16    15    17    1
    17    17    18    1
    18    17    19    1
    19    19    20    1
    20    20    21    1
    21    19    11    1
    22     1    22    1
    23     1    23    1
    24     1    24    1
    25     2    25    1
    26     2    26    1
    27     3    27    1
    28     3    28    1
    29     4    29    1
    30     4    30    1
    31     6    31    1
    32     6    32    1
    33     7    33    1
    34     7    34    1
    35     8    35    1
    36     8    36    1
    37     9    37    1
    38     9    38    1
    39    10    39    1
    40    10    40    1
    41    12    41    1
    42    12    42    1
    43    13    43    1
    44    14    44    1
    45    15    45    1
    46    16    46    1
    47    17    47    1
    48    18    48    1
    49    19    49    1
    50    20    50    1
    51    20    51    1
    52    21    52    1
