@<TRIPOS>MOLECULE
*****
 74 79 0 0 0
SMALL
GASTEIGER

@<TRIPOS>ATOM
      1 C          -3.1491   -0.1057   -7.0530 C.3     1  UNL1        0.0804
      2 O          -2.4529    0.1713   -5.8688 O.3     1  UNL1       -0.4795
      3 C          -2.2933   -0.7247   -4.8334 C.ar    1  UNL1        0.2191
      4 C          -1.5880   -0.3455   -3.7115 C.ar    1  UNL1        0.0404
      5 C          -1.4333   -1.2447   -2.6837 C.ar    1  UNL1        0.1364
      6 N          -0.7132   -0.8617   -1.5360 N.am    1  UNL1       -0.2240
      7 C           0.6886   -1.0336   -1.3698 C.2     1  UNL1        0.3219
      8 O           1.4515   -1.7905   -2.0577 O.2     1  UNL1       -0.2512
      9 N           1.1393   -0.2260   -0.3038 N.am    1  UNL1       -0.1920
     10 C           2.4806   -0.1388    0.1554 C.ar    1  UNL1        0.0455
     11 C           3.3649    0.7780   -0.3596 C.ar    1  UNL1       -0.0392
     12 C           4.6699    0.8658    0.0853 C.ar    1  UNL1       -0.0523
     13 C           5.1361    0.0279    1.0722 C.ar    1  UNL1       -0.0178
     14 C           6.5151    0.0846    1.5772 C.ar    1  UNL1       -0.0178
     15 C           6.7783   -0.2493    2.9004 C.ar    1  UNL1       -0.0533
     16 C           8.0515   -0.2147    3.4282 C.ar    1  UNL1       -0.0491
     17 C           9.1050    0.1615    2.6276 C.ar    1  UNL1        0.0365
     18 C          10.4412    0.1931    3.2004 C.2     1  UNL1        0.2415
     19 N          11.5797    0.5688    2.4414 N.am    1  UNL1       -0.3253
     20 O          10.6398   -0.1136    4.4001 O.2     1  UNL1       -0.2704
     21 C           8.8493    0.4932    1.3161 C.ar    1  UNL1       -0.0491
     22 C           7.5695    0.4574    0.7892 C.ar    1  UNL1       -0.0533
     23 C           4.2366   -0.8986    1.5903 C.ar    1  UNL1       -0.0523
     24 C           2.9407   -0.9952    1.1574 C.ar    1  UNL1       -0.0392
     25 C          -0.0101    0.4683    0.2085 C.2     1  UNL1        0.2516
     26 O           0.0641    1.4562    0.9518 O.2     1  UNL1       -0.2724
     27 C          -1.2255   -0.2390   -0.3332 C.3     1  UNL1        0.1240
     28 C          -2.3758    0.6831   -0.5641 C.3     1  UNL1       -0.0095
     29 C          -3.6858   -0.0590   -0.3035 C.3     1  UNL1        0.0017
     30 N          -3.8567   -0.3480    1.1025 N.3     1  UNL1       -0.2965
     31 C          -4.4868    0.7516    1.7947 C.3     1  UNL1        0.0415
     32 C          -5.8114    1.0932    1.2956 C.ar    1  UNL1        0.0581
     33 N          -5.9528    2.1903    0.5162 N.ar    1  UNL1       -0.2583
     34 C          -7.1340    2.5725    0.0153 C.ar    1  UNL1        0.0279
     35 C          -8.2439    1.8178    0.3070 C.ar    1  UNL1       -0.0433
     36 C          -8.1217    0.6785    1.1114 C.ar    1  UNL1       -0.0557
     37 C          -6.9003    0.2963    1.6204 C.ar    1  UNL1       -0.0279
     38 C          -6.6671   -0.8732    2.4685 C.3     1  UNL1       -0.0380
     39 C          -2.5901   -0.6767    1.6805 C.3     1  UNL1        0.0017
     40 C          -1.6282   -1.2753    0.6685 C.3     1  UNL1       -0.0095
     41 N          -1.9567   -2.4758   -2.7601 N.ar    1  UNL1       -0.2200
     42 C          -2.6555   -2.8544   -3.8692 C.ar    1  UNL1        0.1219
     43 N          -2.8016   -1.9663   -4.8712 N.ar    1  UNL1       -0.2013
     44 H          -3.5412    0.8742   -7.4406 H       1  UNL1        0.0660
     45 H          -4.0501   -0.7525   -6.8556 H       1  UNL1        0.0660
     46 H          -2.4685   -0.5661   -7.7734 H       1  UNL1        0.0660
     47 H          -1.1575    0.6674   -3.6482 H       1  UNL1        0.0705
     48 H           3.0259    1.4621   -1.1484 H       1  UNL1        0.0636
     49 H           5.3822    1.5938   -0.3198 H       1  UNL1        0.0624
     50 H           5.9415   -0.5443    3.5231 H       1  UNL1        0.0624
     51 H           8.2556   -0.4789    4.4717 H       1  UNL1        0.0625
     52 H          12.1943   -0.1671    2.0512 H       1  UNL1        0.1453
     53 H          11.7832    1.5688    2.2863 H       1  UNL1        0.1453
     54 H           9.6940    0.7900    0.6909 H       1  UNL1        0.0625
     55 H           7.3883    0.7253   -0.2575 H       1  UNL1        0.0624
     56 H           4.6022   -1.5718    2.3797 H       1  UNL1        0.0624
     57 H           2.2332   -1.7028    1.5451 H       1  UNL1        0.0636
     58 H          -2.4100    1.1126   -1.5841 H       1  UNL1        0.0303
     59 H          -2.2653    1.5452    0.1344 H       1  UNL1        0.0303
     60 H          -4.5291    0.5676   -0.6900 H       1  UNL1        0.0427
     61 H          -3.6767   -0.9732   -0.9167 H       1  UNL1        0.0427
     62 H          -3.8377    1.6461    1.7287 H       1  UNL1        0.0491
     63 H          -4.4904    0.4929    2.8956 H       1  UNL1        0.0491
     64 H          -7.2225    3.4364   -0.5940 H       1  UNL1        0.0829
     65 H          -9.2442    2.0501   -0.0547 H       1  UNL1        0.0633
     66 H          -8.9882    0.0784    1.3468 H       1  UNL1        0.0621
     67 H          -6.1254   -0.6221    3.4221 H       1  UNL1        0.0278
     68 H          -6.1606   -1.7185    1.9413 H       1  UNL1        0.0278
     69 H          -7.6475   -1.2819    2.8035 H       1  UNL1        0.0278
     70 H          -2.1386    0.2543    2.0634 H       1  UNL1        0.0427
     71 H          -2.6457   -1.3925    2.5272 H       1  UNL1        0.0427
     72 H          -0.7257   -1.5873    1.2303 H       1  UNL1        0.0303
     73 H          -2.0508   -2.1927    0.2111 H       1  UNL1        0.0303
     74 H          -3.0924   -3.8332   -3.9728 H       1  UNL1        0.1049
@<TRIPOS>BOND
     1     1     2    1
     2     2     3    1
     3     3     4   ar
     4     4     5   ar
     5     5     6    1
     6     6     7   am
     7     7     8    2
     8     7     9   am
     9     9    10    1
    10    10    11   ar
    11    11    12   ar
    12    12    13   ar
    13    13    14    1
    14    14    15   ar
    15    15    16   ar
    16    16    17   ar
    17    17    18    1
    18    18    19   am
    19    18    20    2
    20    17    21   ar
    21    21    22   ar
    22    13    23   ar
    23    23    24   ar
    24     9    25   am
    25    25    26    2
    26    25    27    1
    27    27    28    1
    28    28    29    1
    29    29    30    1
    30    30    31    1
    31    31    32    1
    32    32    33   ar
    33    33    34   ar
    34    34    35   ar
    35    35    36   ar
    36    36    37   ar
    37    37    38    1
    38    30    39    1
    39    39    40    1
    40     5    41   ar
    41    41    42   ar
    42    42    43   ar
    43    43     3   ar
    44    27     6    1
    45    37    32   ar
    46    24    10   ar
    47    40    27    1
    48    22    14   ar
    49     1    44    1
    50     1    45    1
    51     1    46    1
    52     4    47    1
    53    11    48    1
    54    12    49    1
    55    15    50    1
    56    16    51    1
    57    19    52    1
    58    19    53    1
    59    21    54    1
    60    22    55    1
    61    23    56    1
    62    24    57    1
    63    28    58    1
    64    28    59    1
    65    29    60    1
    66    29    61    1
    67    31    62    1
    68    31    63    1
    69    34    64    1
    70    35    65    1
    71    36    66    1
    72    38    67    1
    73    38    68    1
    74    38    69    1
    75    39    70    1
    76    39    71    1
    77    40    72    1
    78    40    73    1
    79    42    74    1
