
     RDKit          3D

 41 43  0  0  0  0  0  0  0  0999 V2000
   -1.9491    0.9359    2.4166 O   0  0  0  0  0  0  0  0  0  0  0  0
   -1.8842    0.5591    1.1554 C   0  0  0  0  0  0  0  0  0  0  0  0
   -3.0302   -0.0120    0.6007 N   0  0  0  0  0  0  0  0  0  0  0  0
   -4.2267   -0.1424    1.4655 C   0  0  0  0  0  0  0  0  0  0  0  0
   -5.3088    0.6540    0.7708 C   0  0  0  0  0  0  0  0  0  0  0  0
   -5.5163    0.2353   -0.5343 O   0  0  0  0  0  0  0  0  0  0  0  0
   -4.7218   -0.8301   -0.9007 C   0  0  0  0  0  0  0  0  0  0  0  0
   -3.2234   -0.5092   -0.7170 C   0  0  0  0  0  0  0  0  0  0  0  0
   -0.6258    0.8120    0.5831 N   0  0  0  0  0  0  0  0  0  0  0  0
    0.3977    1.4247    1.4441 C   0  0  0  0  0  0  0  0  0  0  0  0
    1.6999    0.6623    1.3229 C   0  0  0  0  0  0  0  0  0  0  0  0
    2.0510    0.4799   -0.0786 N   0  0  0  0  0  0  0  0  0  0  0  0
    3.3844    0.0830   -0.3641 C   0  0  0  0  0  0  0  0  0  0  0  0
    4.2709   -0.2608    0.6578 C   0  0  0  0  0  0  0  0  0  0  0  0
    5.5556   -0.6335    0.3400 C   0  0  0  0  0  0  0  0  0  0  0  0
    5.9907   -0.6761   -0.9673 C   0  0  0  0  0  0  0  0  0  0  0  0
    7.9501   -1.2437   -1.4685 I   0  0  0  0  0  0  0  0  0  0  0  0
    5.1395   -0.3426   -1.9967 C   0  0  0  0  0  0  0  0  0  0  0  0
    3.8335    0.0356   -1.6611 C   0  0  0  0  0  0  0  0  0  0  0  0
    1.1355    0.6773   -1.1506 C   0  0  0  0  0  0  0  0  0  0  0  0
   -0.3285    0.4966   -0.7831 C   0  0  0  0  0  0  0  0  0  0  0  0
   -4.4848   -1.2169    1.5464 H   0  0  0  0  0  0  0  0  0  0  0  0
   -4.0545    0.3419    2.4493 H   0  0  0  0  0  0  0  0  0  0  0  0
   -6.2342    0.6629    1.3795 H   0  0  0  0  0  0  0  0  0  0  0  0
   -4.9503    1.7058    0.7278 H   0  0  0  0  0  0  0  0  0  0  0  0
   -4.8483   -0.9918   -1.9910 H   0  0  0  0  0  0  0  0  0  0  0  0
   -4.9841   -1.7842   -0.4017 H   0  0  0  0  0  0  0  0  0  0  0  0
   -2.7342   -1.5233   -0.7673 H   0  0  0  0  0  0  0  0  0  0  0  0
   -2.8723    0.0918   -1.5472 H   0  0  0  0  0  0  0  0  0  0  0  0
    0.5125    2.4648    1.0888 H   0  0  0  0  0  0  0  0  0  0  0  0
    0.0643    1.4445    2.4909 H   0  0  0  0  0  0  0  0  0  0  0  0
    1.6604   -0.2842    1.8894 H   0  0  0  0  0  0  0  0  0  0  0  0
    2.4897    1.2915    1.7809 H   0  0  0  0  0  0  0  0  0  0  0  0
    3.8891   -0.2133    1.6604 H   0  0  0  0  0  0  0  0  0  0  0  0
    6.2252   -0.8953    1.1426 H   0  0  0  0  0  0  0  0  0  0  0  0
    5.4572   -0.3675   -3.0396 H   0  0  0  0  0  0  0  0  0  0  0  0
    3.1995    0.2942   -2.5126 H   0  0  0  0  0  0  0  0  0  0  0  0
    1.2983    1.7057   -1.5327 H   0  0  0  0  0  0  0  0  0  0  0  0
    1.2894   -0.0012   -2.0211 H   0  0  0  0  0  0  0  0  0  0  0  0
   -0.6497   -0.5322   -1.0290 H   0  0  0  0  0  0  0  0  0  0  0  0
   -0.8671    1.2208   -1.4489 H   0  0  0  0  0  0  0  0  0  0  0  0
  1  2  2  0
  2  3  1  0
  3  4  1  0
  4  5  1  0
  5  6  1  0
  6  7  1  0
  7  8  1  0
  2  9  1  0
  9 10  1  0
 10 11  1  0
 11 12  1  0
 12 13  1  0
 13 14  2  0
 14 15  1  0
 15 16  2  0
 16 17  1  0
 16 18  1  0
 18 19  2  0
 12 20  1  0
 20 21  1  0
  8  3  1  0
 21  9  1  0
 19 13  1  0
  4 22  1  0
  4 23  1  0
  5 24  1  0
  5 25  1  0
  7 26  1  0
  7 27  1  0
  8 28  1  0
  8 29  1  0
 10 30  1  0
 10 31  1  0
 11 32  1  0
 11 33  1  0
 14 34  1  0
 15 35  1  0
 18 36  1  0
 19 37  1  0
 20 38  1  0
 20 39  1  0
 21 40  1  0
 21 41  1  0
M  END
$$$$
