@<TRIPOS>MOLECULE
*****
 41 43 0 0 0
SMALL
GASTEIGER

@<TRIPOS>ATOM
      1 O          -1.9491    0.9359    2.4166 O.2     1  UNL1       -0.2524
      2 C          -1.8842    0.5591    1.1554 C.2     1  UNL1        0.3050
      3 N          -3.0302   -0.0120    0.6007 N.am    1  UNL1       -0.2811
      4 C          -4.2267   -0.1424    1.4655 C.3     1  UNL1        0.0396
      5 C          -5.3088    0.6540    0.7708 C.3     1  UNL1        0.0635
      6 O          -5.5163    0.2353   -0.5343 O.3     1  UNL1       -0.3767
      7 C          -4.7218   -0.8301   -0.9007 C.3     1  UNL1        0.0635
      8 C          -3.2234   -0.5092   -0.7170 C.3     1  UNL1        0.0396
      9 N          -0.6258    0.8120    0.5831 N.am    1  UNL1       -0.2825
     10 C           0.3977    1.4247    1.4441 C.3     1  UNL1        0.0319
     11 C           1.6999    0.6623    1.3229 C.3     1  UNL1        0.0281
     12 N           2.0510    0.4799   -0.0786 N.pl3   1  UNL1       -0.3269
     13 C           3.3844    0.0830   -0.3641 C.ar    1  UNL1        0.0298
     14 C           4.2709   -0.2608    0.6578 C.ar    1  UNL1       -0.0397
     15 C           5.5556   -0.6335    0.3400 C.ar    1  UNL1       -0.0469
     16 C           5.9907   -0.6761   -0.9673 C.ar    1  UNL1        0.0135
     17 I           7.9501   -1.2437   -1.4685 I       1  UNL1       -0.0438
     18 C           5.1395   -0.3426   -1.9967 C.ar    1  UNL1       -0.0469
     19 C           3.8335    0.0356   -1.6611 C.ar    1  UNL1       -0.0397
     20 C           1.1355    0.6773   -1.1506 C.3     1  UNL1        0.0281
     21 C          -0.3285    0.4966   -0.7831 C.3     1  UNL1        0.0319
     22 H          -4.4848   -1.2169    1.5464 H       1  UNL1        0.0488
     23 H          -4.0545    0.3419    2.4493 H       1  UNL1        0.0488
     24 H          -6.2342    0.6629    1.3795 H       1  UNL1        0.0575
     25 H          -4.9503    1.7058    0.7278 H       1  UNL1        0.0575
     26 H          -4.8483   -0.9918   -1.9910 H       1  UNL1        0.0575
     27 H          -4.9841   -1.7842   -0.4017 H       1  UNL1        0.0575
     28 H          -2.7342   -1.5233   -0.7673 H       1  UNL1        0.0488
     29 H          -2.8723    0.0918   -1.5472 H       1  UNL1        0.0488
     30 H           0.5125    2.4648    1.0888 H       1  UNL1        0.0480
     31 H           0.0643    1.4445    2.4909 H       1  UNL1        0.0480
     32 H           1.6604   -0.2842    1.8894 H       1  UNL1        0.0479
     33 H           2.4897    1.2915    1.7809 H       1  UNL1        0.0479
     34 H           3.8891   -0.2133    1.6604 H       1  UNL1        0.0636
     35 H           6.2252   -0.8953    1.1426 H       1  UNL1        0.0628
     36 H           5.4572   -0.3675   -3.0396 H       1  UNL1        0.0628
     37 H           3.1995    0.2942   -2.5126 H       1  UNL1        0.0636
     38 H           1.2983    1.7057   -1.5327 H       1  UNL1        0.0479
     39 H           1.2894   -0.0012   -2.0211 H       1  UNL1        0.0479
     40 H          -0.6497   -0.5322   -1.0290 H       1  UNL1        0.0480
     41 H          -0.8671    1.2208   -1.4489 H       1  UNL1        0.0480
@<TRIPOS>BOND
     1     1     2    2
     2     2     3   am
     3     3     4    1
     4     4     5    1
     5     5     6    1
     6     6     7    1
     7     7     8    1
     8     2     9   am
     9     9    10    1
    10    10    11    1
    11    11    12    1
    12    12    13    1
    13    13    14   ar
    14    14    15   ar
    15    15    16   ar
    16    16    17    1
    17    16    18   ar
    18    18    19   ar
    19    12    20    1
    20    20    21    1
    21     8     3    1
    22    21     9    1
    23    19    13   ar
    24     4    22    1
    25     4    23    1
    26     5    24    1
    27     5    25    1
    28     7    26    1
    29     7    27    1
    30     8    28    1
    31     8    29    1
    32    10    30    1
    33    10    31    1
    34    11    32    1
    35    11    33    1
    36    14    34    1
    37    15    35    1
    38    18    36    1
    39    19    37    1
    40    20    38    1
    41    20    39    1
    42    21    40    1
    43    21    41    1
