@<TRIPOS>MOLECULE
*****
 38 41 0 0 0
SMALL
GASTEIGER

@<TRIPOS>ATOM
      1 N           8.1571   -2.7180    1.3585 N.1     1  UNL1       -0.1908
      2 C           7.2422   -2.3081    0.6350 C.1     1  UNL1        0.1008
      3 C           6.0606   -1.7511   -0.2920 C.ar    1  UNL1        0.0733
      4 C           6.1193   -2.2387   -1.4598 C.ar    1  UNL1        0.0452
      5 N           5.0671   -1.6776   -2.1947 N.ar    1  UNL1       -0.2583
      6 C           4.2482   -0.8732   -1.7679 C.ar    1  UNL1        0.0699
      7 C           4.1773   -0.2946   -0.3294 C.ar    1  UNL1        0.1477
      8 O           3.2077    0.4872   -0.2154 O.3     1  UNL1       -0.4529
      9 C           1.8526    0.2447   -0.2421 C.ar    1  UNL1        0.1474
     10 C           0.7218    0.8560    0.0702 C.ar    1  UNL1       -0.0021
     11 C          -0.6078    0.4764   -0.0647 C.ar    1  UNL1        0.0847
     12 C          -1.8269    1.0261    0.1810 C.2     1  UNL1        0.2530
     13 O          -2.4752    0.3878    1.2366 O.2     1  UNL1       -0.2697
     14 N          -2.6451    2.0298   -0.3118 N.am    1  UNL1       -0.2663
     15 C          -3.9732    2.2014    0.2044 C.ar    1  UNL1        0.1253
     16 C          -5.0924    1.9659   -0.3442 C.ar    1  UNL1       -0.0188
     17 C          -6.3757    1.9327   -0.1327 C.ar    1  UNL1       -0.0217
     18 C          -6.5832    2.3361    1.2932 C.ar    1  UNL1        0.1415
     19 F          -7.8318    2.3561    1.7308 F       1  UNL1       -0.2039
     20 C          -5.4881    2.6313    2.0368 C.ar    1  UNL1        0.0649
     21 N          -4.1727    2.5885    1.5633 N.ar    1  UNL1       -0.2373
     22 C          -0.6703   -0.8937   -0.7019 C.ar    1  UNL1        0.1680
     23 N          -1.8128   -1.5562   -1.0367 N.ar    1  UNL1       -0.2141
     24 C          -1.2946   -2.7893   -1.6596 C.ar    1  UNL1        0.1390
     25 N          -0.0792   -2.6267   -1.5625 N.ar    1  UNL1       -0.1534
     26 N           0.3827   -1.5060   -0.9985 N.ar    1  UNL1       -0.2161
     27 C           1.6315   -1.0915   -0.8339 C.ar    1  UNL1        0.0737
     28 C           5.2191   -0.8397    0.3746 C.ar    1  UNL1        0.0010
     29 H           6.7560   -2.9134   -1.9721 H       1  UNL1        0.0842
     30 H           3.4292   -0.3574   -2.3586 H       1  UNL1        0.0867
     31 H           0.8375    1.8769    0.5339 H       1  UNL1        0.0663
     32 H          -2.2508    2.6509   -1.0871 H       1  UNL1        0.1566
     33 H          -4.8951    1.6586   -1.5190 H       1  UNL1        0.0653
     34 H          -7.2426    1.7104   -0.6783 H       1  UNL1        0.0648
     35 H          -5.6024    2.9250    3.0940 H       1  UNL1        0.0859
     36 H          -2.0197   -3.5060   -2.0432 H       1  UNL1        0.1066
     37 H           2.4338   -1.7060   -1.0455 H       1  UNL1        0.0868
     38 H           5.3957   -0.6948    1.3885 H       1  UNL1        0.0668
@<TRIPOS>BOND
     1     1     2    3
     2     2     3    1
     3     3     4   ar
     4     4     5   ar
     5     5     6   ar
     6     6     7   ar
     7     7     8    1
     8     8     9    1
     9     9    10   ar
    10    10    11   ar
    11    11    12    1
    12    12    13    2
    13    12    14   am
    14    14    15    1
    15    15    16   ar
    16    16    17   ar
    17    17    18   ar
    18    18    19    1
    19    18    20   ar
    20    20    21   ar
    21    11    22   ar
    22    22    23   ar
    23    23    24   ar
    24    24    25   ar
    25    25    26   ar
    26    26    27   ar
    27     7    28   ar
    28    28     3   ar
    29    27     9   ar
    30    21    15   ar
    31    26    22   ar
    32     4    29    1
    33     6    30    1
    34    10    31    1
    35    14    32    1
    36    16    33    1
    37    17    34    1
    38    20    35    1
    39    24    36    1
    40    27    37    1
    41    28    38    1
