
     RDKit          3D

 38 41  0  0  0  0  0  0  0  0999 V2000
    8.1571   -2.7180    1.3585 N   0  0  0  0  0  0  0  0  0  0  0  0
    7.2422   -2.3081    0.6350 C   0  0  0  0  0  0  0  0  0  0  0  0
    6.0606   -1.7511   -0.2920 C   0  0  0  0  0  0  0  0  0  0  0  0
    6.1193   -2.2387   -1.4598 C   0  0  0  0  0  0  0  0  0  0  0  0
    5.0671   -1.6776   -2.1947 N   0  0  0  0  0  0  0  0  0  0  0  0
    4.2482   -0.8732   -1.7679 C   0  0  0  0  0  0  0  0  0  0  0  0
    4.1773   -0.2946   -0.3294 C   0  0  0  0  0  0  0  0  0  0  0  0
    3.2077    0.4872   -0.2154 O   0  0  0  0  0  0  0  0  0  0  0  0
    1.8526    0.2447   -0.2421 C   0  0  0  0  0  0  0  0  0  0  0  0
    0.7218    0.8560    0.0702 C   0  0  0  0  0  0  0  0  0  0  0  0
   -0.6078    0.4764   -0.0647 C   0  0  0  0  0  0  0  0  0  0  0  0
   -1.8269    1.0261    0.1810 C   0  0  0  0  0  0  0  0  0  0  0  0
   -2.4752    0.3878    1.2366 O   0  0  0  0  0  0  0  0  0  0  0  0
   -2.6451    2.0298   -0.3118 N   0  0  0  0  0  0  0  0  0  0  0  0
   -3.9732    2.2014    0.2044 C   0  0  0  0  0  0  0  0  0  0  0  0
   -5.0924    1.9659   -0.3442 C   0  0  0  0  0  0  0  0  0  0  0  0
   -6.3757    1.9327   -0.1327 C   0  0  0  0  0  0  0  0  0  0  0  0
   -6.5832    2.3361    1.2932 C   0  0  0  0  0  0  0  0  0  0  0  0
   -7.8318    2.3561    1.7308 F   0  0  0  0  0  0  0  0  0  0  0  0
   -5.4881    2.6313    2.0368 C   0  0  0  0  0  0  0  0  0  0  0  0
   -4.1727    2.5885    1.5633 N   0  0  0  0  0  0  0  0  0  0  0  0
   -0.6703   -0.8937   -0.7019 C   0  0  0  0  0  0  0  0  0  0  0  0
   -1.8128   -1.5562   -1.0367 N   0  0  0  0  0  0  0  0  0  0  0  0
   -1.2946   -2.7893   -1.6596 C   0  0  0  0  0  0  0  0  0  0  0  0
   -0.0792   -2.6267   -1.5625 N   0  0  0  0  0  0  0  0  0  0  0  0
    0.3827   -1.5060   -0.9985 N   0  0  0  0  0  0  0  0  0  0  0  0
    1.6315   -1.0915   -0.8339 C   0  0  0  0  0  0  0  0  0  0  0  0
    5.2191   -0.8397    0.3746 C   0  0  0  0  0  0  0  0  0  0  0  0
    6.7560   -2.9134   -1.9721 H   0  0  0  0  0  0  0  0  0  0  0  0
    3.4292   -0.3574   -2.3586 H   0  0  0  0  0  0  0  0  0  0  0  0
    0.8375    1.8769    0.5339 H   0  0  0  0  0  0  0  0  0  0  0  0
   -2.2508    2.6509   -1.0871 H   0  0  0  0  0  0  0  0  0  0  0  0
   -4.8951    1.6586   -1.5190 H   0  0  0  0  0  0  0  0  0  0  0  0
   -7.2426    1.7104   -0.6783 H   0  0  0  0  0  0  0  0  0  0  0  0
   -5.6024    2.9250    3.0940 H   0  0  0  0  0  0  0  0  0  0  0  0
   -2.0197   -3.5060   -2.0432 H   0  0  0  0  0  0  0  0  0  0  0  0
    2.4338   -1.7060   -1.0455 H   0  0  0  0  0  0  0  0  0  0  0  0
    5.3957   -0.6948    1.3885 H   0  0  0  0  0  0  0  0  0  0  0  0
  1  2  3  0
  2  3  1  0
  3  4  2  0
  4  5  1  0
  5  6  2  0
  6  7  1  0
  7  8  1  0
  8  9  1  0
  9 10  1  0
 10 11  2  0
 11 12  1  0
 12 13  2  0
 12 14  1  0
 14 15  1  0
 15 16  2  0
 16 17  1  0
 17 18  2  0
 18 19  1  0
 18 20  1  0
 20 21  2  0
 11 22  1  0
 22 23  2  0
 23 24  1  0
 24 25  2  0
 25 26  1  0
 26 27  1  0
  7 28  2  0
 28  3  1  0
 27  9  2  0
 21 15  1  0
 26 22  1  0
  4 29  1  0
  6 30  1  0
 10 31  1  0
 14 32  1  0
 16 33  1  0
 17 34  1  0
 20 35  1  0
 24 36  1  0
 27 37  1  0
 28 38  1  0
M  END
$$$$
