@<TRIPOS>MOLECULE
*****
 66 69 0 0 0
SMALL
GASTEIGER

@<TRIPOS>ATOM
      1 O           5.4299   -2.4116    0.9063 O.3     1  UNL1       -0.4771
      2 C           6.3691   -1.5573    1.3822 C.2     1  UNL1        0.3376
      3 O           6.8975   -2.6101    1.8738 O.2     1  UNL1       -0.2451
      4 C           6.9705   -0.2257    1.5693 C.ar    1  UNL1        0.0731
      5 C           8.1917   -0.2785    2.1848 C.ar    1  UNL1       -0.0468
      6 C           8.8672    0.9105    2.2649 C.ar    1  UNL1       -0.0575
      7 C           8.3398    2.0652    1.7567 C.ar    1  UNL1       -0.0194
      8 C           7.0996    2.0640    1.1456 C.ar    1  UNL1        0.1285
      9 O           6.6609    3.2938    0.6649 O.3     1  UNL1       -0.5060
     10 C           6.3622    0.8789    1.0373 C.ar    1  UNL1        0.0778
     11 C           5.1142    0.9752    0.3526 C.2     1  UNL1        0.2044
     12 O           5.1534    1.9137   -0.5123 O.2     1  UNL1       -0.2863
     13 C           3.8102    0.4034    0.2749 C.ar    1  UNL1        0.1050
     14 C           3.0668    0.5083   -0.8766 C.ar    1  UNL1        0.1320
     15 O           3.5538    1.1028   -2.0545 O.3     1  UNL1       -0.5059
     16 C           1.7582    0.0210   -0.9465 C.ar    1  UNL1       -0.0053
     17 C           1.1939   -0.5730    0.1426 C.ar    1  UNL1        0.0659
     18 C           1.8744   -0.7122    1.3279 C.ar    1  UNL1       -0.0053
     19 C           3.1562   -0.2119    1.3320 C.ar    1  UNL1        0.1320
     20 O           3.7761   -0.3846    2.5814 O.3     1  UNL1       -0.5059
     21 C          -0.1688   -1.0662    0.0212 C.2     1  UNL1        0.3397
     22 O          -0.7723   -1.6311    0.9801 O.2     1  UNL1       -0.2449
     23 O          -0.8970   -0.9503   -1.1535 O.3     1  UNL1       -0.4560
     24 C          -2.2126   -1.4435   -1.2226 C.3     1  UNL1        0.1228
     25 C          -2.3802   -2.4890   -2.3009 C.3     1  UNL1       -0.0127
     26 C          -2.4468   -1.9009   -3.6806 C.3     1  UNL1       -0.0370
     27 C          -1.5220   -0.7394   -3.9055 C.3     1  UNL1       -0.0039
     28 N          -2.0521    0.5239   -3.5553 N.3     1  UNL1       -0.3141
     29 C          -2.3733    0.7634   -2.2004 C.3     1  UNL1        0.0178
     30 C          -3.1812   -0.3239   -1.5509 C.3     1  UNL1        0.0728
     31 N          -3.9455    0.0923   -0.4193 N.am    1  UNL1       -0.3037
     32 C          -5.3591    0.0581   -0.3978 C.2     1  UNL1        0.2444
     33 O          -5.9440   -0.3614   -1.4330 O.2     1  UNL1       -0.2702
     34 C          -6.1907    0.4702    0.7280 C.ar    1  UNL1        0.0369
     35 C          -7.5559    0.3705    0.5770 C.ar    1  UNL1       -0.0462
     36 C          -8.3762    0.7576    1.6373 C.ar    1  UNL1       -0.0195
     37 C          -7.8646    1.2289    2.8109 C.ar    1  UNL1        0.1169
     38 O          -8.7018    1.6067    3.8483 O.3     1  UNL1       -0.5068
     39 C          -6.4895    1.3286    2.9610 C.ar    1  UNL1       -0.0195
     40 C          -5.6555    0.9442    1.9070 C.ar    1  UNL1       -0.0462
     41 H           4.6088   -2.6714    1.4123 H       1  UNL1        0.2954
     42 H           8.6405   -1.1680    2.5969 H       1  UNL1        0.0626
     43 H           9.8238    0.9542    2.7298 H       1  UNL1        0.0619
     44 H           8.8994    2.9638    1.8388 H       1  UNL1        0.0654
     45 H           5.7739    3.6653    0.9263 H       1  UNL1        0.2922
     46 H           2.9821    1.6848   -2.6373 H       1  UNL1        0.2922
     47 H           1.1995    0.1149   -1.8577 H       1  UNL1        0.0662
     48 H           1.3837   -1.1830    2.1422 H       1  UNL1        0.0662
     49 H           3.6850   -1.2392    3.0900 H       1  UNL1        0.2922
     50 H          -2.5236   -1.8929   -0.2643 H       1  UNL1        0.0753
     51 H          -1.5989   -3.2643   -2.1821 H       1  UNL1        0.0302
     52 H          -3.3553   -2.9831   -2.1054 H       1  UNL1        0.0302
     53 H          -2.1107   -2.7314   -4.3694 H       1  UNL1        0.0279
     54 H          -3.4771   -1.6725   -4.0260 H       1  UNL1        0.0279
     55 H          -1.3402   -0.7120   -5.0160 H       1  UNL1        0.0424
     56 H          -0.5458   -0.9481   -3.4641 H       1  UNL1        0.0424
     57 H          -1.8178    1.3319   -4.1268 H       1  UNL1        0.1220
     58 H          -2.9906    1.7078   -2.1773 H       1  UNL1        0.0443
     59 H          -1.4515    0.9288   -1.6144 H       1  UNL1        0.0443
     60 H          -3.9427   -0.6448   -2.3210 H       1  UNL1        0.0547
     61 H          -3.4699    0.4395    0.4389 H       1  UNL1        0.1495
     62 H          -8.0590    0.0036   -0.3285 H       1  UNL1        0.0626
     63 H          -9.4530    0.6936    1.5555 H       1  UNL1        0.0654
     64 H          -9.7002    1.4794    3.7589 H       1  UNL1        0.2921
     65 H          -6.1238    1.7064    3.9054 H       1  UNL1        0.0654
     66 H          -4.5933    1.0265    2.0367 H       1  UNL1        0.0626
@<TRIPOS>BOND
     1     1     2    1
     2     2     3    2
     3     2     4    1
     4     4     5   ar
     5     5     6   ar
     6     6     7   ar
     7     7     8   ar
     8     8     9    1
     9     8    10   ar
    10    10    11    1
    11    11    12    2
    12    11    13    1
    13    13    14   ar
    14    14    15    1
    15    14    16   ar
    16    16    17   ar
    17    17    18   ar
    18    18    19   ar
    19    19    20    1
    20    17    21    1
    21    21    22    2
    22    21    23    1
    23    23    24    1
    24    24    25    1
    25    25    26    1
    26    26    27    1
    27    27    28    1
    28    28    29    1
    29    29    30    1
    30    30    31    1
    31    31    32   am
    32    32    33    2
    33    32    34    1
    34    34    35   ar
    35    35    36   ar
    36    36    37   ar
    37    37    38    1
    38    37    39   ar
    39    39    40   ar
    40    10     4   ar
    41    19    13   ar
    42    30    24    1
    43    40    34   ar
    44     1    41    1
    45     5    42    1
    46     6    43    1
    47     7    44    1
    48     9    45    1
    49    15    46    1
    50    16    47    1
    51    18    48    1
    52    20    49    1
    53    24    50    1
    54    25    51    1
    55    25    52    1
    56    26    53    1
    57    26    54    1
    58    27    55    1
    59    27    56    1
    60    28    57    1
    61    29    58    1
    62    29    59    1
    63    30    60    1
    64    31    61    1
    65    35    62    1
    66    36    63    1
    67    38    64    1
    68    39    65    1
    69    40    66    1
