
     RDKit          3D

 66 69  0  0  0  0  0  0  0  0999 V2000
    5.4299   -2.4116    0.9063 O   0  0  0  0  0  0  0  0  0  0  0  0
    6.3691   -1.5573    1.3822 C   0  0  0  0  0  0  0  0  0  0  0  0
    6.8975   -2.6101    1.8738 O   0  0  0  0  0  0  0  0  0  0  0  0
    6.9705   -0.2257    1.5693 C   0  0  0  0  0  0  0  0  0  0  0  0
    8.1917   -0.2785    2.1848 C   0  0  0  0  0  0  0  0  0  0  0  0
    8.8672    0.9105    2.2649 C   0  0  0  0  0  0  0  0  0  0  0  0
    8.3398    2.0652    1.7567 C   0  0  0  0  0  0  0  0  0  0  0  0
    7.0996    2.0640    1.1456 C   0  0  0  0  0  0  0  0  0  0  0  0
    6.6609    3.2938    0.6649 O   0  0  0  0  0  0  0  0  0  0  0  0
    6.3622    0.8789    1.0373 C   0  0  0  0  0  0  0  0  0  0  0  0
    5.1142    0.9752    0.3526 C   0  0  0  0  0  0  0  0  0  0  0  0
    5.1534    1.9137   -0.5123 O   0  0  0  0  0  0  0  0  0  0  0  0
    3.8102    0.4034    0.2749 C   0  0  0  0  0  0  0  0  0  0  0  0
    3.0668    0.5083   -0.8766 C   0  0  0  0  0  0  0  0  0  0  0  0
    3.5538    1.1028   -2.0545 O   0  0  0  0  0  0  0  0  0  0  0  0
    1.7582    0.0210   -0.9465 C   0  0  0  0  0  0  0  0  0  0  0  0
    1.1939   -0.5730    0.1426 C   0  0  0  0  0  0  0  0  0  0  0  0
    1.8744   -0.7122    1.3279 C   0  0  0  0  0  0  0  0  0  0  0  0
    3.1562   -0.2119    1.3320 C   0  0  0  0  0  0  0  0  0  0  0  0
    3.7761   -0.3846    2.5814 O   0  0  0  0  0  0  0  0  0  0  0  0
   -0.1688   -1.0662    0.0212 C   0  0  0  0  0  0  0  0  0  0  0  0
   -0.7723   -1.6311    0.9801 O   0  0  0  0  0  0  0  0  0  0  0  0
   -0.8970   -0.9503   -1.1535 O   0  0  0  0  0  0  0  0  0  0  0  0
   -2.2126   -1.4435   -1.2226 C   0  0  2  0  0  0  0  0  0  0  0  0
   -2.3802   -2.4890   -2.3009 C   0  0  0  0  0  0  0  0  0  0  0  0
   -2.4468   -1.9009   -3.6806 C   0  0  0  0  0  0  0  0  0  0  0  0
   -1.5220   -0.7394   -3.9055 C   0  0  0  0  0  0  0  0  0  0  0  0
   -2.0521    0.5239   -3.5553 N   0  0  0  0  0  0  0  0  0  0  0  0
   -2.3733    0.7634   -2.2004 C   0  0  0  0  0  0  0  0  0  0  0  0
   -3.1812   -0.3239   -1.5509 C   0  0  2  0  0  0  0  0  0  0  0  0
   -3.9455    0.0923   -0.4193 N   0  0  0  0  0  0  0  0  0  0  0  0
   -5.3591    0.0581   -0.3978 C   0  0  0  0  0  0  0  0  0  0  0  0
   -5.9440   -0.3614   -1.4330 O   0  0  0  0  0  0  0  0  0  0  0  0
   -6.1907    0.4702    0.7280 C   0  0  0  0  0  0  0  0  0  0  0  0
   -7.5559    0.3705    0.5770 C   0  0  0  0  0  0  0  0  0  0  0  0
   -8.3762    0.7576    1.6373 C   0  0  0  0  0  0  0  0  0  0  0  0
   -7.8646    1.2289    2.8109 C   0  0  0  0  0  0  0  0  0  0  0  0
   -8.7018    1.6067    3.8483 O   0  0  0  0  0  0  0  0  0  0  0  0
   -6.4895    1.3286    2.9610 C   0  0  0  0  0  0  0  0  0  0  0  0
   -5.6555    0.9442    1.9070 C   0  0  0  0  0  0  0  0  0  0  0  0
    4.6088   -2.6714    1.4123 H   0  0  0  0  0  0  0  0  0  0  0  0
    8.6405   -1.1680    2.5969 H   0  0  0  0  0  0  0  0  0  0  0  0
    9.8238    0.9542    2.7298 H   0  0  0  0  0  0  0  0  0  0  0  0
    8.8994    2.9638    1.8388 H   0  0  0  0  0  0  0  0  0  0  0  0
    5.7739    3.6653    0.9263 H   0  0  0  0  0  0  0  0  0  0  0  0
    2.9821    1.6848   -2.6373 H   0  0  0  0  0  0  0  0  0  0  0  0
    1.1995    0.1149   -1.8577 H   0  0  0  0  0  0  0  0  0  0  0  0
    1.3837   -1.1830    2.1422 H   0  0  0  0  0  0  0  0  0  0  0  0
    3.6850   -1.2392    3.0900 H   0  0  0  0  0  0  0  0  0  0  0  0
   -2.5236   -1.8929   -0.2643 H   0  0  0  0  0  0  0  0  0  0  0  0
   -1.5989   -3.2643   -2.1821 H   0  0  0  0  0  0  0  0  0  0  0  0
   -3.3553   -2.9831   -2.1054 H   0  0  0  0  0  0  0  0  0  0  0  0
   -2.1107   -2.7314   -4.3694 H   0  0  0  0  0  0  0  0  0  0  0  0
   -3.4771   -1.6725   -4.0260 H   0  0  0  0  0  0  0  0  0  0  0  0
   -1.3402   -0.7120   -5.0160 H   0  0  0  0  0  0  0  0  0  0  0  0
   -0.5458   -0.9481   -3.4641 H   0  0  0  0  0  0  0  0  0  0  0  0
   -1.8178    1.3319   -4.1268 H   0  0  0  0  0  0  0  0  0  0  0  0
   -2.9906    1.7078   -2.1773 H   0  0  0  0  0  0  0  0  0  0  0  0
   -1.4515    0.9288   -1.6144 H   0  0  0  0  0  0  0  0  0  0  0  0
   -3.9427   -0.6448   -2.3210 H   0  0  0  0  0  0  0  0  0  0  0  0
   -3.4699    0.4395    0.4389 H   0  0  0  0  0  0  0  0  0  0  0  0
   -8.0590    0.0036   -0.3285 H   0  0  0  0  0  0  0  0  0  0  0  0
   -9.4530    0.6936    1.5555 H   0  0  0  0  0  0  0  0  0  0  0  0
   -9.7002    1.4794    3.7589 H   0  0  0  0  0  0  0  0  0  0  0  0
   -6.1238    1.7064    3.9054 H   0  0  0  0  0  0  0  0  0  0  0  0
   -4.5933    1.0265    2.0367 H   0  0  0  0  0  0  0  0  0  0  0  0
  1  2  1  0
  2  3  2  0
  2  4  1  0
  4  5  2  0
  5  6  1  0
  6  7  2  0
  7  8  1  0
  8  9  1  0
  8 10  2  0
 10 11  1  0
 11 12  2  0
 11 13  1  0
 13 14  2  0
 14 15  1  0
 14 16  1  0
 16 17  2  0
 17 18  1  0
 18 19  2  0
 19 20  1  0
 17 21  1  0
 21 22  2  0
 21 23  1  0
 23 24  1  0
 24 25  1  0
 25 26  1  0
 26 27  1  0
 27 28  1  0
 28 29  1  0
 29 30  1  0
 30 31  1  0
 31 32  1  0
 32 33  2  0
 32 34  1  0
 34 35  2  0
 35 36  1  0
 36 37  2  0
 37 38  1  0
 37 39  1  0
 39 40  2  0
 10  4  1  0
 19 13  1  0
 30 24  1  0
 40 34  1  0
  1 41  1  0
  5 42  1  0
  6 43  1  0
  7 44  1  0
  9 45  1  0
 15 46  1  0
 16 47  1  0
 18 48  1  0
 20 49  1  0
 24 50  1  1
 25 51  1  0
 25 52  1  0
 26 53  1  0
 26 54  1  0
 27 55  1  0
 27 56  1  0
 28 57  1  0
 29 58  1  0
 29 59  1  0
 30 60  1  6
 31 61  1  0
 35 62  1  0
 36 63  1  0
 38 64  1  0
 39 65  1  0
 40 66  1  0
M  END
$$$$
