
     RDKit          3D

 73 77  0  0  0  0  0  0  0  0999 V2000
    4.4798    3.3322   -0.7148 C   0  0  0  0  0  0  0  0  0  0  0  0
    4.7008    2.6710    0.6312 C   0  0  0  0  0  0  0  0  0  0  0  0
    5.5208    1.4692    0.4801 N   0  0  0  0  0  0  0  0  0  0  0  0
    5.0019    0.2301    0.2561 C   0  0  0  0  0  0  0  0  0  0  0  0
    6.0529   -0.6543    0.1647 C   0  0  0  0  0  0  0  0  0  0  0  0
    6.0491   -2.0529   -0.0586 N   0  0  0  0  0  0  0  0  0  0  0  0
    4.8562   -2.8002   -0.2385 C   0  0  0  0  0  0  0  0  0  0  0  0
    4.9964   -4.1340   -0.4406 N   0  0  0  0  0  0  0  0  0  0  0  0
    3.9003   -4.8793   -0.6172 C   0  0  0  0  0  0  0  0  0  0  0  0
    2.6460   -4.3077   -0.5952 C   0  0  0  0  0  0  0  0  0  0  0  0
    1.4648   -5.1998   -0.8009 C   0  0  0  0  0  0  0  0  0  0  0  0
    2.5078   -2.9539   -0.3897 C   0  0  0  0  0  0  0  0  0  0  0  0
    1.1734   -2.3773   -0.3735 C   0  0  0  0  0  0  0  0  0  0  0  0
    0.2019   -2.5253   -1.3583 C   0  0  0  0  0  0  0  0  0  0  0  0
   -0.9187   -1.8598   -1.0253 N   0  0  0  0  0  0  0  0  0  0  0  0
   -0.7021   -1.2759    0.1619 C   0  0  0  0  0  0  0  0  0  0  0  0
   -1.5470   -0.4876    0.9145 C   0  0  0  0  0  0  0  0  0  0  0  0
   -2.8657   -0.2000    0.4396 N   0  0  0  0  0  0  0  0  0  0  0  0
   -3.0321    0.9515   -0.3737 C   0  0  0  0  0  0  0  0  0  0  0  0
   -2.0363    1.6979   -0.6717 O   0  0  0  0  0  0  0  0  0  0  0  0
   -4.3268    1.3629   -0.9246 C   0  0  1  0  0  0  0  0  0  0  0  0
   -4.3837    0.9950   -2.3918 C   0  0  0  0  0  0  0  0  0  0  0  0
   -5.4077    0.6863   -0.2387 N   0  0  0  0  0  0  0  0  0  0  0  0
   -6.6628    0.8283   -0.9116 C   0  0  0  0  0  0  0  0  0  0  0  0
   -7.7321    1.5261   -0.1660 C   0  0  0  0  0  0  0  0  0  0  0  0
   -7.2705    2.5775    0.6864 N   0  0  0  0  0  0  0  0  0  0  0  0
   -6.8859    3.7755    0.0098 C   0  0  0  0  0  0  0  0  0  0  0  0
   -6.3358    2.0641    1.6244 C   0  0  0  0  0  0  0  0  0  0  0  0
   -5.4433    0.9868    1.1608 C   0  0  0  0  0  0  0  0  0  0  0  0
   -1.0670   -0.0086    2.1122 C   0  0  0  0  0  0  0  0  0  0  0  0
    0.2002   -0.2858    2.5709 C   0  0  0  0  0  0  0  0  0  0  0  0
    1.0316   -1.0881    1.7836 C   0  0  0  0  0  0  0  0  0  0  0  0
    0.5877   -1.5808    0.5885 C   0  0  0  0  0  0  0  0  0  0  0  0
    3.6318   -2.2522   -0.2186 N   0  0  0  0  0  0  0  0  0  0  0  0
    7.2186    0.1027    0.3418 C   0  0  0  0  0  0  0  0  0  0  0  0
    8.5008   -0.4116    0.3204 O   0  0  0  0  0  0  0  0  0  0  0  0
    9.6593    0.3420    0.4965 C   0  0  0  0  0  0  0  0  0  0  0  0
    6.8231    1.3661    0.5258 N   0  0  0  0  0  0  0  0  0  0  0  0
    4.0144    4.3119   -0.5175 H   0  0  0  0  0  0  0  0  0  0  0  0
    5.4709    3.5105   -1.1821 H   0  0  0  0  0  0  0  0  0  0  0  0
    3.8081    2.7402   -1.3513 H   0  0  0  0  0  0  0  0  0  0  0  0
    5.1626    3.3779    1.3216 H   0  0  0  0  0  0  0  0  0  0  0  0
    3.7074    2.3931    1.0469 H   0  0  0  0  0  0  0  0  0  0  0  0
    3.9351   -0.0045    0.1671 H   0  0  0  0  0  0  0  0  0  0  0  0
    6.9725   -2.5521   -0.0913 H   0  0  0  0  0  0  0  0  0  0  0  0
    4.0067   -5.9709   -0.7827 H   0  0  0  0  0  0  0  0  0  0  0  0
    1.3481   -5.3176   -1.8975 H   0  0  0  0  0  0  0  0  0  0  0  0
    0.5686   -4.7752   -0.3134 H   0  0  0  0  0  0  0  0  0  0  0  0
    1.7336   -6.1952   -0.3973 H   0  0  0  0  0  0  0  0  0  0  0  0
    0.3121   -3.0883   -2.2657 H   0  0  0  0  0  0  0  0  0  0  0  0
   -1.8131   -1.8066   -1.5992 H   0  0  0  0  0  0  0  0  0  0  0  0
   -3.6793   -0.8281    0.6805 H   0  0  0  0  0  0  0  0  0  0  0  0
   -4.4154    2.4659   -0.8313 H   0  0  0  0  0  0  0  0  0  0  0  0
   -3.3498    0.8615   -2.8121 H   0  0  0  0  0  0  0  0  0  0  0  0
   -5.0027    0.0993   -2.5743 H   0  0  0  0  0  0  0  0  0  0  0  0
   -4.8438    1.8204   -3.0073 H   0  0  0  0  0  0  0  0  0  0  0  0
   -6.9973   -0.2075   -1.2107 H   0  0  0  0  0  0  0  0  0  0  0  0
   -6.4818    1.3649   -1.8691 H   0  0  0  0  0  0  0  0  0  0  0  0
   -8.5137    1.9601   -0.8268 H   0  0  0  0  0  0  0  0  0  0  0  0
   -8.2816    0.7836    0.4810 H   0  0  0  0  0  0  0  0  0  0  0  0
   -6.9662    3.6727   -1.1101 H   0  0  0  0  0  0  0  0  0  0  0  0
   -5.8973    4.1194    0.3293 H   0  0  0  0  0  0  0  0  0  0  0  0
   -7.6178    4.5738    0.2971 H   0  0  0  0  0  0  0  0  0  0  0  0
   -6.9129    1.7394    2.5297 H   0  0  0  0  0  0  0  0  0  0  0  0
   -5.7291    2.9492    1.9982 H   0  0  0  0  0  0  0  0  0  0  0  0
   -5.6714    0.0562    1.7093 H   0  0  0  0  0  0  0  0  0  0  0  0
   -4.3862    1.2615    1.4667 H   0  0  0  0  0  0  0  0  0  0  0  0
   -1.7173    0.6226    2.7351 H   0  0  0  0  0  0  0  0  0  0  0  0
    0.5779    0.0945    3.5196 H   0  0  0  0  0  0  0  0  0  0  0  0
    2.0214   -1.3273    2.1020 H   0  0  0  0  0  0  0  0  0  0  0  0
   10.5177   -0.2566    0.8773 H   0  0  0  0  0  0  0  0  0  0  0  0
    9.9696    0.7010   -0.5254 H   0  0  0  0  0  0  0  0  0  0  0  0
    9.5624    1.2201    1.1438 H   0  0  0  0  0  0  0  0  0  0  0  0
  1  2  1  0
  2  3  1  0
  3  4  1  0
  4  5  2  0
  5  6  1  0
  6  7  1  0
  7  8  2  0
  8  9  1  0
  9 10  2  0
 10 11  1  0
 10 12  1  0
 12 13  1  0
 13 14  2  0
 14 15  1  0
 15 16  1  0
 16 17  2  0
 17 18  1  0
 18 19  1  0
 19 20  2  0
 19 21  1  0
 21 22  1  0
 21 23  1  0
 23 24  1  0
 24 25  1  0
 25 26  1  0
 26 27  1  0
 26 28  1  0
 28 29  1  0
 17 30  1  0
 30 31  2  0
 31 32  1  0
 32 33  2  0
 12 34  2  0
  5 35  1  0
 35 36  1  0
 36 37  1  0
 35 38  2  0
 38  3  1  0
 34  7  1  0
 33 13  1  0
 33 16  1  0
 29 23  1  0
  1 39  1  0
  1 40  1  0
  1 41  1  0
  2 42  1  0
  2 43  1  0
  4 44  1  0
  6 45  1  0
  9 46  1  0
 11 47  1  0
 11 48  1  0
 11 49  1  0
 14 50  1  0
 15 51  1  0
 18 52  1  0
 21 53  1  6
 22 54  1  0
 22 55  1  0
 22 56  1  0
 24 57  1  0
 24 58  1  0
 25 59  1  0
 25 60  1  0
 27 61  1  0
 27 62  1  0
 27 63  1  0
 28 64  1  0
 28 65  1  0
 29 66  1  0
 29 67  1  0
 30 68  1  0
 31 69  1  0
 32 70  1  0
 37 71  1  0
 37 72  1  0
 37 73  1  0
M  END
$$$$
