@<TRIPOS>MOLECULE
*****
 73 77 0 0 0
SMALL
GASTEIGER

@<TRIPOS>ATOM
      1 C           4.4798    3.3322   -0.7148 C.3     1  UNL1       -0.0455
      2 C           4.7008    2.6710    0.6312 C.3     1  UNL1        0.0389
      3 N           5.5208    1.4692    0.4801 N.ar    1  UNL1       -0.2664
      4 C           5.0019    0.2301    0.2561 C.ar    1  UNL1        0.0506
      5 C           6.0529   -0.6543    0.1647 C.ar    1  UNL1        0.1152
      6 N           6.0491   -2.0529   -0.0586 N.pl3   1  UNL1       -0.2782
      7 C           4.8562   -2.8002   -0.2385 C.ar    1  UNL1        0.2202
      8 N           4.9964   -4.1340   -0.4406 N.ar    1  UNL1       -0.2224
      9 C           3.9003   -4.8793   -0.6172 C.ar    1  UNL1        0.0361
     10 C           2.6460   -4.3077   -0.5952 C.ar    1  UNL1       -0.0062
     11 C           1.4648   -5.1998   -0.8009 C.3     1  UNL1       -0.0362
     12 C           2.5078   -2.9539   -0.3897 C.ar    1  UNL1        0.0809
     13 C           1.1734   -2.3773   -0.3735 C.ar    1  UNL1        0.0258
     14 C           0.2019   -2.5253   -1.3583 C.ar    1  UNL1        0.0120
     15 N          -0.9187   -1.8598   -1.0253 N.ar    1  UNL1       -0.3586
     16 C          -0.7021   -1.2759    0.1619 C.ar    1  UNL1        0.0686
     17 C          -1.5470   -0.4876    0.9145 C.ar    1  UNL1        0.0576
     18 N          -2.8657   -0.2000    0.4396 N.am    1  UNL1       -0.2825
     19 C          -3.0321    0.9515   -0.3737 C.2     1  UNL1        0.2342
     20 O          -2.0363    1.6979   -0.6717 O.2     1  UNL1       -0.2738
     21 C          -4.3268    1.3629   -0.9246 C.3     1  UNL1        0.0848
     22 C          -4.3837    0.9950   -2.3918 C.3     1  UNL1       -0.0409
     23 N          -5.4077    0.6863   -0.2387 N.3     1  UNL1       -0.2893
     24 C          -6.6628    0.8283   -0.9116 C.3     1  UNL1        0.0124
     25 C          -7.7321    1.5261   -0.1660 C.3     1  UNL1        0.0114
     26 N          -7.2705    2.5775    0.6864 N.3     1  UNL1       -0.3029
     27 C          -6.8859    3.7755    0.0098 C.3     1  UNL1       -0.0127
     28 C          -6.3358    2.0641    1.6244 C.3     1  UNL1        0.0114
     29 C          -5.4433    0.9868    1.1608 C.3     1  UNL1        0.0124
     30 C          -1.0670   -0.0086    2.1122 C.ar    1  UNL1       -0.0384
     31 C           0.2002   -0.2858    2.5709 C.ar    1  UNL1       -0.0593
     32 C           1.0316   -1.0881    1.7836 C.ar    1  UNL1       -0.0518
     33 C           0.5877   -1.5808    0.5885 C.ar    1  UNL1        0.0107
     34 N           3.6318   -2.2522   -0.2186 N.ar    1  UNL1       -0.2139
     35 C           7.2186    0.1027    0.3418 C.ar    1  UNL1        0.2552
     36 O           8.5008   -0.4116    0.3204 O.3     1  UNL1       -0.4774
     37 C           9.6593    0.3420    0.4965 C.3     1  UNL1        0.0805
     38 N           6.8231    1.3661    0.5258 N.ar    1  UNL1       -0.1315
     39 H           4.0144    4.3119   -0.5175 H       1  UNL1        0.0247
     40 H           5.4709    3.5105   -1.1821 H       1  UNL1        0.0247
     41 H           3.8081    2.7402   -1.3513 H       1  UNL1        0.0247
     42 H           5.1626    3.3779    1.3216 H       1  UNL1        0.0506
     43 H           3.7074    2.3931    1.0469 H       1  UNL1        0.0506
     44 H           3.9351   -0.0045    0.1671 H       1  UNL1        0.0846
     45 H           6.9725   -2.5521   -0.0913 H       1  UNL1        0.1552
     46 H           4.0067   -5.9709   -0.7827 H       1  UNL1        0.0834
     47 H           1.3481   -5.3176   -1.8975 H       1  UNL1        0.0279
     48 H           0.5686   -4.7752   -0.3134 H       1  UNL1        0.0279
     49 H           1.7336   -6.1952   -0.3973 H       1  UNL1        0.0279
     50 H           0.3121   -3.0883   -2.2657 H       1  UNL1        0.0814
     51 H          -1.8131   -1.8066   -1.5992 H       1  UNL1        0.1654
     52 H          -3.6793   -0.8281    0.6805 H       1  UNL1        0.1549
     53 H          -4.4154    2.4659   -0.8313 H       1  UNL1        0.0556
     54 H          -3.3498    0.8615   -2.8121 H       1  UNL1        0.0249
     55 H          -5.0027    0.0993   -2.5743 H       1  UNL1        0.0249
     56 H          -4.8438    1.8204   -3.0073 H       1  UNL1        0.0249
     57 H          -6.9973   -0.2075   -1.2107 H       1  UNL1        0.0439
     58 H          -6.4818    1.3649   -1.8691 H       1  UNL1        0.0439
     59 H          -8.5137    1.9601   -0.8268 H       1  UNL1        0.0439
     60 H          -8.2816    0.7836    0.4810 H       1  UNL1        0.0439
     61 H          -6.9662    3.6727   -1.1101 H       1  UNL1        0.0391
     62 H          -5.8973    4.1194    0.3293 H       1  UNL1        0.0391
     63 H          -7.6178    4.5738    0.2971 H       1  UNL1        0.0391
     64 H          -6.9129    1.7394    2.5297 H       1  UNL1        0.0439
     65 H          -5.7291    2.9492    1.9982 H       1  UNL1        0.0439
     66 H          -5.6714    0.0562    1.7093 H       1  UNL1        0.0439
     67 H          -4.3862    1.2615    1.4667 H       1  UNL1        0.0439
     68 H          -1.7173    0.6226    2.7351 H       1  UNL1        0.0637
     69 H           0.5779    0.0945    3.5196 H       1  UNL1        0.0618
     70 H           2.0214   -1.3273    2.1020 H       1  UNL1        0.0624
     71 H          10.5177   -0.2566    0.8773 H       1  UNL1        0.0660
     72 H           9.9696    0.7010   -0.5254 H       1  UNL1        0.0660
     73 H           9.5624    1.2201    1.1438 H       1  UNL1        0.0660
@<TRIPOS>BOND
     1     1     2    1
     2     2     3    1
     3     3     4   ar
     4     4     5   ar
     5     5     6    1
     6     6     7    1
     7     7     8   ar
     8     8     9   ar
     9     9    10   ar
    10    10    11    1
    11    10    12   ar
    12    12    13    1
    13    13    14   ar
    14    14    15   ar
    15    15    16   ar
    16    16    17   ar
    17    17    18    1
    18    18    19   am
    19    19    20    2
    20    19    21    1
    21    21    22    1
    22    21    23    1
    23    23    24    1
    24    24    25    1
    25    25    26    1
    26    26    27    1
    27    26    28    1
    28    28    29    1
    29    17    30   ar
    30    30    31   ar
    31    31    32   ar
    32    32    33   ar
    33    12    34   ar
    34     5    35   ar
    35    35    36    1
    36    36    37    1
    37    35    38   ar
    38    38     3   ar
    39    34     7   ar
    40    33    13   ar
    41    33    16   ar
    42    29    23    1
    43     1    39    1
    44     1    40    1
    45     1    41    1
    46     2    42    1
    47     2    43    1
    48     4    44    1
    49     6    45    1
    50     9    46    1
    51    11    47    1
    52    11    48    1
    53    11    49    1
    54    14    50    1
    55    15    51    1
    56    18    52    1
    57    21    53    1
    58    22    54    1
    59    22    55    1
    60    22    56    1
    61    24    57    1
    62    24    58    1
    63    25    59    1
    64    25    60    1
    65    27    61    1
    66    27    62    1
    67    27    63    1
    68    28    64    1
    69    28    65    1
    70    29    66    1
    71    29    67    1
    72    30    68    1
    73    31    69    1
    74    32    70    1
    75    37    71    1
    76    37    72    1
    77    37    73    1
