@<TRIPOS>MOLECULE
*****
 35 36 0 0 0
SMALL
GASTEIGER

@<TRIPOS>ATOM
      1 C          -4.4801    2.0042   -0.2966 C.3     1  UNL1       -0.0394
      2 C          -3.3040    1.3192    0.3169 C.ar    1  UNL1       -0.0458
      3 C          -3.0567    1.3833    1.6804 C.ar    1  UNL1       -0.0585
      4 C          -1.9590    0.7352    2.2169 C.ar    1  UNL1       -0.0597
      5 C          -1.1096    0.0190    1.3649 C.ar    1  UNL1       -0.0402
      6 C          -1.3382   -0.0580    0.0062 C.ar    1  UNL1        0.0356
      7 N          -0.4795   -0.7843   -0.8626 N.pl3   1  UNL1       -0.2991
      8 C           0.6738   -1.4614   -0.4078 C.ar    1  UNL1        0.1287
      9 C           0.5178   -2.4731    0.4976 C.ar    1  UNL1        0.0154
     10 C           1.6250   -3.1493    0.9452 C.ar    1  UNL1        0.1354
     11 CL          1.4903   -4.4593    2.1110 Cl      1  UNL1       -0.0618
     12 N           2.8237   -2.7707    0.4576 N.ar    1  UNL1       -0.2101
     13 C           2.9753   -1.7751   -0.4332 C.ar    1  UNL1        0.1918
     14 S           4.6152   -1.3990   -0.9798 S.3     1  UNL1       -0.0746
     15 C           5.3868   -0.1539    0.0971 C.3     1  UNL1        0.0983
     16 C           4.6396    1.1104   -0.0739 C.2     1  UNL1        0.3151
     17 O           5.0064    1.9039   -0.9492 O.2     1  UNL1       -0.2501
     18 O           3.5612    1.4020    0.7206 O.3     1  UNL1       -0.4800
     19 N           1.8719   -1.1275   -0.8559 N.ar    1  UNL1       -0.2067
     20 C          -2.4501    0.6063   -0.4948 C.ar    1  UNL1       -0.0264
     21 C          -2.6792    0.5184   -1.9673 C.3     1  UNL1       -0.0377
     22 H          -4.0593    2.6968   -1.0810 H       1  UNL1        0.0278
     23 H          -5.1218    1.2689   -0.7977 H       1  UNL1        0.0278
     24 H          -5.0097    2.6377    0.4233 H       1  UNL1        0.0278
     25 H          -3.7435    1.9494    2.2940 H       1  UNL1        0.0620
     26 H          -1.7471    0.7729    3.2858 H       1  UNL1        0.0618
     27 H          -0.2629   -0.4753    1.8181 H       1  UNL1        0.0636
     28 H          -0.7064   -0.8229   -1.8892 H       1  UNL1        0.1536
     29 H          -0.4530   -2.7296    0.8512 H       1  UNL1        0.0682
     30 H           6.4496   -0.0273   -0.1212 H       1  UNL1        0.0495
     31 H           5.3214   -0.5465    1.1512 H       1  UNL1        0.0495
     32 H           3.2813    2.3592    0.9186 H       1  UNL1        0.2951
     33 H          -2.7085   -0.5376   -2.3214 H       1  UNL1        0.0278
     34 H          -1.9161    1.0812   -2.5457 H       1  UNL1        0.0278
     35 H          -3.6547    0.9824   -2.1781 H       1  UNL1        0.0278
@<TRIPOS>BOND
     1     1     2    1
     2     2     3   ar
     3     3     4   ar
     4     4     5   ar
     5     5     6   ar
     6     6     7    1
     7     7     8    1
     8     8     9   ar
     9     9    10   ar
    10    10    11    1
    11    10    12   ar
    12    12    13   ar
    13    13    14    1
    14    14    15    1
    15    15    16    1
    16    16    17    2
    17    16    18    1
    18    13    19   ar
    19     6    20   ar
    20    20    21    1
    21    20     2   ar
    22    19     8   ar
    23     1    22    1
    24     1    23    1
    25     1    24    1
    26     3    25    1
    27     4    26    1
    28     5    27    1
    29     7    28    1
    30     9    29    1
    31    15    30    1
    32    15    31    1
    33    18    32    1
    34    21    33    1
    35    21    34    1
    36    21    35    1
