
     RDKit          3D

 35 36  0  0  0  0  0  0  0  0999 V2000
   -4.4801    2.0042   -0.2966 C   0  0  0  0  0  0  0  0  0  0  0  0
   -3.3040    1.3192    0.3169 C   0  0  0  0  0  0  0  0  0  0  0  0
   -3.0567    1.3833    1.6804 C   0  0  0  0  0  0  0  0  0  0  0  0
   -1.9590    0.7352    2.2169 C   0  0  0  0  0  0  0  0  0  0  0  0
   -1.1096    0.0190    1.3649 C   0  0  0  0  0  0  0  0  0  0  0  0
   -1.3382   -0.0580    0.0062 C   0  0  0  0  0  0  0  0  0  0  0  0
   -0.4795   -0.7843   -0.8626 N   0  0  0  0  0  0  0  0  0  0  0  0
    0.6738   -1.4614   -0.4078 C   0  0  0  0  0  0  0  0  0  0  0  0
    0.5178   -2.4731    0.4976 C   0  0  0  0  0  0  0  0  0  0  0  0
    1.6250   -3.1493    0.9452 C   0  0  0  0  0  0  0  0  0  0  0  0
    1.4903   -4.4593    2.1110 Cl  0  0  0  0  0  0  0  0  0  0  0  0
    2.8237   -2.7707    0.4576 N   0  0  0  0  0  0  0  0  0  0  0  0
    2.9753   -1.7751   -0.4332 C   0  0  0  0  0  0  0  0  0  0  0  0
    4.6152   -1.3990   -0.9798 S   0  0  0  0  0  0  0  0  0  0  0  0
    5.3868   -0.1539    0.0971 C   0  0  0  0  0  0  0  0  0  0  0  0
    4.6396    1.1104   -0.0739 C   0  0  0  0  0  0  0  0  0  0  0  0
    5.0064    1.9039   -0.9492 O   0  0  0  0  0  0  0  0  0  0  0  0
    3.5612    1.4020    0.7206 O   0  0  0  0  0  0  0  0  0  0  0  0
    1.8719   -1.1275   -0.8559 N   0  0  0  0  0  0  0  0  0  0  0  0
   -2.4501    0.6063   -0.4948 C   0  0  0  0  0  0  0  0  0  0  0  0
   -2.6792    0.5184   -1.9673 C   0  0  0  0  0  0  0  0  0  0  0  0
   -4.0593    2.6968   -1.0810 H   0  0  0  0  0  0  0  0  0  0  0  0
   -5.1218    1.2689   -0.7977 H   0  0  0  0  0  0  0  0  0  0  0  0
   -5.0097    2.6377    0.4233 H   0  0  0  0  0  0  0  0  0  0  0  0
   -3.7435    1.9494    2.2940 H   0  0  0  0  0  0  0  0  0  0  0  0
   -1.7471    0.7729    3.2858 H   0  0  0  0  0  0  0  0  0  0  0  0
   -0.2629   -0.4753    1.8181 H   0  0  0  0  0  0  0  0  0  0  0  0
   -0.7064   -0.8229   -1.8892 H   0  0  0  0  0  0  0  0  0  0  0  0
   -0.4530   -2.7296    0.8512 H   0  0  0  0  0  0  0  0  0  0  0  0
    6.4496   -0.0273   -0.1212 H   0  0  0  0  0  0  0  0  0  0  0  0
    5.3214   -0.5465    1.1512 H   0  0  0  0  0  0  0  0  0  0  0  0
    3.2813    2.3592    0.9186 H   0  0  0  0  0  0  0  0  0  0  0  0
   -2.7085   -0.5376   -2.3214 H   0  0  0  0  0  0  0  0  0  0  0  0
   -1.9161    1.0812   -2.5457 H   0  0  0  0  0  0  0  0  0  0  0  0
   -3.6547    0.9824   -2.1781 H   0  0  0  0  0  0  0  0  0  0  0  0
  1  2  1  0
  2  3  2  0
  3  4  1  0
  4  5  2  0
  5  6  1  0
  6  7  1  0
  7  8  1  0
  8  9  2  0
  9 10  1  0
 10 11  1  0
 10 12  2  0
 12 13  1  0
 13 14  1  0
 14 15  1  0
 15 16  1  0
 16 17  2  0
 16 18  1  0
 13 19  2  0
  6 20  2  0
 20 21  1  0
 20  2  1  0
 19  8  1  0
  1 22  1  0
  1 23  1  0
  1 24  1  0
  3 25  1  0
  4 26  1  0
  5 27  1  0
  7 28  1  0
  9 29  1  0
 15 30  1  0
 15 31  1  0
 18 32  1  0
 21 33  1  0
 21 34  1  0
 21 35  1  0
M  END
$$$$
