
     RDKit          3D

 33 36  0  0  0  0  0  0  0  0999 V2000
   -0.9372   -1.7072   -3.3424 O   0  0  0  0  0  0  0  0  0  0  0  0
   -1.0944   -0.9392   -2.3610 C   0  0  0  0  0  0  0  0  0  0  0  0
    0.0965   -0.1166   -2.0510 C   0  0  0  0  0  0  0  0  0  0  0  0
    0.3418    0.0137   -0.5952 C   0  0  0  0  0  0  0  0  0  0  0  0
   -0.5384    0.1359    0.4654 C   0  0  0  0  0  0  0  0  0  0  0  0
    0.1519    0.2224    1.6213 N   0  0  0  0  0  0  0  0  0  0  0  0
    1.4695    0.1561    1.3008 C   0  0  0  0  0  0  0  0  0  0  0  0
    2.6317    0.1917    2.0431 C   0  0  0  0  0  0  0  0  0  0  0  0
    3.8843    0.1047    1.4769 C   0  0  0  0  0  0  0  0  0  0  0  0
    4.0263   -0.0243    0.1137 C   0  0  0  0  0  0  0  0  0  0  0  0
    5.3308   -0.1161   -0.4885 N   0  0  0  0  0  4  0  0  0  0  0  0
    6.3471   -0.0786    0.2289 O   0  0  0  0  0  0  0  0  0  0  0  0
    5.4577   -0.2447   -1.8509 O   0  0  0  0  0  1  0  0  0  0  0  0
    2.8800   -0.0620   -0.6459 C   0  0  0  0  0  0  0  0  0  0  0  0
    1.6199    0.0252   -0.0800 C   0  0  0  0  0  0  0  0  0  0  0  0
   -1.9988    0.1700    0.4017 C   0  0  0  0  0  0  0  0  0  0  0  0
   -2.5376    0.8068    1.4846 C   0  0  0  0  0  0  0  0  0  0  0  0
   -3.9257    0.9258    1.5882 C   0  0  0  0  0  0  0  0  0  0  0  0
   -4.7496    0.3978    0.5924 C   0  0  0  0  0  0  0  0  0  0  0  0
   -4.1976   -0.2410   -0.4939 C   0  0  0  0  0  0  0  0  0  0  0  0
   -2.8284   -0.3575   -0.5945 C   0  0  0  0  0  0  0  0  0  0  0  0
   -2.3848   -1.0321   -1.7659 N   0  0  0  0  0  0  0  0  0  0  0  0
   -0.1290    0.9063   -2.4708 H   0  0  0  0  0  0  0  0  0  0  0  0
    0.9873   -0.5479   -2.5456 H   0  0  0  0  0  0  0  0  0  0  0  0
   -0.1952    0.3186    2.5977 H   0  0  0  0  0  0  0  0  0  0  0  0
    2.4951    0.2947    3.1247 H   0  0  0  0  0  0  0  0  0  0  0  0
    4.7786    0.1359    2.0897 H   0  0  0  0  0  0  0  0  0  0  0  0
    3.0057   -0.1637   -1.7168 H   0  0  0  0  0  0  0  0  0  0  0  0
   -1.8972    1.2145    2.2397 H   0  0  0  0  0  0  0  0  0  0  0  0
   -4.3479    1.4263    2.4399 H   0  0  0  0  0  0  0  0  0  0  0  0
   -5.8188    0.4757    0.6480 H   0  0  0  0  0  0  0  0  0  0  0  0
   -4.8056   -0.6496   -1.2621 H   0  0  0  0  0  0  0  0  0  0  0  0
   -3.1181   -1.6418   -2.1918 H   0  0  0  0  0  0  0  0  0  0  0  0
  1  2  2  0
  2  3  1  0
  3  4  1  0
  4  5  2  0
  5  6  1  0
  6  7  1  0
  7  8  2  0
  8  9  1  0
  9 10  2  0
 10 11  1  0
 11 12  2  0
 11 13  1  0
 10 14  1  0
 14 15  2  0
  5 16  1  0
 16 17  2  0
 17 18  1  0
 18 19  2  0
 19 20  1  0
 20 21  2  0
 21 22  1  0
 22  2  1  0
 15  4  1  0
 21 16  1  0
 15  7  1  0
  3 23  1  0
  3 24  1  0
  6 25  1  0
  8 26  1  0
  9 27  1  0
 14 28  1  0
 17 29  1  0
 18 30  1  0
 19 31  1  0
 20 32  1  0
 22 33  1  0
M  CHG  2  11   1  13  -1
M  END
$$$$
