@<TRIPOS>MOLECULE
*****
 33 36 0 0 0
SMALL
GASTEIGER

@<TRIPOS>ATOM
      1 O          -0.9372   -1.7072   -3.3424 O.2     1  UNL1       -0.2751
      2 C          -1.0944   -0.9392   -2.3610 C.2     1  UNL1        0.2216
      3 C           0.0965   -0.1166   -2.0510 C.3     1  UNL1        0.0520
      4 C           0.3418    0.0137   -0.5952 C.ar    1  UNL1       -0.0054
      5 C          -0.5384    0.1359    0.4654 C.ar    1  UNL1        0.0529
      6 N           0.1519    0.2224    1.6213 N.ar    1  UNL1       -0.3539
      7 C           1.4695    0.1561    1.3008 C.ar    1  UNL1        0.0476
      8 C           2.6317    0.1917    2.0431 C.ar    1  UNL1       -0.0314
      9 C           3.8843    0.1047    1.4769 C.ar    1  UNL1        0.0176
     10 C           4.0263   -0.0243    0.1137 C.ar    1  UNL1        0.2738
     11 N           5.3308   -0.1161   -0.4885 N.pl3   1  UNL1        0.0796
     12 O           6.3471   -0.0786    0.2289 O.2     1  UNL1        0.0414
     13 O           5.4577   -0.2447   -1.8509 O.co2   1  UNL1       -0.5760
     14 C           2.8800   -0.0620   -0.6459 C.ar    1  UNL1        0.0250
     15 C           1.6199    0.0252   -0.0800 C.ar    1  UNL1        0.0103
     16 C          -1.9988    0.1700    0.4017 C.ar    1  UNL1        0.0198
     17 C          -2.5376    0.8068    1.4846 C.ar    1  UNL1       -0.0508
     18 C          -3.9257    0.9258    1.5882 C.ar    1  UNL1       -0.0610
     19 C          -4.7496    0.3978    0.5924 C.ar    1  UNL1       -0.0600
     20 C          -4.1976   -0.2410   -0.4939 C.ar    1  UNL1       -0.0398
     21 C          -2.8284   -0.3575   -0.5945 C.ar    1  UNL1        0.0426
     22 N          -2.3848   -1.0321   -1.7659 N.am    1  UNL1       -0.2847
     23 H          -0.1290    0.9063   -2.4708 H       1  UNL1        0.0408
     24 H           0.9873   -0.5479   -2.5456 H       1  UNL1        0.0408
     25 H          -0.1952    0.3186    2.5977 H       1  UNL1        0.1659
     26 H           2.4951    0.2947    3.1247 H       1  UNL1        0.0640
     27 H           4.7786    0.1359    2.0897 H       1  UNL1        0.0686
     28 H           3.0057   -0.1637   -1.7168 H       1  UNL1        0.0692
     29 H          -1.8972    1.2145    2.2397 H       1  UNL1        0.0625
     30 H          -4.3479    1.4263    2.4399 H       1  UNL1        0.0618
     31 H          -5.8188    0.4757    0.6480 H       1  UNL1        0.0618
     32 H          -4.8056   -0.6496   -1.2621 H       1  UNL1        0.0636
     33 H          -3.1181   -1.6418   -2.1918 H       1  UNL1        0.1548
@<TRIPOS>UNITY_ATOM_ATTR
11 1
charge 1
13 1
charge -1
@<TRIPOS>BOND
     1     1     2    2
     2     2     3    1
     3     3     4    1
     4     4     5   ar
     5     5     6   ar
     6     6     7   ar
     7     7     8   ar
     8     8     9   ar
     9     9    10   ar
    10    10    11    1
    11    11    12    2
    12    11    13    1
    13    10    14   ar
    14    14    15   ar
    15     5    16    1
    16    16    17   ar
    17    17    18   ar
    18    18    19   ar
    19    19    20   ar
    20    20    21   ar
    21    21    22    1
    22    22     2   am
    23    15     4   ar
    24    21    16   ar
    25    15     7   ar
    26     3    23    1
    27     3    24    1
    28     6    25    1
    29     8    26    1
    30     9    27    1
    31    14    28    1
    32    17    29    1
    33    18    30    1
    34    19    31    1
    35    20    32    1
    36    22    33    1
