@<TRIPOS>MOLECULE
*****
 52 55 0 0 0
SMALL
GASTEIGER

@<TRIPOS>ATOM
      1 C           1.1926    0.5597    2.3129 C.3     1  UNL1        0.0035
      2 N           1.3663    0.4750    0.8652 N.am    1  UNL1       -0.2995
      3 C           2.6908    0.3764    0.3754 C.2     1  UNL1        0.2199
      4 O           2.8377    0.3084   -0.8735 O.2     1  UNL1       -0.2752
      5 C           3.8848    0.3492    1.2293 C.3     1  UNL1        0.0493
      6 C           5.1305    0.2457    0.4272 C.ar    1  UNL1       -0.0384
      7 C           5.8315    1.3706   -0.0081 C.ar    1  UNL1       -0.0554
      8 C           6.9762    1.2886   -0.7456 C.ar    1  UNL1       -0.0262
      9 C           7.4846    0.0614   -1.0895 C.ar    1  UNL1        0.1234
     10 F           8.6259   -0.0119   -1.8237 F       1  UNL1       -0.2055
     11 C           6.8082   -1.0581   -0.6701 C.ar    1  UNL1       -0.0262
     12 C           5.6562   -0.9729    0.0721 C.ar    1  UNL1       -0.0554
     13 C           0.1986    0.4911   -0.0162 C.3     1  UNL1        0.0439
     14 C          -0.5993    1.7290    0.0771 C.3     1  UNL1       -0.0273
     15 C          -1.9637    1.6112    0.6815 C.3     1  UNL1       -0.0103
     16 C          -2.6747    0.3983    0.2087 C.ar    1  UNL1        0.0236
     17 C          -3.9903    0.1297   -0.0914 C.ar    1  UNL1       -0.0083
     18 C          -5.1345    1.0693   -0.0142 C.3     1  UNL1        0.0721
     19 C          -5.1715    2.0246   -1.1429 C.2     1  UNL1        0.3091
     20 O          -4.3185    2.0129   -2.0456 O.2     1  UNL1       -0.2507
     21 O          -6.1887    2.9622   -1.1964 O.3     1  UNL1       -0.4804
     22 C          -4.0566   -1.1874   -0.4837 C.ar    1  UNL1        0.0038
     23 C          -5.1280   -1.9775   -0.8933 C.ar    1  UNL1       -0.0523
     24 C          -4.8918   -3.3004   -1.2361 C.ar    1  UNL1       -0.0611
     25 C          -3.6305   -3.8389   -1.1788 C.ar    1  UNL1       -0.0598
     26 C          -2.6014   -3.0234   -0.7691 C.ar    1  UNL1       -0.0376
     27 C          -2.7943   -1.7005   -0.4189 C.ar    1  UNL1        0.0496
     28 N          -1.9504   -0.7382    0.0021 N.ar    1  UNL1       -0.3417
     29 C          -0.5435   -0.7962    0.2255 C.3     1  UNL1        0.0422
     30 H           1.4369   -0.4014    2.8057 H       1  UNL1        0.0429
     31 H           0.1296    0.7695    2.5581 H       1  UNL1        0.0429
     32 H           1.8854    1.3098    2.7190 H       1  UNL1        0.0429
     33 H           3.8946   -0.5539    1.9093 H       1  UNL1        0.0407
     34 H           3.9931    1.2150    1.9005 H       1  UNL1        0.0407
     35 H           5.4309    2.3427    0.2631 H       1  UNL1        0.0621
     36 H           7.4718    2.1960   -1.0518 H       1  UNL1        0.0646
     37 H           7.2238   -2.0175   -0.9507 H       1  UNL1        0.0646
     38 H           5.1836   -1.9037    0.3623 H       1  UNL1        0.0621
     39 H           0.6157    0.4129   -1.0578 H       1  UNL1        0.0518
     40 H          -0.7512    2.1519   -0.9571 H       1  UNL1        0.0287
     41 H          -0.0394    2.5222    0.6162 H       1  UNL1        0.0287
     42 H          -2.5386    2.5213    0.3564 H       1  UNL1        0.0328
     43 H          -1.9559    1.6743    1.7968 H       1  UNL1        0.0328
     44 H          -4.9953    1.6496    0.9411 H       1  UNL1        0.0427
     45 H          -6.0835    0.5037    0.0823 H       1  UNL1        0.0427
     46 H          -6.5977    3.2664   -2.0723 H       1  UNL1        0.2951
     47 H          -6.1321   -1.5797   -0.9482 H       1  UNL1        0.0624
     48 H          -5.7042   -3.9122   -1.5510 H       1  UNL1        0.0618
     49 H          -3.4315   -4.8579   -1.4402 H       1  UNL1        0.0618
     50 H          -1.6059   -3.4509   -0.7245 H       1  UNL1        0.0638
     51 H          -0.3973   -1.0961    1.3049 H       1  UNL1        0.0510
     52 H          -0.0791   -1.6201   -0.3556 H       1  UNL1        0.0510
@<TRIPOS>BOND
     1     1     2    1
     2     2     3   am
     3     3     4    2
     4     3     5    1
     5     5     6    1
     6     6     7   ar
     7     7     8   ar
     8     8     9   ar
     9     9    10    1
    10     9    11   ar
    11    11    12   ar
    12     2    13    1
    13    13    14    1
    14    14    15    1
    15    15    16    1
    16    16    17   ar
    17    17    18    1
    18    18    19    1
    19    19    20    2
    20    19    21    1
    21    17    22   ar
    22    22    23   ar
    23    23    24   ar
    24    24    25   ar
    25    25    26   ar
    26    26    27   ar
    27    27    28   ar
    28    28    29    1
    29    12     6   ar
    30    29    13    1
    31    28    16   ar
    32    27    22   ar
    33     1    30    1
    34     1    31    1
    35     1    32    1
    36     5    33    1
    37     5    34    1
    38     7    35    1
    39     8    36    1
    40    11    37    1
    41    12    38    1
    42    13    39    1
    43    14    40    1
    44    14    41    1
    45    15    42    1
    46    15    43    1
    47    18    44    1
    48    18    45    1
    49    21    46    1
    50    23    47    1
    51    24    48    1
    52    25    49    1
    53    26    50    1
    54    29    51    1
    55    29    52    1
