
     RDKit          3D

 52 55  0  0  0  0  0  0  0  0999 V2000
    1.1926    0.5597    2.3129 C   0  0  0  0  0  0  0  0  0  0  0  0
    1.3663    0.4750    0.8652 N   0  0  0  0  0  0  0  0  0  0  0  0
    2.6908    0.3764    0.3754 C   0  0  0  0  0  0  0  0  0  0  0  0
    2.8377    0.3084   -0.8735 O   0  0  0  0  0  0  0  0  0  0  0  0
    3.8848    0.3492    1.2293 C   0  0  0  0  0  0  0  0  0  0  0  0
    5.1305    0.2457    0.4272 C   0  0  0  0  0  0  0  0  0  0  0  0
    5.8315    1.3706   -0.0081 C   0  0  0  0  0  0  0  0  0  0  0  0
    6.9762    1.2886   -0.7456 C   0  0  0  0  0  0  0  0  0  0  0  0
    7.4846    0.0614   -1.0895 C   0  0  0  0  0  0  0  0  0  0  0  0
    8.6259   -0.0119   -1.8237 F   0  0  0  0  0  0  0  0  0  0  0  0
    6.8082   -1.0581   -0.6701 C   0  0  0  0  0  0  0  0  0  0  0  0
    5.6562   -0.9729    0.0721 C   0  0  0  0  0  0  0  0  0  0  0  0
    0.1986    0.4911   -0.0162 C   0  0  2  0  0  0  0  0  0  0  0  0
   -0.5993    1.7290    0.0771 C   0  0  0  0  0  0  0  0  0  0  0  0
   -1.9637    1.6112    0.6815 C   0  0  0  0  0  0  0  0  0  0  0  0
   -2.6747    0.3983    0.2087 C   0  0  0  0  0  0  0  0  0  0  0  0
   -3.9903    0.1297   -0.0914 C   0  0  0  0  0  0  0  0  0  0  0  0
   -5.1345    1.0693   -0.0142 C   0  0  0  0  0  0  0  0  0  0  0  0
   -5.1715    2.0246   -1.1429 C   0  0  0  0  0  0  0  0  0  0  0  0
   -4.3185    2.0129   -2.0456 O   0  0  0  0  0  0  0  0  0  0  0  0
   -6.1887    2.9622   -1.1964 O   0  0  0  0  0  0  0  0  0  0  0  0
   -4.0566   -1.1874   -0.4837 C   0  0  0  0  0  0  0  0  0  0  0  0
   -5.1280   -1.9775   -0.8933 C   0  0  0  0  0  0  0  0  0  0  0  0
   -4.8918   -3.3004   -1.2361 C   0  0  0  0  0  0  0  0  0  0  0  0
   -3.6305   -3.8389   -1.1788 C   0  0  0  0  0  0  0  0  0  0  0  0
   -2.6014   -3.0234   -0.7691 C   0  0  0  0  0  0  0  0  0  0  0  0
   -2.7943   -1.7005   -0.4189 C   0  0  0  0  0  0  0  0  0  0  0  0
   -1.9504   -0.7382    0.0021 N   0  0  0  0  0  0  0  0  0  0  0  0
   -0.5435   -0.7962    0.2255 C   0  0  0  0  0  0  0  0  0  0  0  0
    1.4369   -0.4014    2.8057 H   0  0  0  0  0  0  0  0  0  0  0  0
    0.1296    0.7695    2.5581 H   0  0  0  0  0  0  0  0  0  0  0  0
    1.8854    1.3098    2.7190 H   0  0  0  0  0  0  0  0  0  0  0  0
    3.8946   -0.5539    1.9093 H   0  0  0  0  0  0  0  0  0  0  0  0
    3.9931    1.2150    1.9005 H   0  0  0  0  0  0  0  0  0  0  0  0
    5.4309    2.3427    0.2631 H   0  0  0  0  0  0  0  0  0  0  0  0
    7.4718    2.1960   -1.0518 H   0  0  0  0  0  0  0  0  0  0  0  0
    7.2238   -2.0175   -0.9507 H   0  0  0  0  0  0  0  0  0  0  0  0
    5.1836   -1.9037    0.3623 H   0  0  0  0  0  0  0  0  0  0  0  0
    0.6157    0.4129   -1.0578 H   0  0  0  0  0  0  0  0  0  0  0  0
   -0.7512    2.1519   -0.9571 H   0  0  0  0  0  0  0  0  0  0  0  0
   -0.0394    2.5222    0.6162 H   0  0  0  0  0  0  0  0  0  0  0  0
   -2.5386    2.5213    0.3564 H   0  0  0  0  0  0  0  0  0  0  0  0
   -1.9559    1.6743    1.7968 H   0  0  0  0  0  0  0  0  0  0  0  0
   -4.9953    1.6496    0.9411 H   0  0  0  0  0  0  0  0  0  0  0  0
   -6.0835    0.5037    0.0823 H   0  0  0  0  0  0  0  0  0  0  0  0
   -6.5977    3.2664   -2.0723 H   0  0  0  0  0  0  0  0  0  0  0  0
   -6.1321   -1.5797   -0.9482 H   0  0  0  0  0  0  0  0  0  0  0  0
   -5.7042   -3.9122   -1.5510 H   0  0  0  0  0  0  0  0  0  0  0  0
   -3.4315   -4.8579   -1.4402 H   0  0  0  0  0  0  0  0  0  0  0  0
   -1.6059   -3.4509   -0.7245 H   0  0  0  0  0  0  0  0  0  0  0  0
   -0.3973   -1.0961    1.3049 H   0  0  0  0  0  0  0  0  0  0  0  0
   -0.0791   -1.6201   -0.3556 H   0  0  0  0  0  0  0  0  0  0  0  0
  1  2  1  0
  2  3  1  0
  3  4  2  0
  3  5  1  0
  5  6  1  0
  6  7  2  0
  7  8  1  0
  8  9  2  0
  9 10  1  0
  9 11  1  0
 11 12  2  0
  2 13  1  0
 13 14  1  0
 14 15  1  0
 15 16  1  0
 16 17  2  0
 17 18  1  0
 18 19  1  0
 19 20  2  0
 19 21  1  0
 17 22  1  0
 22 23  2  0
 23 24  1  0
 24 25  2  0
 25 26  1  0
 26 27  2  0
 27 28  1  0
 28 29  1  0
 12  6  1  0
 29 13  1  0
 28 16  1  0
 27 22  1  0
  1 30  1  0
  1 31  1  0
  1 32  1  0
  5 33  1  0
  5 34  1  0
  7 35  1  0
  8 36  1  0
 11 37  1  0
 12 38  1  0
 13 39  1  6
 14 40  1  0
 14 41  1  0
 15 42  1  0
 15 43  1  0
 18 44  1  0
 18 45  1  0
 21 46  1  0
 23 47  1  0
 24 48  1  0
 25 49  1  0
 26 50  1  0
 29 51  1  0
 29 52  1  0
M  END
$$$$
