@<TRIPOS>MOLECULE
*****
 38 39 0 0 0
SMALL
GASTEIGER

@<TRIPOS>ATOM
      1 C          -3.9283   -2.8880    1.1500 C.3     1  UNL1        0.0135
      2 N          -3.9258   -1.5098    0.7136 N.ar    1  UNL1       -0.3277
      3 C          -5.0523   -0.7846    0.4939 C.ar    1  UNL1        0.0986
      4 N          -4.7502    0.4717    0.1078 N.ar    1  UNL1       -0.2177
      5 C          -3.4136    0.5986    0.0639 C.ar    1  UNL1        0.1678
      6 C          -2.9180   -0.6303    0.4398 C.ar    1  UNL1        0.1512
      7 C          -1.5750   -0.9092    0.5318 C.ar    1  UNL1        0.2824
      8 O          -1.0396   -1.9947    0.8608 O.2     1  UNL1       -0.2652
      9 N          -0.7666    0.1216    0.2223 N.ar    1  UNL1       -0.2591
     10 C           0.6760   -0.0367    0.3045 C.3     1  UNL1        0.0310
     11 C           1.3555   -0.4350   -0.9496 C.3     1  UNL1       -0.0343
     12 C           2.8624   -0.6022   -0.7086 C.3     1  UNL1       -0.0448
     13 C           3.4855    0.6743   -0.2153 C.3     1  UNL1        0.0056
     14 C           4.9186    0.4730    0.0342 C.2     1  UNL1        0.1303
     15 C           6.4105    0.4662    0.1445 C.3     1  UNL1       -0.0061
     16 O           4.7057   -0.5399    0.7731 O.2     1  UNL1       -0.2977
     17 C          -1.1539    1.3826   -0.1656 C.ar    1  UNL1        0.3333
     18 O          -0.3377    2.2892   -0.4369 O.2     1  UNL1       -0.2462
     19 N          -2.5130    1.5229   -0.2133 N.ar    1  UNL1       -0.2796
     20 C          -2.9906    2.8456   -0.5844 C.3     1  UNL1        0.0181
     21 H          -2.9459   -3.2336    1.4848 H       1  UNL1        0.0456
     22 H          -4.6402   -3.0242    2.0125 H       1  UNL1        0.0456
     23 H          -4.3064   -3.5308    0.3420 H       1  UNL1        0.0456
     24 H          -6.0530   -1.1820    0.6217 H       1  UNL1        0.1029
     25 H           1.0479    0.9096    0.7480 H       1  UNL1        0.0494
     26 H           0.8791   -0.8097    1.0766 H       1  UNL1        0.0494
     27 H           0.9826   -1.3477   -1.4140 H       1  UNL1        0.0283
     28 H           1.2835    0.4631   -1.6426 H       1  UNL1        0.0283
     29 H           3.3160   -0.8603   -1.7312 H       1  UNL1        0.0270
     30 H           3.0965   -1.4547   -0.0617 H       1  UNL1        0.0270
     31 H           2.9878    1.0754    0.6860 H       1  UNL1        0.0341
     32 H           3.3486    1.4651   -1.0307 H       1  UNL1        0.0341
     33 H           6.6746    0.9471    1.0999 H       1  UNL1        0.0306
     34 H           6.7976   -0.5403    0.0440 H       1  UNL1        0.0306
     35 H           6.8540    1.0466   -0.7156 H       1  UNL1        0.0306
     36 H          -3.8388    2.7799   -1.2752 H       1  UNL1        0.0458
     37 H          -3.3475    3.3075    0.3819 H       1  UNL1        0.0458
     38 H          -2.1859    3.4736   -1.0254 H       1  UNL1        0.0458
@<TRIPOS>BOND
     1     1     2    1
     2     2     3   ar
     3     3     4   ar
     4     4     5   ar
     5     5     6   ar
     6     6     7   ar
     7     7     8    2
     8     7     9   ar
     9     9    10    1
    10    10    11    1
    11    11    12    1
    12    12    13    1
    13    13    14    1
    14    14    15    1
    15    14    16    2
    16     9    17   ar
    17    17    18    2
    18    17    19   ar
    19    19    20    1
    20     6     2   ar
    21    19     5   ar
    22     1    21    1
    23     1    22    1
    24     1    23    1
    25     3    24    1
    26    10    25    1
    27    10    26    1
    28    11    27    1
    29    11    28    1
    30    12    29    1
    31    12    30    1
    32    13    31    1
    33    13    32    1
    34    15    33    1
    35    15    34    1
    36    15    35    1
    37    20    36    1
    38    20    37    1
    39    20    38    1
