@<TRIPOS>MOLECULE
*****
 86 89 0 0 0
SMALL
GASTEIGER

@<TRIPOS>ATOM
      1 C          -7.0750    0.1438    2.2569 C.3     1  UNL1        0.0788
      2 O          -7.0099    1.5291    1.9913 O.3     1  UNL1       -0.4950
      3 C          -5.9411    2.0224    1.2795 C.ar    1  UNL1        0.1241
      4 C          -5.8545    3.3680    1.0090 C.ar    1  UNL1        0.0218
      5 C          -4.7820    3.8567    0.2969 C.ar    1  UNL1        0.1241
      6 O          -4.6685    5.2244    0.0076 O.3     1  UNL1       -0.4950
      7 C          -5.6257    6.1629    0.4186 C.3     1  UNL1        0.0788
      8 C          -3.8168    2.9899   -0.1312 C.ar    1  UNL1       -0.0119
      9 C          -3.8776    1.6083    0.1297 C.ar    1  UNL1       -0.0077
     10 C          -2.7880    0.7589   -0.3286 C.ar    1  UNL1        0.0232
     11 C          -1.5090    1.0660    0.1463 C.ar    1  UNL1       -0.0401
     12 C          -0.4594    0.2788   -0.2692 C.ar    1  UNL1        0.0193
     13 C           0.8287    0.5562    0.1895 C.ar    1  UNL1        0.0389
     14 N           1.8462   -0.2035   -0.2064 N.ar    1  UNL1       -0.2398
     15 C           1.6895   -1.2215   -1.0251 C.ar    1  UNL1        0.1207
     16 N           2.7400   -2.0734   -1.4798 N.pl3   1  UNL1       -0.3290
     17 C           3.5017   -1.7413   -2.6158 C.3     1  UNL1        0.0104
     18 C           4.4155   -0.5774   -2.5692 C.3     1  UNL1       -0.0374
     19 C           5.5537   -0.6343   -1.5925 C.3     1  UNL1       -0.0505
     20 C           5.1611   -0.7173   -0.1732 C.3     1  UNL1       -0.0402
     21 C           6.3032   -0.8171    0.8131 C.3     1  UNL1       -0.0010
     22 N           7.2299    0.2040    0.8671 N.3     1  UNL1       -0.2999
     23 C           8.1544    0.4752   -0.1360 C.3     1  UNL1        0.0117
     24 C           9.5626    0.5450    0.4264 C.3     1  UNL1        0.0114
     25 N           9.6894    1.0931    1.7141 N.3     1  UNL1       -0.3029
     26 C          10.6148    2.1523    1.9076 C.3     1  UNL1       -0.0127
     27 C           8.6063    0.9971    2.6152 C.3     1  UNL1        0.0114
     28 C           7.2476    1.1316    1.9259 C.3     1  UNL1        0.0117
     29 C           0.4246   -1.5582   -1.5254 C.ar    1  UNL1        0.0041
     30 C          -0.6509   -0.7815   -1.1268 C.ar    1  UNL1        0.0778
     31 N          -1.8957   -1.0359   -1.5547 N.ar    1  UNL1       -0.2310
     32 C          -2.9762   -0.2799   -1.1687 C.ar    1  UNL1        0.1345
     33 N          -4.2449   -0.5944   -1.7073 N.am    1  UNL1       -0.2537
     34 C          -5.0021   -1.6690   -1.1545 C.2     1  UNL1        0.3053
     35 O          -4.5746   -2.3404   -0.1910 O.2     1  UNL1       -0.2525
     36 N          -6.2624   -1.9997   -1.6950 N.am    1  UNL1       -0.2944
     37 C          -7.1102   -3.0638   -1.2478 C.3     1  UNL1        0.0276
     38 C          -7.5313   -2.9577    0.1983 C.3     1  UNL1       -0.0442
     39 C          -8.4094   -3.0884   -2.0555 C.3     1  UNL1       -0.0442
     40 C          -6.4598   -4.4196   -1.4953 C.3     1  UNL1       -0.0442
     41 C          -4.9538    1.1677    0.8363 C.ar    1  UNL1       -0.0119
     42 H          -6.1910   -0.0875    2.8956 H       1  UNL1        0.0660
     43 H          -7.0145   -0.3670    1.2855 H       1  UNL1        0.0660
     44 H          -7.9931   -0.1509    2.7891 H       1  UNL1        0.0660
     45 H          -6.6204    4.0482    1.3498 H       1  UNL1        0.0691
     46 H          -5.1769    7.1817    0.3167 H       1  UNL1        0.0660
     47 H          -6.5169    6.0547   -0.2462 H       1  UNL1        0.0660
     48 H          -5.8846    5.9698    1.4818 H       1  UNL1        0.0660
     49 H          -2.9758    3.3668   -0.6886 H       1  UNL1        0.0660
     50 H          -1.3812    1.8999    0.8148 H       1  UNL1        0.0632
     51 H           0.9299    1.3989    0.8609 H       1  UNL1        0.0837
     52 H           2.9047   -2.9486   -0.9456 H       1  UNL1        0.1474
     53 H           2.8664   -1.6035   -3.5401 H       1  UNL1        0.0461
     54 H           4.1243   -2.6551   -2.9017 H       1  UNL1        0.0461
     55 H           4.7785   -0.3129   -3.6014 H       1  UNL1        0.0280
     56 H           3.7924    0.3243   -2.2893 H       1  UNL1        0.0280
     57 H           6.2967   -1.4152   -1.8948 H       1  UNL1        0.0266
     58 H           6.1212    0.3363   -1.7699 H       1  UNL1        0.0266
     59 H           4.5260    0.1767    0.0549 H       1  UNL1        0.0278
     60 H           4.5246   -1.5993    0.0147 H       1  UNL1        0.0278
     61 H           6.8341   -1.7782    0.5303 H       1  UNL1        0.0426
     62 H           5.8867   -1.0610    1.8418 H       1  UNL1        0.0426
     63 H           7.9517    1.4067   -0.7286 H       1  UNL1        0.0439
     64 H           8.1807   -0.3777   -0.8725 H       1  UNL1        0.0439
     65 H          10.1593    1.1828   -0.2895 H       1  UNL1        0.0439
     66 H          10.0472   -0.4530    0.3782 H       1  UNL1        0.0439
     67 H          10.2159    3.1671    1.8142 H       1  UNL1        0.0391
     68 H          11.4409    2.0211    1.1639 H       1  UNL1        0.0391
     69 H          11.1222    2.0016    2.9028 H       1  UNL1        0.0391
     70 H           8.6611    1.8299    3.3508 H       1  UNL1        0.0439
     71 H           8.6259    0.0522    3.2326 H       1  UNL1        0.0439
     72 H           6.4916    0.9310    2.7315 H       1  UNL1        0.0439
     73 H           7.1924    2.2129    1.6092 H       1  UNL1        0.0439
     74 H           0.2784   -2.3918   -2.2000 H       1  UNL1        0.0673
     75 H          -4.6423   -0.0420   -2.5284 H       1  UNL1        0.1578
     76 H          -6.5932   -1.4060   -2.4939 H       1  UNL1        0.1508
     77 H          -6.6829   -2.7642    0.8830 H       1  UNL1        0.0250
     78 H          -8.3111   -2.1780    0.3030 H       1  UNL1        0.0250
     79 H          -7.9309   -3.9627    0.4982 H       1  UNL1        0.0250
     80 H          -8.1527   -3.1397   -3.1310 H       1  UNL1        0.0250
     81 H          -9.0511   -2.2209   -1.7947 H       1  UNL1        0.0250
     82 H          -8.9544   -4.0075   -1.7417 H       1  UNL1        0.0250
     83 H          -5.9860   -4.4253   -2.4796 H       1  UNL1        0.0250
     84 H          -5.7109   -4.6634   -0.7427 H       1  UNL1        0.0250
     85 H          -7.2646   -5.2045   -1.4966 H       1  UNL1        0.0250
     86 H          -5.0087    0.0962    1.0569 H       1  UNL1        0.0660
@<TRIPOS>BOND
     1     1     2    1
     2     2     3    1
     3     3     4   ar
     4     4     5   ar
     5     5     6    1
     6     6     7    1
     7     5     8   ar
     8     8     9   ar
     9     9    10    1
    10    10    11   ar
    11    11    12   ar
    12    12    13   ar
    13    13    14   ar
    14    14    15   ar
    15    15    16    1
    16    16    17    1
    17    17    18    1
    18    18    19    1
    19    19    20    1
    20    20    21    1
    21    21    22    1
    22    22    23    1
    23    23    24    1
    24    24    25    1
    25    25    26    1
    26    25    27    1
    27    27    28    1
    28    15    29   ar
    29    29    30   ar
    30    30    31   ar
    31    31    32   ar
    32    32    33    1
    33    33    34   am
    34    34    35    2
    35    34    36   am
    36    36    37    1
    37    37    38    1
    38    37    39    1
    39    37    40    1
    40     9    41   ar
    41    41     3   ar
    42    32    10   ar
    43    30    12   ar
    44    28    22    1
    45     1    42    1
    46     1    43    1
    47     1    44    1
    48     4    45    1
    49     7    46    1
    50     7    47    1
    51     7    48    1
    52     8    49    1
    53    11    50    1
    54    13    51    1
    55    16    52    1
    56    17    53    1
    57    17    54    1
    58    18    55    1
    59    18    56    1
    60    19    57    1
    61    19    58    1
    62    20    59    1
    63    20    60    1
    64    21    61    1
    65    21    62    1
    66    23    63    1
    67    23    64    1
    68    24    65    1
    69    24    66    1
    70    26    67    1
    71    26    68    1
    72    26    69    1
    73    27    70    1
    74    27    71    1
    75    28    72    1
    76    28    73    1
    77    29    74    1
    78    33    75    1
    79    36    76    1
    80    38    77    1
    81    38    78    1
    82    38    79    1
    83    39    80    1
    84    39    81    1
    85    39    82    1
    86    40    83    1
    87    40    84    1
    88    40    85    1
    89    41    86    1
