@<TRIPOS>MOLECULE
*****
 101 105 0 0 0
SMALL
GASTEIGER

@<TRIPOS>ATOM
      1 C          -6.8802    5.4397    0.2129 C.3     1  UNL1       -0.0626
      2 C          -6.3647    4.2703   -0.5944 C.3     1  UNL1       -0.0443
      3 C          -5.5897    4.8697   -1.7647 C.3     1  UNL1       -0.0626
      4 C          -5.4664    3.4679    0.2980 C.3     1  UNL1       -0.0220
      5 C          -4.8975    2.2434   -0.4577 C.3     1  UNL1        0.0830
      6 O          -6.0127    1.5290   -0.8296 O.3     1  UNL1       -0.3892
      7 C          -4.0140    1.5699    0.5569 C.3     1  UNL1        0.0993
      8 O          -2.9678    2.5127    0.7361 O.3     1  UNL1       -0.3874
      9 C          -3.3613    0.3342    0.0225 C.3     1  UNL1        0.0517
     10 C          -4.2927   -0.8170   -0.1535 C.3     1  UNL1       -0.0292
     11 C          -3.6596   -2.0678   -0.7080 C.3     1  UNL1       -0.0393
     12 C          -3.0649   -1.9300   -2.0669 C.3     1  UNL1       -0.0502
     13 C          -2.3575   -3.2466   -2.3637 C.3     1  UNL1       -0.0528
     14 C          -3.3972   -4.3197   -2.5420 C.3     1  UNL1       -0.0530
     15 C          -4.2364   -4.4429   -1.3093 C.3     1  UNL1       -0.0528
     16 C          -4.7593   -3.1203   -0.8166 C.3     1  UNL1       -0.0502
     17 N          -2.3454   -0.1534    0.9752 N.am    1  UNL1       -0.3084
     18 C          -0.9935   -0.2705    0.7386 C.2     1  UNL1        0.2340
     19 O          -0.6871    0.1161   -0.4853 O.2     1  UNL1       -0.2738
     20 C           0.1562   -0.7094    1.4914 C.3     1  UNL1        0.1048
     21 C           0.5700    0.0616    2.6807 C.3     1  UNL1        0.0172
     22 C          -0.2887    0.0837    3.8814 C.ar    1  UNL1        0.0527
     23 C          -1.3331   -0.7676    4.0957 C.ar    1  UNL1        0.0003
     24 S          -1.8185   -0.3125    5.7928 S.2     1  UNL1       -0.0608
     25 C          -0.5489    0.9445    5.9543 C.ar    1  UNL1        0.1557
     26 N          -0.3905    1.7267    7.1497 N.pl3   1  UNL1       -0.3375
     27 N           0.0108    0.8940    4.8877 N.ar    1  UNL1       -0.2300
     28 N           1.3703   -0.7996    0.6634 N.am    1  UNL1       -0.3023
     29 C           2.0476   -1.9990    0.3943 C.2     1  UNL1        0.2329
     30 O           1.5264   -3.0502    0.9155 O.2     1  UNL1       -0.2740
     31 C           3.2732   -2.0968   -0.4233 C.3     1  UNL1        0.1131
     32 C           4.1986   -3.1465    0.1047 C.3     1  UNL1       -0.0015
     33 C           5.2808   -2.5673    0.9532 C.ar    1  UNL1       -0.0409
     34 C           6.1763   -3.3986    1.5894 C.ar    1  UNL1       -0.0582
     35 C           7.2024   -2.8984    2.3903 C.ar    1  UNL1       -0.0615
     36 C           7.3245   -1.5538    2.5495 C.ar    1  UNL1       -0.0614
     37 C           6.4373   -0.7085    1.9200 C.ar    1  UNL1       -0.0570
     38 C           5.4147   -1.2057    1.1216 C.ar    1  UNL1       -0.0284
     39 C           4.5067   -0.2157    0.4857 C.3     1  UNL1        0.0476
     40 N           3.8775   -0.8272   -0.6445 N.3     1  UNL1       -0.1499
     41 S           5.0572   -0.8827   -1.9077 S.O2    1  UNL1        0.1006
     42 O           4.4269   -1.6043   -3.0644 O.2     1  UNL1       -0.1409
     43 O           6.2518   -1.6998   -1.4943 O.2     1  UNL1       -0.1409
     44 N           5.5863    0.6664   -2.3705 N.3     1  UNL1       -0.1620
     45 C           4.5186    1.4883   -2.8976 C.3     1  UNL1        0.0450
     46 C           5.1039    2.8986   -3.0439 C.3     1  UNL1        0.0621
     47 O           6.1764    2.8617   -3.9395 O.3     1  UNL1       -0.3771
     48 C           7.1872    2.0985   -3.3806 C.3     1  UNL1        0.0621
     49 C           6.6661    0.6565   -3.3106 C.3     1  UNL1        0.0450
     50 H          -6.1923    6.2938    0.0969 H       1  UNL1        0.0232
     51 H          -7.9301    5.6950   -0.0574 H       1  UNL1        0.0232
     52 H          -6.8674    5.1569    1.2902 H       1  UNL1        0.0232
     53 H          -7.1812    3.6174   -0.9462 H       1  UNL1        0.0296
     54 H          -4.5055    4.7859   -1.5921 H       1  UNL1        0.0232
     55 H          -5.8302    5.9388   -1.9010 H       1  UNL1        0.0232
     56 H          -5.9003    4.3473   -2.6988 H       1  UNL1        0.0232
     57 H          -6.1109    3.0212    1.0901 H       1  UNL1        0.0293
     58 H          -4.6696    4.0375    0.7896 H       1  UNL1        0.0293
     59 H          -4.3422    2.6725   -1.3005 H       1  UNL1        0.0620
     60 H          -6.5493    1.3007   -0.0530 H       1  UNL1        0.2099
     61 H          -4.6055    1.4091    1.4622 H       1  UNL1        0.0638
     62 H          -2.7191    2.8337   -0.1443 H       1  UNL1        0.2100
     63 H          -2.8486    0.5581   -0.9070 H       1  UNL1        0.0525
     64 H          -5.2034   -0.6071   -0.7497 H       1  UNL1        0.0287
     65 H          -4.7194   -1.1478    0.8450 H       1  UNL1        0.0287
     66 H          -2.8949   -2.4761    0.0100 H       1  UNL1        0.0301
     67 H          -2.3162   -1.1351   -2.1945 H       1  UNL1        0.0268
     68 H          -3.8910   -1.8544   -2.8110 H       1  UNL1        0.0268
     69 H          -1.8092   -3.4923   -1.4245 H       1  UNL1        0.0265
     70 H          -1.6387   -3.1905   -3.1799 H       1  UNL1        0.0265
     71 H          -4.0706   -4.1095   -3.3998 H       1  UNL1        0.0265
     72 H          -2.8531   -5.2700   -2.7245 H       1  UNL1        0.0265
     73 H          -5.1393   -5.0545   -1.5870 H       1  UNL1        0.0265
     74 H          -3.7403   -5.0279   -0.5034 H       1  UNL1        0.0265
     75 H          -5.2920   -3.2529    0.1276 H       1  UNL1        0.0268
     76 H          -5.4344   -2.7257   -1.6315 H       1  UNL1        0.0268
     77 H          -2.7517   -0.4128    1.8710 H       1  UNL1        0.1491
     78 H           0.0320   -1.7880    1.8643 H       1  UNL1        0.0598
     79 H           1.6445   -0.1449    2.9659 H       1  UNL1        0.0351
     80 H           0.6539    1.1509    2.3181 H       1  UNL1        0.0351
     81 H          -1.8132   -1.5567    3.5131 H       1  UNL1        0.0712
     82 H          -0.6450    2.7203    7.0889 H       1  UNL1        0.1442
     83 H          -0.0398    1.3428    8.0454 H       1  UNL1        0.1442
     84 H           1.7053    0.1026    0.2668 H       1  UNL1        0.1495
     85 H           2.9437   -2.4670   -1.4344 H       1  UNL1        0.0579
     86 H           3.5974   -3.8300    0.7728 H       1  UNL1        0.0334
     87 H           4.6057   -3.8246   -0.6965 H       1  UNL1        0.0334
     88 H           6.0999   -4.4779    1.4765 H       1  UNL1        0.0620
     89 H           7.9127   -3.5460    2.8947 H       1  UNL1        0.0618
     90 H           8.1279   -1.1597    3.1753 H       1  UNL1        0.0618
     91 H           6.5521    0.3632    2.0605 H       1  UNL1        0.0621
     92 H           5.1976    0.5726    0.0582 H       1  UNL1        0.0494
     93 H           3.8456    0.2659    1.2089 H       1  UNL1        0.0494
     94 H           4.2928    1.1849   -3.9632 H       1  UNL1        0.0467
     95 H           3.6138    1.5140   -2.2921 H       1  UNL1        0.0467
     96 H           5.4995    3.1945   -2.0553 H       1  UNL1        0.0573
     97 H           4.2963    3.5750   -3.3935 H       1  UNL1        0.0573
     98 H           7.3317    2.4651   -2.3335 H       1  UNL1        0.0573
     99 H           8.1390    2.1488   -3.9222 H       1  UNL1        0.0573
    100 H           7.4802   -0.0373   -3.0568 H       1  UNL1        0.0467
    101 H           6.3124    0.3989   -4.3310 H       1  UNL1        0.0467
@<TRIPOS>BOND
     1     1     2    1
     2     2     3    1
     3     2     4    1
     4     4     5    1
     5     5     6    1
     6     5     7    1
     7     7     8    1
     8     7     9    1
     9     9    10    1
    10    10    11    1
    11    11    12    1
    12    12    13    1
    13    13    14    1
    14    14    15    1
    15    15    16    1
    16     9    17    1
    17    17    18   am
    18    18    19    2
    19    18    20    1
    20    20    21    1
    21    21    22    1
    22    22    23   ar
    23    23    24   ar
    24    24    25   ar
    25    25    26    1
    26    25    27   ar
    27    20    28    1
    28    28    29   am
    29    29    30    2
    30    29    31    1
    31    31    32    1
    32    32    33    1
    33    33    34   ar
    34    34    35   ar
    35    35    36   ar
    36    36    37   ar
    37    37    38   ar
    38    38    39    1
    39    39    40    1
    40    40    41    1
    41    41    42    2
    42    41    43    2
    43    41    44    1
    44    44    45    1
    45    45    46    1
    46    46    47    1
    47    47    48    1
    48    48    49    1
    49    16    11    1
    50    27    22   ar
    51    40    31    1
    52    49    44    1
    53    38    33   ar
    54     1    50    1
    55     1    51    1
    56     1    52    1
    57     2    53    1
    58     3    54    1
    59     3    55    1
    60     3    56    1
    61     4    57    1
    62     4    58    1
    63     5    59    1
    64     6    60    1
    65     7    61    1
    66     8    62    1
    67     9    63    1
    68    10    64    1
    69    10    65    1
    70    11    66    1
    71    12    67    1
    72    12    68    1
    73    13    69    1
    74    13    70    1
    75    14    71    1
    76    14    72    1
    77    15    73    1
    78    15    74    1
    79    16    75    1
    80    16    76    1
    81    17    77    1
    82    20    78    1
    83    21    79    1
    84    21    80    1
    85    23    81    1
    86    26    82    1
    87    26    83    1
    88    28    84    1
    89    31    85    1
    90    32    86    1
    91    32    87    1
    92    34    88    1
    93    35    89    1
    94    36    90    1
    95    37    91    1
    96    39    92    1
    97    39    93    1
    98    45    94    1
    99    45    95    1
   100    46    96    1
   101    46    97    1
   102    48    98    1
   103    48    99    1
   104    49   100    1
   105    49   101    1
