@<TRIPOS>MOLECULE
*****
 28 29 0 0 0
SMALL
GASTEIGER

@<TRIPOS>ATOM
      1 C          -1.0793   -2.2634    0.4888 C.3     1  UNL1       -0.0163
      2 C          -0.5125   -0.9925   -0.1242 C.3     1  UNL1        0.1984
      3 O           0.4769   -0.5271    0.7508 O.3     1  UNL1       -0.4741
      4 C           1.7896   -0.2625    0.4752 C.ar    1  UNL1        0.1582
      5 C           1.9880    1.0596    0.0690 C.ar    1  UNL1        0.0840
      6 CL          0.7128    2.2623   -0.0783 Cl      1  UNL1       -0.0797
      7 C           3.2678    1.5099   -0.2544 C.ar    1  UNL1       -0.0397
      8 C           4.3626    0.6902   -0.1884 C.ar    1  UNL1       -0.0588
      9 C           4.1517   -0.6150    0.2149 C.ar    1  UNL1       -0.0397
     10 C           2.9006   -1.1019    0.5443 C.ar    1  UNL1        0.0840
     11 CL          2.5411   -2.7165    1.0583 Cl      1  UNL1       -0.0797
     12 C          -1.6681   -0.0240   -0.1229 C.2     1  UNL1        0.3217
     13 N          -2.1793    0.5304   -1.1490 N.2     1  UNL1       -0.0803
     14 C          -3.2713    1.4055   -0.8210 C.3     1  UNL1        0.1673
     15 C          -3.5485    1.1174    0.6173 C.3     1  UNL1        0.1195
     16 N          -2.3564    0.4100    1.0435 N.pl3   1  UNL1       -0.2306
     17 H          -0.4690   -3.1483    0.2597 H       1  UNL1        0.0271
     18 H          -1.2788   -2.1135    1.5559 H       1  UNL1        0.0271
     19 H          -2.0777   -2.4694    0.0068 H       1  UNL1        0.0271
     20 H          -0.1676   -1.1562   -1.1469 H       1  UNL1        0.0858
     21 H           3.4691    2.5346   -0.5765 H       1  UNL1        0.0633
     22 H           5.3607    1.0216   -0.4350 H       1  UNL1        0.0618
     23 H           4.9705   -1.3188    0.2900 H       1  UNL1        0.0633
     24 H          -4.1496    1.0318   -1.4176 H       1  UNL1        0.0829
     25 H          -3.0533    2.4669   -1.0498 H       1  UNL1        0.0829
     26 H          -4.4182    0.4098    0.7326 H       1  UNL1        0.0765
     27 H          -3.7384    2.0312    1.2198 H       1  UNL1        0.0765
     28 H          -2.0234    0.2278    2.0148 H       1  UNL1        0.2913
@<TRIPOS>BOND
     1     1     2    1
     2     2     3    1
     3     3     4    1
     4     4     5   ar
     5     5     6    1
     6     5     7   ar
     7     7     8   ar
     8     8     9   ar
     9     9    10   ar
    10    10    11    1
    11     2    12    1
    12    12    13    2
    13    13    14    1
    14    14    15    1
    15    15    16    1
    16    10     4   ar
    17    16    12    1
    18     1    17    1
    19     1    18    1
    20     1    19    1
    21     2    20    1
    22     7    21    1
    23     8    22    1
    24     9    23    1
    25    14    24    1
    26    14    25    1
    27    15    26    1
    28    15    27    1
    29    16    28    1
