
     RDKit          3D

 28 29  0  0  0  0  0  0  0  0999 V2000
   -1.0793   -2.2634    0.4888 C   0  0  0  0  0  0  0  0  0  0  0  0
   -0.5125   -0.9925   -0.1242 C   0  0  0  0  0  0  0  0  0  0  0  0
    0.4769   -0.5271    0.7508 O   0  0  0  0  0  0  0  0  0  0  0  0
    1.7896   -0.2625    0.4752 C   0  0  0  0  0  0  0  0  0  0  0  0
    1.9880    1.0596    0.0690 C   0  0  0  0  0  0  0  0  0  0  0  0
    0.7128    2.2623   -0.0783 Cl  0  0  0  0  0  0  0  0  0  0  0  0
    3.2678    1.5099   -0.2544 C   0  0  0  0  0  0  0  0  0  0  0  0
    4.3626    0.6902   -0.1884 C   0  0  0  0  0  0  0  0  0  0  0  0
    4.1517   -0.6150    0.2149 C   0  0  0  0  0  0  0  0  0  0  0  0
    2.9006   -1.1019    0.5443 C   0  0  0  0  0  0  0  0  0  0  0  0
    2.5411   -2.7165    1.0583 Cl  0  0  0  0  0  0  0  0  0  0  0  0
   -1.6681   -0.0240   -0.1229 C   0  0  0  0  0  0  0  0  0  0  0  0
   -2.1793    0.5304   -1.1490 N   0  0  0  0  0  0  0  0  0  0  0  0
   -3.2713    1.4055   -0.8210 C   0  0  0  0  0  0  0  0  0  0  0  0
   -3.5485    1.1174    0.6173 C   0  0  0  0  0  0  0  0  0  0  0  0
   -2.3564    0.4100    1.0435 N   0  0  0  0  0  0  0  0  0  0  0  0
   -0.4690   -3.1483    0.2597 H   0  0  0  0  0  0  0  0  0  0  0  0
   -1.2788   -2.1135    1.5559 H   0  0  0  0  0  0  0  0  0  0  0  0
   -2.0777   -2.4694    0.0068 H   0  0  0  0  0  0  0  0  0  0  0  0
   -0.1676   -1.1562   -1.1469 H   0  0  0  0  0  0  0  0  0  0  0  0
    3.4691    2.5346   -0.5765 H   0  0  0  0  0  0  0  0  0  0  0  0
    5.3607    1.0216   -0.4350 H   0  0  0  0  0  0  0  0  0  0  0  0
    4.9705   -1.3188    0.2900 H   0  0  0  0  0  0  0  0  0  0  0  0
   -4.1496    1.0318   -1.4176 H   0  0  0  0  0  0  0  0  0  0  0  0
   -3.0533    2.4669   -1.0498 H   0  0  0  0  0  0  0  0  0  0  0  0
   -4.4182    0.4098    0.7326 H   0  0  0  0  0  0  0  0  0  0  0  0
   -3.7384    2.0312    1.2198 H   0  0  0  0  0  0  0  0  0  0  0  0
   -2.0234    0.2278    2.0148 H   0  0  0  0  0  0  0  0  0  0  0  0
  1  2  1  0
  2  3  1  0
  3  4  1  0
  4  5  2  0
  5  6  1  0
  5  7  1  0
  7  8  2  0
  8  9  1  0
  9 10  2  0
 10 11  1  0
  2 12  1  0
 12 13  2  0
 13 14  1  0
 14 15  1  0
 15 16  1  0
 10  4  1  0
 16 12  1  0
  1 17  1  0
  1 18  1  0
  1 19  1  0
  2 20  1  0
  7 21  1  0
  8 22  1  0
  9 23  1  0
 14 24  1  0
 14 25  1  0
 15 26  1  0
 15 27  1  0
 16 28  1  0
M  END
$$$$
