
     RDKit          3D

 74 78  0  0  0  0  0  0  0  0999 V2000
    1.5344   -0.3018   -2.6290 C   0  0  0  0  0  0  0  0  0  0  0  0
    0.9955   -0.3355   -1.3307 O   0  0  0  0  0  0  0  0  0  0  0  0
    1.7369   -0.4267   -0.1785 C   0  0  0  0  0  0  0  0  0  0  0  0
    3.1121   -0.4944   -0.2087 C   0  0  0  0  0  0  0  0  0  0  0  0
    3.8933   -0.5868    0.9221 C   0  0  0  0  0  0  0  0  0  0  0  0
    3.2138   -0.6083    2.1082 C   0  0  0  0  0  0  0  0  0  0  0  0
    1.8386   -0.5418    2.1624 C   0  0  0  0  0  0  0  0  0  0  0  0
    1.0613   -0.4492    1.0216 C   0  0  0  0  0  0  0  0  0  0  0  0
   -0.4136   -0.3792    1.0963 C   0  0  0  0  0  0  0  0  0  0  0  0
   -1.0008   -1.6857    0.7249 C   0  0  0  0  0  0  0  0  0  0  0  0
   -0.4902   -2.9165    0.3344 C   0  0  0  0  0  0  0  0  0  0  0  0
   -1.4980   -3.7784    0.1132 N   0  0  0  0  0  0  0  0  0  0  0  0
   -1.3290   -5.1564   -0.3086 C   0  0  0  0  0  0  0  0  0  0  0  0
   -2.6625   -3.1289    0.3537 C   0  0  0  0  0  0  0  0  0  0  0  0
   -2.3841   -1.8276    0.7351 C   0  0  0  0  0  0  0  0  0  0  0  0
   -3.4701   -1.0181    1.0209 C   0  0  0  0  0  0  0  0  0  0  0  0
   -4.7714   -1.4470    0.9417 C   0  0  0  0  0  0  0  0  0  0  0  0
   -5.8676   -0.5712    1.2467 N   0  0  0  0  0  0  0  0  0  0  0  0
   -6.3431    0.1468    0.0942 C   0  0  0  0  0  0  0  0  0  0  0  0
   -5.7744   -0.0598   -1.0041 O   0  0  0  0  0  0  0  0  0  0  0  0
   -7.3815    1.0347    0.1603 O   0  0  0  0  0  0  0  0  0  0  0  0
   -7.8820    1.7645   -0.9538 C   0  0  0  0  0  0  0  0  0  0  0  0
   -7.8659    3.2589   -0.6563 C   0  0  0  0  0  0  0  0  0  0  0  0
   -8.9816    3.3546    0.3626 C   0  0  0  0  0  0  0  0  0  0  0  0
  -10.0749    2.5835   -0.3097 C   0  0  0  0  0  0  0  0  0  0  0  0
   -9.3626    1.4546   -1.0172 C   0  0  0  0  0  0  0  0  0  0  0  0
   -5.0273   -2.7581    0.5566 C   0  0  0  0  0  0  0  0  0  0  0  0
   -3.9594   -3.5969    0.2626 C   0  0  0  0  0  0  0  0  0  0  0  0
    5.3432   -0.6627    0.9763 C   0  0  0  0  0  0  0  0  0  0  0  0
    5.9397   -0.7544    2.0993 O   0  0  0  0  0  0  0  0  0  0  0  0
    6.1728   -0.6412   -0.1728 N   0  0  0  0  0  0  0  0  0  0  0  0
    7.8449   -0.7007   -0.4922 S   0  0  0  0  0  0  0  0  0  0  0  0
    8.1026   -1.4924   -1.7541 O   0  0  0  0  0  0  0  0  0  0  0  0
    8.5397   -1.4271    0.6386 O   0  0  0  0  0  0  0  0  0  0  0  0
    8.4721    0.9043   -0.6831 C   0  0  0  0  0  0  0  0  0  0  0  0
    9.0272    1.2641   -1.9138 C   0  0  0  0  0  0  0  0  0  0  0  0
    9.5640    2.4864   -2.2563 C   0  0  0  0  0  0  0  0  0  0  0  0
    9.5604    3.4706   -1.2923 C   0  0  0  0  0  0  0  0  0  0  0  0
    9.0285    3.1741   -0.0655 C   0  0  0  0  0  0  0  0  0  0  0  0
    8.5078    1.9359    0.2166 C   0  0  0  0  0  0  0  0  0  0  0  0
    7.9558    1.6537    1.5481 C   0  0  0  0  0  0  0  0  0  0  0  0
    0.7862   -0.5962   -3.3807 H   0  0  0  0  0  0  0  0  0  0  0  0
    2.3702   -1.0537   -2.6772 H   0  0  0  0  0  0  0  0  0  0  0  0
    1.9368    0.6932   -2.8998 H   0  0  0  0  0  0  0  0  0  0  0  0
    3.6026   -0.4750   -1.1529 H   0  0  0  0  0  0  0  0  0  0  0  0
    3.7435   -0.6793    3.0585 H   0  0  0  0  0  0  0  0  0  0  0  0
    1.3464   -0.5623    3.1138 H   0  0  0  0  0  0  0  0  0  0  0  0
   -0.7140   -0.0717    2.1236 H   0  0  0  0  0  0  0  0  0  0  0  0
   -0.7652    0.3736    0.3330 H   0  0  0  0  0  0  0  0  0  0  0  0
    0.5817   -3.0381    0.2569 H   0  0  0  0  0  0  0  0  0  0  0  0
   -0.8826   -5.2081   -1.3200 H   0  0  0  0  0  0  0  0  0  0  0  0
   -0.7182   -5.7503    0.4091 H   0  0  0  0  0  0  0  0  0  0  0  0
   -2.3449   -5.6202   -0.3841 H   0  0  0  0  0  0  0  0  0  0  0  0
   -3.2646    0.0080    1.3218 H   0  0  0  0  0  0  0  0  0  0  0  0
   -6.3859   -0.3548    2.1442 H   0  0  0  0  0  0  0  0  0  0  0  0
   -7.3438    1.5409   -1.8951 H   0  0  0  0  0  0  0  0  0  0  0  0
   -8.2420    3.7649   -1.5683 H   0  0  0  0  0  0  0  0  0  0  0  0
   -6.8971    3.6134   -0.3149 H   0  0  0  0  0  0  0  0  0  0  0  0
   -8.6314    2.7929    1.2581 H   0  0  0  0  0  0  0  0  0  0  0  0
   -9.2464    4.4045    0.5937 H   0  0  0  0  0  0  0  0  0  0  0  0
  -10.8397    2.2387    0.4140 H   0  0  0  0  0  0  0  0  0  0  0  0
  -10.5794    3.2170   -1.0838 H   0  0  0  0  0  0  0  0  0  0  0  0
   -9.7273    1.3570   -2.0544 H   0  0  0  0  0  0  0  0  0  0  0  0
   -9.6291    0.5287   -0.4580 H   0  0  0  0  0  0  0  0  0  0  0  0
   -6.0680   -3.0860    0.4983 H   0  0  0  0  0  0  0  0  0  0  0  0
   -4.1633   -4.6267   -0.0399 H   0  0  0  0  0  0  0  0  0  0  0  0
    5.6053   -0.5654   -1.0690 H   0  0  0  0  0  0  0  0  0  0  0  0
    9.0533    0.5099   -2.7172 H   0  0  0  0  0  0  0  0  0  0  0  0
    9.9689    2.6589   -3.2420 H   0  0  0  0  0  0  0  0  0  0  0  0
    9.9555    4.4367   -1.4801 H   0  0  0  0  0  0  0  0  0  0  0  0
    9.0106    3.9351    0.7226 H   0  0  0  0  0  0  0  0  0  0  0  0
    8.4256    2.3853    2.2682 H   0  0  0  0  0  0  0  0  0  0  0  0
    8.2841    0.6603    1.9424 H   0  0  0  0  0  0  0  0  0  0  0  0
    6.8679    1.8288    1.6509 H   0  0  0  0  0  0  0  0  0  0  0  0
  1  2  1  0
  2  3  1  0
  3  4  2  0
  4  5  1  0
  5  6  2  0
  6  7  1  0
  7  8  2  0
  8  9  1  0
  9 10  1  0
 10 11  2  0
 11 12  1  0
 12 13  1  0
 12 14  1  0
 14 15  2  0
 15 16  1  0
 16 17  2  0
 17 18  1  0
 18 19  1  0
 19 20  2  0
 19 21  1  0
 21 22  1  0
 22 23  1  0
 23 24  1  0
 24 25  1  0
 25 26  1  0
 17 27  1  0
 27 28  2  0
  5 29  1  0
 29 30  2  0
 29 31  1  0
 31 32  1  0
 32 33  2  0
 32 34  2  0
 32 35  1  0
 35 36  2  0
 36 37  1  0
 37 38  2  0
 38 39  1  0
 39 40  2  0
 40 41  1  0
  8  3  1  0
 15 10  1  0
 26 22  1  0
 40 35  1  0
 28 14  1  0
  1 42  1  0
  1 43  1  0
  1 44  1  0
  4 45  1  0
  6 46  1  0
  7 47  1  0
  9 48  1  0
  9 49  1  0
 11 50  1  0
 13 51  1  0
 13 52  1  0
 13 53  1  0
 16 54  1  0
 18 55  1  0
 22 56  1  0
 23 57  1  0
 23 58  1  0
 24 59  1  0
 24 60  1  0
 25 61  1  0
 25 62  1  0
 26 63  1  0
 26 64  1  0
 27 65  1  0
 28 66  1  0
 31 67  1  0
 36 68  1  0
 37 69  1  0
 38 70  1  0
 39 71  1  0
 41 72  1  0
 41 73  1  0
 41 74  1  0
M  END
$$$$
