
     RDKit          3D

 59 63  0  0  0  0  0  0  0  0999 V2000
   -7.5567   -0.2141   -2.0788 C   0  0  0  0  0  0  0  0  0  0  0  0
   -6.7957    0.9664   -1.6133 C   0  0  0  0  0  0  0  0  0  0  0  0
   -6.9787    2.1655   -2.2710 C   0  0  0  0  0  0  0  0  0  0  0  0
   -6.2941    3.2991   -1.8786 C   0  0  0  0  0  0  0  0  0  0  0  0
   -5.4300    3.1903   -0.8166 C   0  0  0  0  0  0  0  0  0  0  0  0
   -5.2339    1.9996   -0.1462 C   0  0  0  0  0  0  0  0  0  0  0  0
   -4.3685    1.9204    0.9078 C   0  0  0  0  0  0  0  0  0  0  0  0
   -3.7256    2.9121    1.3040 O   0  0  0  0  0  0  0  0  0  0  0  0
   -4.1943    0.7389    1.5492 N   0  0  0  0  0  0  0  0  0  0  0  0
   -4.8611   -0.3446    1.1559 C   0  0  0  0  0  0  0  0  0  0  0  0
   -4.7040   -1.6837    1.7506 C   0  0  0  0  0  0  0  0  0  0  0  0
   -3.7388   -2.5677    1.0497 C   0  0  0  0  0  0  0  0  0  0  0  0
   -2.3737   -2.0909    1.0129 C   0  0  0  0  0  0  0  0  0  0  0  0
   -1.9745   -1.0709    1.5730 O   0  0  0  0  0  0  0  0  0  0  0  0
   -1.4148   -2.8746    0.2620 N   0  0  0  0  0  0  0  0  0  0  0  0
   -0.0583   -2.4576    0.1887 C   0  0  0  0  0  0  0  0  0  0  0  0
    0.3790   -1.6204   -0.8161 C   0  0  0  0  0  0  0  0  0  0  0  0
    1.7263   -1.2421   -0.8390 C   0  0  0  0  0  0  0  0  0  0  0  0
    2.6421   -1.6616    0.0902 C   0  0  0  0  0  0  0  0  0  0  0  0
    4.0495   -1.2854    0.0926 C   0  0  0  0  0  0  0  0  0  0  0  0
    4.8349   -1.6952    0.9593 O   0  0  0  0  0  0  0  0  0  0  0  0
    4.5372   -0.4278   -0.9219 N   0  0  0  0  0  0  0  0  0  0  0  0
    5.9340   -0.0684   -0.9000 C   0  0  0  0  0  0  0  0  0  0  0  0
    6.8844   -0.8057   -1.5463 C   0  0  0  0  0  0  0  0  0  0  0  0
    8.2344   -0.4704   -1.5331 C   0  0  0  0  0  0  0  0  0  0  0  0
    8.6060    0.6682   -0.8247 C   0  0  0  0  0  0  0  0  0  0  0  0
    7.6684    1.4332   -0.1618 C   0  0  0  0  0  0  0  0  0  0  0  0
    8.0360    2.5554    0.5360 C   0  0  0  0  0  0  0  0  0  0  0  0
    7.0694    3.2882    1.1817 C   0  0  0  0  0  0  0  0  0  0  0  0
    5.7252    2.9194    1.1450 C   0  0  0  0  0  0  0  0  0  0  0  0
    5.4140    1.8129    0.4489 N   0  0  0  0  0  0  0  0  0  0  0  0
    6.3205    1.0584   -0.2019 C   0  0  0  0  0  0  0  0  0  0  0  0
    2.1804   -2.5090    1.1001 C   0  0  0  0  0  0  0  0  0  0  0  0
    0.8560   -2.8812    1.1229 C   0  0  0  0  0  0  0  0  0  0  0  0
   -5.7384   -0.2885    0.0980 N   0  0  0  0  0  0  0  0  0  0  0  0
   -5.9229    0.8523   -0.5390 C   0  0  0  0  0  0  0  0  0  0  0  0
   -6.9094   -1.1148   -2.1094 H   0  0  0  0  0  0  0  0  0  0  0  0
   -8.3234   -0.4243   -1.2847 H   0  0  0  0  0  0  0  0  0  0  0  0
   -8.0362   -0.0232   -3.0428 H   0  0  0  0  0  0  0  0  0  0  0  0
   -7.6572    2.2573   -3.1073 H   0  0  0  0  0  0  0  0  0  0  0  0
   -6.4172    4.2356   -2.3689 H   0  0  0  0  0  0  0  0  0  0  0  0
   -4.8598    4.0491   -0.4583 H   0  0  0  0  0  0  0  0  0  0  0  0
   -3.5427    0.7302    2.3826 H   0  0  0  0  0  0  0  0  0  0  0  0
   -4.4021   -1.5851    2.8364 H   0  0  0  0  0  0  0  0  0  0  0  0
   -5.7023   -2.1920    1.7710 H   0  0  0  0  0  0  0  0  0  0  0  0
   -4.1157   -2.6224   -0.0383 H   0  0  0  0  0  0  0  0  0  0  0  0
   -3.8073   -3.6292    1.4440 H   0  0  0  0  0  0  0  0  0  0  0  0
   -1.7530   -3.7365   -0.2110 H   0  0  0  0  0  0  0  0  0  0  0  0
   -0.2902   -1.2485   -1.5864 H   0  0  0  0  0  0  0  0  0  0  0  0
    2.0604   -0.5759   -1.6437 H   0  0  0  0  0  0  0  0  0  0  0  0
    3.9842   -0.0231   -1.6943 H   0  0  0  0  0  0  0  0  0  0  0  0
    6.5821   -1.6880   -2.0930 H   0  0  0  0  0  0  0  0  0  0  0  0
    8.9703   -1.0641   -2.0490 H   0  0  0  0  0  0  0  0  0  0  0  0
    9.6464    0.9383   -0.8067 H   0  0  0  0  0  0  0  0  0  0  0  0
    9.0601    2.8783    0.5922 H   0  0  0  0  0  0  0  0  0  0  0  0
    7.3357    4.1715    1.7346 H   0  0  0  0  0  0  0  0  0  0  0  0
    5.0138    3.5365    1.6726 H   0  0  0  0  0  0  0  0  0  0  0  0
    2.9054   -2.8482    1.8455 H   0  0  0  0  0  0  0  0  0  0  0  0
    0.5243   -3.5420    1.9211 H   0  0  0  0  0  0  0  0  0  0  0  0
  1  2  1  0
  2  3  2  0
  3  4  1  0
  4  5  2  0
  5  6  1  0
  6  7  1  0
  7  8  2  0
  7  9  1  0
  9 10  1  0
 10 11  1  0
 11 12  1  0
 12 13  1  0
 13 14  2  0
 13 15  1  0
 15 16  1  0
 16 17  2  0
 17 18  1  0
 18 19  2  0
 19 20  1  0
 20 21  2  0
 20 22  1  0
 22 23  1  0
 23 24  2  0
 24 25  1  0
 25 26  2  0
 26 27  1  0
 27 28  2  0
 28 29  1  0
 29 30  2  0
 30 31  1  0
 31 32  2  0
 19 33  1  0
 33 34  2  0
 10 35  2  0
 35 36  1  0
 36  2  1  0
 36  6  2  0
 34 16  1  0
 32 23  1  0
 32 27  1  0
  1 37  1  0
  1 38  1  0
  1 39  1  0
  3 40  1  0
  4 41  1  0
  5 42  1  0
  9 43  1  0
 11 44  1  0
 11 45  1  0
 12 46  1  0
 12 47  1  0
 15 48  1  0
 17 49  1  0
 18 50  1  0
 22 51  1  0
 24 52  1  0
 25 53  1  0
 26 54  1  0
 28 55  1  0
 29 56  1  0
 30 57  1  0
 33 58  1  0
 34 59  1  0
M  END
$$$$
