@<TRIPOS>MOLECULE
*****
 59 63 0 0 0
SMALL
GASTEIGER

@<TRIPOS>ATOM
      1 C          -7.5567   -0.2141   -2.0788 C.3     1  UNL1       -0.0377
      2 C          -6.7957    0.9664   -1.6133 C.ar    1  UNL1       -0.0243
      3 C          -6.9787    2.1655   -2.2710 C.ar    1  UNL1       -0.0568
      4 C          -6.2941    3.2991   -1.8786 C.ar    1  UNL1       -0.0607
      5 C          -5.4300    3.1903   -0.8166 C.ar    1  UNL1       -0.0473
      6 C          -5.2339    1.9996   -0.1462 C.ar    1  UNL1        0.0649
      7 C          -4.3685    1.9204    0.9078 C.ar    1  UNL1        0.2592
      8 O          -3.7256    2.9121    1.3040 O.2     1  UNL1       -0.2672
      9 N          -4.1943    0.7389    1.5492 N.ar    1  UNL1       -0.3103
     10 C          -4.8611   -0.3446    1.1559 C.ar    1  UNL1        0.1108
     11 C          -4.7040   -1.6837    1.7506 C.3     1  UNL1        0.0138
     12 C          -3.7388   -2.5677    1.0497 C.3     1  UNL1        0.0311
     13 C          -2.3737   -2.0909    1.0129 C.2     1  UNL1        0.2176
     14 O          -1.9745   -1.0709    1.5730 O.2     1  UNL1       -0.2755
     15 N          -1.4148   -2.8746    0.2620 N.am    1  UNL1       -0.2855
     16 C          -0.0583   -2.4576    0.1887 C.ar    1  UNL1        0.0334
     17 C           0.3790   -1.6204   -0.8161 C.ar    1  UNL1       -0.0398
     18 C           1.7263   -1.2421   -0.8390 C.ar    1  UNL1       -0.0479
     19 C           2.6421   -1.6616    0.0902 C.ar    1  UNL1        0.0371
     20 C           4.0495   -1.2854    0.0926 C.2     1  UNL1        0.2483
     21 O           4.8349   -1.6952    0.9593 O.2     1  UNL1       -0.2699
     22 N           4.5372   -0.4278   -0.9219 N.am    1  UNL1       -0.2797
     23 C           5.9340   -0.0684   -0.9000 C.ar    1  UNL1        0.0598
     24 C           6.8844   -0.8057   -1.5463 C.ar    1  UNL1       -0.0384
     25 C           8.2344   -0.4704   -1.5331 C.ar    1  UNL1       -0.0593
     26 C           8.6060    0.6682   -0.8247 C.ar    1  UNL1       -0.0524
     27 C           7.6684    1.4332   -0.1618 C.ar    1  UNL1        0.0022
     28 C           8.0360    2.5554    0.5360 C.ar    1  UNL1       -0.0511
     29 C           7.0694    3.2882    1.1817 C.ar    1  UNL1       -0.0430
     30 C           5.7252    2.9194    1.1450 C.ar    1  UNL1        0.0283
     31 N           5.4140    1.8129    0.4489 N.ar    1  UNL1       -0.2531
     32 C           6.3205    1.0584   -0.2019 C.ar    1  UNL1        0.0921
     33 C           2.1804   -2.5090    1.1001 C.ar    1  UNL1       -0.0479
     34 C           0.8560   -2.8812    1.1229 C.ar    1  UNL1       -0.0398
     35 N          -5.7384   -0.2885    0.0980 N.ar    1  UNL1       -0.2334
     36 C          -5.9229    0.8523   -0.5390 C.ar    1  UNL1        0.0810
     37 H          -6.9094   -1.1148   -2.1094 H       1  UNL1        0.0278
     38 H          -8.3234   -0.4243   -1.2847 H       1  UNL1        0.0278
     39 H          -8.0362   -0.0232   -3.0428 H       1  UNL1        0.0278
     40 H          -7.6572    2.2573   -3.1073 H       1  UNL1        0.0621
     41 H          -6.4172    4.2356   -2.3689 H       1  UNL1        0.0618
     42 H          -4.8598    4.0491   -0.4583 H       1  UNL1        0.0626
     43 H          -3.5427    0.7302    2.3826 H       1  UNL1        0.1700
     44 H          -4.4021   -1.5851    2.8364 H       1  UNL1        0.0348
     45 H          -5.7023   -2.1920    1.7710 H       1  UNL1        0.0348
     46 H          -4.1157   -2.6224   -0.0383 H       1  UNL1        0.0363
     47 H          -3.8073   -3.6292    1.4440 H       1  UNL1        0.0363
     48 H          -1.7530   -3.7365   -0.2110 H       1  UNL1        0.1548
     49 H          -0.2902   -1.2485   -1.5864 H       1  UNL1        0.0636
     50 H           2.0604   -0.5759   -1.6437 H       1  UNL1        0.0626
     51 H           3.9842   -0.0231   -1.6943 H       1  UNL1        0.1552
     52 H           6.5821   -1.6880   -2.0930 H       1  UNL1        0.0637
     53 H           8.9703   -1.0641   -2.0490 H       1  UNL1        0.0618
     54 H           9.6464    0.9383   -0.8067 H       1  UNL1        0.0624
     55 H           9.0601    2.8783    0.5922 H       1  UNL1        0.0625
     56 H           7.3357    4.1715    1.7346 H       1  UNL1        0.0633
     57 H           5.0138    3.5365    1.6726 H       1  UNL1        0.0830
     58 H           2.9054   -2.8482    1.8455 H       1  UNL1        0.0626
     59 H           0.5243   -3.5420    1.9211 H       1  UNL1        0.0636
@<TRIPOS>BOND
     1     1     2    1
     2     2     3   ar
     3     3     4   ar
     4     4     5   ar
     5     5     6   ar
     6     6     7   ar
     7     7     8    2
     8     7     9   ar
     9     9    10   ar
    10    10    11    1
    11    11    12    1
    12    12    13    1
    13    13    14    2
    14    13    15   am
    15    15    16    1
    16    16    17   ar
    17    17    18   ar
    18    18    19   ar
    19    19    20    1
    20    20    21    2
    21    20    22   am
    22    22    23    1
    23    23    24   ar
    24    24    25   ar
    25    25    26   ar
    26    26    27   ar
    27    27    28   ar
    28    28    29   ar
    29    29    30   ar
    30    30    31   ar
    31    31    32   ar
    32    19    33   ar
    33    33    34   ar
    34    10    35   ar
    35    35    36   ar
    36    36     2   ar
    37    36     6   ar
    38    34    16   ar
    39    32    23   ar
    40    32    27   ar
    41     1    37    1
    42     1    38    1
    43     1    39    1
    44     3    40    1
    45     4    41    1
    46     5    42    1
    47     9    43    1
    48    11    44    1
    49    11    45    1
    50    12    46    1
    51    12    47    1
    52    15    48    1
    53    17    49    1
    54    18    50    1
    55    22    51    1
    56    24    52    1
    57    25    53    1
    58    26    54    1
    59    28    55    1
    60    29    56    1
    61    30    57    1
    62    33    58    1
    63    34    59    1
