@<TRIPOS>MOLECULE
*****
 37 39 0 0 0
SMALL
GASTEIGER

@<TRIPOS>ATOM
      1 O          -3.2339    2.3443    0.4302 O.3     1  UNL1       -0.5009
      2 C          -3.6940    1.0680    0.2438 C.ar    1  UNL1        0.2020
      3 C          -2.8731    0.0358    0.6345 C.ar    1  UNL1        0.0245
      4 C          -1.5538    0.1698    1.2474 C.2     1  UNL1       -0.0320
      5 C          -0.6026   -0.6214    0.7581 C.2     1  UNL1        0.0773
      6 S          -0.7093   -1.8478   -0.5718 S.3     1  UNL1       -0.0610
      7 C           1.0689   -1.9251   -0.8383 C.2     1  UNL1        0.1208
      8 S           1.5520   -2.5543   -2.2321 S.2     1  UNL1       -0.0272
      9 N           1.6455   -1.3709    0.3352 N.am    1  UNL1       -0.2509
     10 C           3.0889   -1.5670    0.5397 C.3     1  UNL1        0.0461
     11 C           3.8969   -0.4864   -0.0389 C.ar    1  UNL1       -0.0297
     12 C           4.1905    0.6306    0.7536 C.ar    1  UNL1       -0.0571
     13 C           4.9319    1.7236    0.3461 C.ar    1  UNL1       -0.0615
     14 C           5.4089    1.6986   -0.9316 C.ar    1  UNL1       -0.0617
     15 C           5.1664    0.6403   -1.7752 C.ar    1  UNL1       -0.0615
     16 C           4.4252   -0.4101   -1.3084 C.ar    1  UNL1       -0.0571
     17 C           0.7727   -0.6845    1.1797 C.2     1  UNL1        0.2586
     18 O           1.1582   -0.1393    2.2673 O.2     1  UNL1       -0.2690
     19 C          -3.3407   -1.2518    0.4459 C.ar    1  UNL1       -0.0506
     20 C          -4.5686   -1.5567   -0.1059 C.ar    1  UNL1       -0.0546
     21 C          -5.4093   -0.5435   -0.5055 C.ar    1  UNL1        0.0194
     22 C          -4.9136    0.7230   -0.3038 C.ar    1  UNL1        0.3146
     23 N          -5.7397    1.7959   -0.7082 N.pl3   1  UNL1        0.0834
     24 O          -6.1352    3.0189   -1.1386 O.co2   1  UNL1       -0.5759
     25 O          -6.9890    1.7155   -0.7596 O.2     1  UNL1        0.0416
     26 H          -3.5381    3.0913   -0.1528 H       1  UNL1        0.2924
     27 H          -1.3003    0.8553    2.0593 H       1  UNL1        0.0637
     28 H           3.3130   -1.5978    1.6446 H       1  UNL1        0.0518
     29 H           3.4473   -2.5323    0.1611 H       1  UNL1        0.0518
     30 H           3.8084    0.6536    1.7828 H       1  UNL1        0.0621
     31 H           5.0999    2.5416    1.0430 H       1  UNL1        0.0618
     32 H           6.0035    2.5381   -1.3096 H       1  UNL1        0.0618
     33 H           5.5171    0.5691   -2.7939 H       1  UNL1        0.0618
     34 H           4.2217   -1.2617   -1.9627 H       1  UNL1        0.0621
     35 H          -2.8047   -2.1531    0.7203 H       1  UNL1        0.0625
     36 H          -4.9331   -2.5833   -0.2518 H       1  UNL1        0.0620
     37 H          -6.3779   -0.7262   -0.9440 H       1  UNL1        0.0686
@<TRIPOS>UNITY_ATOM_ATTR
23 1
charge 1
24 1
charge -1
@<TRIPOS>BOND
     1     1     2    1
     2     2     3   ar
     3     3     4    1
     4     4     5    2
     5     5     6    1
     6     6     7    1
     7     7     8    2
     8     7     9    1
     9     9    10    1
    10    10    11    1
    11    11    12   ar
    12    12    13   ar
    13    13    14   ar
    14    14    15   ar
    15    15    16   ar
    16     9    17   am
    17    17    18    2
    18     3    19   ar
    19    19    20   ar
    20    20    21   ar
    21    21    22   ar
    22    22    23    1
    23    23    24    1
    24    23    25    2
    25    22     2   ar
    26    17     5    1
    27    16    11   ar
    28     1    26    1
    29     4    27    1
    30    10    28    1
    31    10    29    1
    32    12    30    1
    33    13    31    1
    34    14    32    1
    35    15    33    1
    36    16    34    1
    37    19    35    1
    38    20    36    1
    39    21    37    1
