
     RDKit          3D

 37 39  0  0  0  0  0  0  0  0999 V2000
   -3.2339    2.3443    0.4302 O   0  0  0  0  0  0  0  0  0  0  0  0
   -3.6940    1.0680    0.2438 C   0  0  0  0  0  0  0  0  0  0  0  0
   -2.8731    0.0358    0.6345 C   0  0  0  0  0  0  0  0  0  0  0  0
   -1.5538    0.1698    1.2474 C   0  0  0  0  0  0  0  0  0  0  0  0
   -0.6026   -0.6214    0.7581 C   0  0  0  0  0  0  0  0  0  0  0  0
   -0.7093   -1.8478   -0.5718 S   0  0  0  0  0  0  0  0  0  0  0  0
    1.0689   -1.9251   -0.8383 C   0  0  0  0  0  0  0  0  0  0  0  0
    1.5520   -2.5543   -2.2321 S   0  0  0  0  0  0  0  0  0  0  0  0
    1.6455   -1.3709    0.3352 N   0  0  0  0  0  0  0  0  0  0  0  0
    3.0889   -1.5670    0.5397 C   0  0  0  0  0  0  0  0  0  0  0  0
    3.8969   -0.4864   -0.0389 C   0  0  0  0  0  0  0  0  0  0  0  0
    4.1905    0.6306    0.7536 C   0  0  0  0  0  0  0  0  0  0  0  0
    4.9319    1.7236    0.3461 C   0  0  0  0  0  0  0  0  0  0  0  0
    5.4089    1.6986   -0.9316 C   0  0  0  0  0  0  0  0  0  0  0  0
    5.1664    0.6403   -1.7752 C   0  0  0  0  0  0  0  0  0  0  0  0
    4.4252   -0.4101   -1.3084 C   0  0  0  0  0  0  0  0  0  0  0  0
    0.7727   -0.6845    1.1797 C   0  0  0  0  0  0  0  0  0  0  0  0
    1.1582   -0.1393    2.2673 O   0  0  0  0  0  0  0  0  0  0  0  0
   -3.3407   -1.2518    0.4459 C   0  0  0  0  0  0  0  0  0  0  0  0
   -4.5686   -1.5567   -0.1059 C   0  0  0  0  0  0  0  0  0  0  0  0
   -5.4093   -0.5435   -0.5055 C   0  0  0  0  0  0  0  0  0  0  0  0
   -4.9136    0.7230   -0.3038 C   0  0  0  0  0  0  0  0  0  0  0  0
   -5.7397    1.7959   -0.7082 N   0  0  0  0  0  4  0  0  0  0  0  0
   -6.1352    3.0189   -1.1386 O   0  0  0  0  0  1  0  0  0  0  0  0
   -6.9890    1.7155   -0.7596 O   0  0  0  0  0  0  0  0  0  0  0  0
   -3.5381    3.0913   -0.1528 H   0  0  0  0  0  0  0  0  0  0  0  0
   -1.3003    0.8553    2.0593 H   0  0  0  0  0  0  0  0  0  0  0  0
    3.3130   -1.5978    1.6446 H   0  0  0  0  0  0  0  0  0  0  0  0
    3.4473   -2.5323    0.1611 H   0  0  0  0  0  0  0  0  0  0  0  0
    3.8084    0.6536    1.7828 H   0  0  0  0  0  0  0  0  0  0  0  0
    5.0999    2.5416    1.0430 H   0  0  0  0  0  0  0  0  0  0  0  0
    6.0035    2.5381   -1.3096 H   0  0  0  0  0  0  0  0  0  0  0  0
    5.5171    0.5691   -2.7939 H   0  0  0  0  0  0  0  0  0  0  0  0
    4.2217   -1.2617   -1.9627 H   0  0  0  0  0  0  0  0  0  0  0  0
   -2.8047   -2.1531    0.7203 H   0  0  0  0  0  0  0  0  0  0  0  0
   -4.9331   -2.5833   -0.2518 H   0  0  0  0  0  0  0  0  0  0  0  0
   -6.3779   -0.7262   -0.9440 H   0  0  0  0  0  0  0  0  0  0  0  0
  1  2  1  0
  2  3  2  0
  3  4  1  0
  4  5  2  0
  5  6  1  0
  6  7  1  0
  7  8  2  0
  7  9  1  0
  9 10  1  0
 10 11  1  0
 11 12  2  0
 12 13  1  0
 13 14  2  0
 14 15  1  0
 15 16  2  0
  9 17  1  0
 17 18  2  0
  3 19  1  0
 19 20  2  0
 20 21  1  0
 21 22  2  0
 22 23  1  0
 23 24  1  0
 23 25  2  0
 22  2  1  0
 17  5  1  0
 16 11  1  0
  1 26  1  0
  4 27  1  0
 10 28  1  0
 10 29  1  0
 12 30  1  0
 13 31  1  0
 14 32  1  0
 15 33  1  0
 16 34  1  0
 19 35  1  0
 20 36  1  0
 21 37  1  0
M  CHG  2  23   1  24  -1
M  END
$$$$
