@<TRIPOS>MOLECULE
*****
 40 43 0 0 0
SMALL
GASTEIGER

@<TRIPOS>ATOM
      1 F           3.0769   -2.3843    1.9437 F       1  UNL1       -0.2051
      2 C           1.7763   -2.3683    1.5033 C.ar    1  UNL1        0.1299
      3 C           1.0853   -3.5542    1.3729 C.ar    1  UNL1       -0.0240
      4 C          -0.2105   -3.4845    0.9302 C.ar    1  UNL1       -0.0315
      5 C          -0.8402   -2.2980    0.6153 C.ar    1  UNL1        0.0899
      6 N          -2.0624   -1.9525    0.1729 N.ar    1  UNL1       -0.2277
      7 C          -2.1513   -0.6219    0.0271 C.ar    1  UNL1        0.1393
      8 C          -3.3094    0.1616   -0.4335 C.ar    1  UNL1        0.0173
      9 C          -3.2239    1.5303   -0.5325 C.ar    1  UNL1       -0.0511
     10 C          -4.3283    2.2357   -0.9662 C.ar    1  UNL1       -0.0611
     11 C          -5.5239    1.6387   -1.3089 C.ar    1  UNL1       -0.0617
     12 C          -5.5790    0.2682   -1.1996 C.ar    1  UNL1       -0.0611
     13 C          -4.4941   -0.4452   -0.7717 C.ar    1  UNL1       -0.0511
     14 N          -0.9538   -0.1310    0.3887 N.ar    1  UNL1       -0.3376
     15 C          -0.1153   -1.1224    0.7579 C.ar    1  UNL1        0.0737
     16 C           1.1914   -1.1512    1.2009 C.ar    1  UNL1        0.0271
     17 C           1.9406    0.1231    1.3441 C.3     1  UNL1        0.0288
     18 N           2.8754    0.3078    0.2713 N.3     1  UNL1       -0.2980
     19 C           2.2655    0.3701   -1.0192 C.3     1  UNL1       -0.0007
     20 C           3.3116    0.9957   -1.9236 C.3     1  UNL1       -0.0390
     21 C           4.3213    1.6258   -0.9653 C.3     1  UNL1       -0.0390
     22 C           3.7504    1.4284    0.4264 C.3     1  UNL1       -0.0007
     23 H           1.5860   -4.4792    1.6208 H       1  UNL1        0.0647
     24 H          -0.7626   -4.4080    0.8242 H       1  UNL1        0.0640
     25 H          -2.3029    2.0698   -0.2760 H       1  UNL1        0.0625
     26 H          -4.2800    3.3060   -1.0500 H       1  UNL1        0.0618
     27 H          -6.3906    2.2249   -1.6523 H       1  UNL1        0.0618
     28 H          -6.5207   -0.2353   -1.4663 H       1  UNL1        0.0618
     29 H          -4.5312   -1.5372   -0.6824 H       1  UNL1        0.0625
     30 H          -0.7046    0.8799    0.3844 H       1  UNL1        0.1674
     31 H           2.3922    0.1816    2.3404 H       1  UNL1        0.0477
     32 H           1.2093    0.9807    1.2944 H       1  UNL1        0.0477
     33 H           1.9146   -0.6074   -1.3758 H       1  UNL1        0.0427
     34 H           1.3944    1.0815   -0.9336 H       1  UNL1        0.0427
     35 H           2.8538    1.8024   -2.5211 H       1  UNL1        0.0278
     36 H           3.8379    0.2306   -2.5434 H       1  UNL1        0.0278
     37 H           5.2916    1.0801   -1.0289 H       1  UNL1        0.0278
     38 H           4.4627    2.6986   -1.2011 H       1  UNL1        0.0278
     39 H           4.5784    1.2365    1.1458 H       1  UNL1        0.0427
     40 H           3.1690    2.3223    0.6697 H       1  UNL1        0.0427
@<TRIPOS>BOND
     1     1     2    1
     2     2     3   ar
     3     3     4   ar
     4     4     5   ar
     5     5     6   ar
     6     6     7   ar
     7     7     8    1
     8     8     9   ar
     9     9    10   ar
    10    10    11   ar
    11    11    12   ar
    12    12    13   ar
    13     7    14   ar
    14    14    15   ar
    15    15    16   ar
    16    16    17    1
    17    17    18    1
    18    18    19    1
    19    19    20    1
    20    20    21    1
    21    21    22    1
    22    16     2   ar
    23    22    18    1
    24    15     5   ar
    25    13     8   ar
    26     3    23    1
    27     4    24    1
    28     9    25    1
    29    10    26    1
    30    11    27    1
    31    12    28    1
    32    13    29    1
    33    14    30    1
    34    17    31    1
    35    17    32    1
    36    19    33    1
    37    19    34    1
    38    20    35    1
    39    20    36    1
    40    21    37    1
    41    21    38    1
    42    22    39    1
    43    22    40    1
