
     RDKit          3D

 44 43  0  0  0  0  0  0  0  0999 V2000
    0.8705   -0.1875   -0.1166 C   0  0  1  0  0  0  0  0  0  0  0  0
    1.6095    0.9960   -0.5557 N   0  0  0  0  0  0  0  0  0  0  0  0
    0.9741   -0.3959    1.3450 C   0  0  0  0  0  0  0  0  0  0  0  0
    2.3121   -0.6035    1.9309 C   0  0  0  0  0  0  0  0  0  0  0  0
    3.1069   -1.7688    1.4912 C   0  0  0  0  0  0  0  0  0  0  0  0
    3.4232   -1.7860    0.0878 N   0  0  0  0  0  0  0  0  0  0  0  0
    4.3284   -0.7938   -0.3701 C   0  0  0  0  0  0  0  0  0  0  0  0
    5.1581   -0.1205    0.3428 N   0  0  0  0  0  0  0  0  0  0  0  0
    4.3950   -0.4369   -1.7663 N   0  0  0  0  0  0  0  0  0  0  0  0
    4.9462    0.7027   -2.3509 N   0  0  0  0  0  0  0  0  0  0  0  0
    6.1403    0.9464   -3.0034 O   0  0  0  0  0  0  0  0  0  0  0  0
    4.5896    1.8909   -2.5033 O   0  0  0  0  0  0  0  0  0  0  0  0
   -0.5944    0.0220   -0.4460 C   0  0  0  0  0  0  0  0  0  0  0  0
   -0.7629    0.1980   -1.8279 O   0  0  0  0  0  0  0  0  0  0  0  0
   -1.4635    0.0211    0.4653 N   0  0  0  0  0  0  0  0  0  0  0  0
   -2.8666    0.1871    0.4559 C   0  0  1  0  0  0  0  0  0  0  0  0
   -3.3430    1.5482    0.0265 C   0  0  0  0  0  0  0  0  0  0  0  0
   -4.8215    1.7287    0.0340 C   0  0  0  0  0  0  0  0  0  0  0  0
   -5.4068    1.5302    1.3512 N   0  0  0  0  0  0  0  0  0  0  0  0
   -3.4055   -0.8672   -0.4886 C   0  0  0  0  0  0  0  0  0  0  0  0
   -3.0199   -2.0980    0.0742 O   0  0  0  0  0  0  0  0  0  0  0  0
   -4.0671   -1.1049   -1.5893 N   0  0  0  0  0  0  0  0  0  0  0  0
    1.1507   -1.0743   -0.7104 H   0  0  0  0  0  0  0  0  0  0  0  0
    1.7272    1.5856    0.3093 H   0  0  0  0  0  0  0  0  0  0  0  0
    1.0489    1.4529   -1.2979 H   0  0  0  0  0  0  0  0  0  0  0  0
    0.2524   -1.2275    1.6058 H   0  0  0  0  0  0  0  0  0  0  0  0
    0.5652    0.5443    1.8282 H   0  0  0  0  0  0  0  0  0  0  0  0
    2.1662   -0.6750    3.0502 H   0  0  0  0  0  0  0  0  0  0  0  0
    2.9375    0.3232    1.8180 H   0  0  0  0  0  0  0  0  0  0  0  0
    2.6239   -2.7157    1.8159 H   0  0  0  0  0  0  0  0  0  0  0  0
    4.1100   -1.7171    2.0120 H   0  0  0  0  0  0  0  0  0  0  0  0
    3.0988   -2.4234   -0.6800 H   0  0  0  0  0  0  0  0  0  0  0  0
    5.2955   -0.1983    1.3684 H   0  0  0  0  0  0  0  0  0  0  0  0
    3.9879   -1.0846   -2.4973 H   0  0  0  0  0  0  0  0  0  0  0  0
   -1.7070    0.2235   -2.1883 H   0  0  0  0  0  0  0  0  0  0  0  0
   -3.3476   -0.0002    1.4439 H   0  0  0  0  0  0  0  0  0  0  0  0
   -2.9798    1.8233   -0.9867 H   0  0  0  0  0  0  0  0  0  0  0  0
   -2.9039    2.3163    0.7067 H   0  0  0  0  0  0  0  0  0  0  0  0
   -5.3661    1.1518   -0.7068 H   0  0  0  0  0  0  0  0  0  0  0  0
   -5.0111    2.8086   -0.2200 H   0  0  0  0  0  0  0  0  0  0  0  0
   -5.7590    0.5326    1.3611 H   0  0  0  0  0  0  0  0  0  0  0  0
   -6.2358    2.1558    1.4583 H   0  0  0  0  0  0  0  0  0  0  0  0
   -3.2844   -2.9921   -0.3085 H   0  0  0  0  0  0  0  0  0  0  0  0
   -4.4724   -0.4178   -2.2180 H   0  0  0  0  0  0  0  0  0  0  0  0
  1  2  1  0
  1  3  1  0
  3  4  1  0
  4  5  1  0
  5  6  1  0
  6  7  1  0
  7  8  2  3
  7  9  1  0
  9 10  1  0
 10 11  1  0
 10 12  2  0
  1 13  1  0
 13 14  1  0
 13 15  2  3
 15 16  1  0
 16 17  1  0
 17 18  1  0
 18 19  1  0
 16 20  1  0
 20 21  1  0
 20 22  2  3
  1 23  1  6
  2 24  1  0
  2 25  1  0
  3 26  1  0
  3 27  1  0
  4 28  1  0
  4 29  1  0
  5 30  1  0
  5 31  1  0
  6 32  1  0
  8 33  1  0
  9 34  1  0
 14 35  1  0
 16 36  1  1
 17 37  1  0
 17 38  1  0
 18 39  1  0
 18 40  1  0
 19 41  1  0
 19 42  1  0
 21 43  1  0
 22 44  1  0
M  CHG  2  10   1  11  -1
M  END
$$$$
