
     RDKit          3D

 30 32  0  0  0  0  0  0  0  0999 V2000
   -1.6792    2.7889    0.7379 O   0  0  0  0  0  0  0  0  0  0  0  0
   -1.0812    1.7001    0.5545 C   0  0  0  0  0  0  0  0  0  0  0  0
    0.2996    1.5980    0.4034 C   0  0  0  0  0  0  0  0  0  0  0  0
    0.9411    0.4098    0.2044 C   0  0  0  0  0  0  0  0  0  0  0  0
    2.3997    0.3092    0.0456 C   0  0  0  0  0  0  0  0  0  0  0  0
    2.9951   -0.9225   -0.1536 C   0  0  0  0  0  0  0  0  0  0  0  0
    4.3595   -1.0178   -0.3023 C   0  0  0  0  0  0  0  0  0  0  0  0
    5.1680    0.1075   -0.2571 C   0  0  0  0  0  0  0  0  0  0  0  0
    4.6008    1.3378   -0.0609 C   0  0  0  0  0  0  0  0  0  0  0  0
    3.2262    1.4004    0.0852 C   0  0  0  0  0  0  0  0  0  0  0  0
    0.1905   -0.6791    0.1574 O   0  0  0  0  0  0  0  0  0  0  0  0
   -1.1102   -0.6612    0.2910 C   0  0  0  0  0  0  0  0  0  0  0  0
   -1.8430   -1.8385    0.2322 C   0  0  0  0  0  0  0  0  0  0  0  0
   -3.1975   -1.8723    0.3654 C   0  0  0  0  0  0  0  0  0  0  0  0
   -3.9434   -3.0498    0.3079 O   0  0  0  0  0  0  0  0  0  0  0  0
   -3.8551   -0.6775    0.5667 C   0  0  0  0  0  0  0  0  0  0  0  0
   -5.2536   -0.6800    0.7078 O   0  0  0  0  0  0  0  0  0  0  0  0
   -3.1654    0.5125    0.6312 C   0  0  0  0  0  0  0  0  0  0  0  0
   -3.7958    1.7273    0.8321 O   0  0  0  0  0  0  0  0  0  0  0  0
   -1.7903    0.5221    0.4933 C   0  0  0  0  0  0  0  0  0  0  0  0
    0.8427    2.5330    0.4540 H   0  0  0  0  0  0  0  0  0  0  0  0
    2.3320   -1.7874   -0.1842 H   0  0  0  0  0  0  0  0  0  0  0  0
    4.8247   -1.9808   -0.4580 H   0  0  0  0  0  0  0  0  0  0  0  0
    6.2419    0.0391   -0.3734 H   0  0  0  0  0  0  0  0  0  0  0  0
    5.2320    2.2184   -0.0253 H   0  0  0  0  0  0  0  0  0  0  0  0
    2.8096    2.3837    0.2383 H   0  0  0  0  0  0  0  0  0  0  0  0
   -1.3258   -2.7882    0.0728 H   0  0  0  0  0  0  0  0  0  0  0  0
   -4.6949   -3.2234    0.9639 H   0  0  0  0  0  0  0  0  0  0  0  0
   -5.8103   -0.8499   -0.1015 H   0  0  0  0  0  0  0  0  0  0  0  0
   -3.9181    2.4404    0.1451 H   0  0  0  0  0  0  0  0  0  0  0  0
  1  2  2  0
  2  3  1  0
  3  4  2  0
  4  5  1  0
  5  6  2  0
  6  7  1  0
  7  8  2  0
  8  9  1  0
  9 10  2  0
  4 11  1  0
 11 12  1  0
 12 13  2  0
 13 14  1  0
 14 15  1  0
 14 16  2  0
 16 17  1  0
 16 18  1  0
 18 19  1  0
 18 20  2  0
 20  2  1  0
 10  5  1  0
 20 12  1  0
  3 21  1  0
  6 22  1  0
  7 23  1  0
  8 24  1  0
  9 25  1  0
 10 26  1  0
 13 27  1  0
 15 28  1  0
 17 29  1  0
 19 30  1  0
M  END
$$$$
