@<TRIPOS>MOLECULE
*****
 30 32 0 0 0
SMALL
GASTEIGER

@<TRIPOS>ATOM
      1 O          -1.6792    2.7889    0.7379 O.2     1  UNL1       -0.2869
      2 C          -1.0812    1.7001    0.5545 C.ar    1  UNL1        0.1967
      3 C           0.2996    1.5980    0.4034 C.ar    1  UNL1        0.0288
      4 C           0.9411    0.4098    0.2044 C.ar    1  UNL1        0.1392
      5 C           2.3997    0.3092    0.0456 C.ar    1  UNL1        0.0174
      6 C           2.9951   -0.9225   -0.1536 C.ar    1  UNL1       -0.0511
      7 C           4.3595   -1.0178   -0.3023 C.ar    1  UNL1       -0.0611
      8 C           5.1680    0.1075   -0.2571 C.ar    1  UNL1       -0.0617
      9 C           4.6008    1.3378   -0.0609 C.ar    1  UNL1       -0.0611
     10 C           3.2262    1.4004    0.0852 C.ar    1  UNL1       -0.0511
     11 O           0.1905   -0.6791    0.1574 O.2     1  UNL1       -0.4544
     12 C          -1.1102   -0.6612    0.2910 C.ar    1  UNL1        0.1465
     13 C          -1.8430   -1.8385    0.2322 C.ar    1  UNL1        0.0268
     14 C          -3.1975   -1.8723    0.3654 C.ar    1  UNL1        0.1655
     15 O          -3.9434   -3.0498    0.3079 O.3     1  UNL1       -0.5031
     16 C          -3.8551   -0.6775    0.5667 C.ar    1  UNL1        0.2015
     17 O          -5.2536   -0.6800    0.7078 O.3     1  UNL1       -0.5009
     18 C          -3.1654    0.5125    0.6312 C.ar    1  UNL1        0.1766
     19 O          -3.7958    1.7273    0.8321 O.3     1  UNL1       -0.5027
     20 C          -1.7903    0.5221    0.4933 C.ar    1  UNL1        0.1091
     21 H           0.8427    2.5330    0.4540 H       1  UNL1        0.0693
     22 H           2.3320   -1.7874   -0.1842 H       1  UNL1        0.0625
     23 H           4.8247   -1.9808   -0.4580 H       1  UNL1        0.0618
     24 H           6.2419    0.0391   -0.3734 H       1  UNL1        0.0618
     25 H           5.2320    2.2184   -0.0253 H       1  UNL1        0.0618
     26 H           2.8096    2.3837    0.2383 H       1  UNL1        0.0625
     27 H          -1.3258   -2.7882    0.0728 H       1  UNL1        0.0692
     28 H          -4.6949   -3.2234    0.9639 H       1  UNL1        0.2923
     29 H          -5.8103   -0.8499   -0.1015 H       1  UNL1        0.2924
     30 H          -3.9181    2.4404    0.1451 H       1  UNL1        0.2923
@<TRIPOS>BOND
     1     1     2    2
     2     2     3   ar
     3     3     4   ar
     4     4     5    1
     5     5     6   ar
     6     6     7   ar
     7     7     8   ar
     8     8     9   ar
     9     9    10   ar
    10     4    11   ar
    11    11    12   ar
    12    12    13   ar
    13    13    14   ar
    14    14    15    1
    15    14    16   ar
    16    16    17    1
    17    16    18   ar
    18    18    19    1
    19    18    20   ar
    20    20     2   ar
    21    10     5   ar
    22    20    12   ar
    23     3    21    1
    24     6    22    1
    25     7    23    1
    26     8    24    1
    27     9    25    1
    28    10    26    1
    29    13    27    1
    30    15    28    1
    31    17    29    1
    32    19    30    1
