@<TRIPOS>MOLECULE
*****
 36 37 0 0 0
SMALL
GASTEIGER

@<TRIPOS>ATOM
      1 O          -5.5934    2.2810   -2.5223 O.2     1  UNL1       -0.2451
      2 C          -5.7300    1.7801   -1.3833 C.2     1  UNL1        0.3369
      3 O          -6.8773    2.0293   -0.6833 O.3     1  UNL1       -0.4771
      4 C          -4.6349    0.9475   -0.8677 C.ar    1  UNL1        0.0627
      5 C          -3.4921    0.7183   -1.6026 C.ar    1  UNL1       -0.0415
      6 C          -2.4752   -0.0667   -1.1002 C.ar    1  UNL1        0.0137
      7 C          -2.5413   -0.6579    0.1449 C.ar    1  UNL1        0.2745
      8 S          -1.2323   -1.6545    0.7638 S.3     1  UNL1        0.0750
      9 O          -1.7462   -3.0537    1.0752 O.2     1  UNL1       -0.0016
     10 O          -0.5974   -1.0481    2.1759 O.co2   1  UNL1       -0.5317
     11 O          -0.0013   -1.8204   -0.3679 O.3     1  UNL1       -0.2511
     12 C           1.2835   -1.3283   -0.1957 C.ar    1  UNL1        0.1992
     13 C           1.5752   -0.0569   -0.6210 C.ar    1  UNL1       -0.0123
     14 C           2.8783    0.3998   -0.4294 C.ar    1  UNL1       -0.0507
     15 C           3.8466   -0.3748    0.1591 C.ar    1  UNL1       -0.0190
     16 C           5.2160    0.1125    0.3576 C.2     1  UNL1        0.0150
     17 C           5.6607    1.2834    0.0166 C.2     1  UNL1        0.2387
     18 N           7.0290    1.6732    0.2538 N.pl3   1  UNL1        0.0719
     19 O           7.9824    1.0165   -0.1813 O.2     1  UNL1        0.0408
     20 O           7.2982    2.8014    0.9805 O.co2   1  UNL1       -0.5765
     21 C           3.4935   -1.6449    0.5663 C.ar    1  UNL1       -0.0507
     22 C           2.2294   -2.1295    0.3970 C.ar    1  UNL1       -0.0123
     23 C          -3.6859   -0.4272    0.8786 C.ar    1  UNL1        0.1889
     24 O          -3.7900   -1.0058    2.1385 O.3     1  UNL1       -0.5015
     25 C          -4.7037    0.3582    0.3765 C.ar    1  UNL1        0.0001
     26 H          -7.7652    2.3157   -1.1136 H       1  UNL1        0.2954
     27 H          -3.4072    1.1723   -2.5943 H       1  UNL1        0.0628
     28 H          -1.5590   -0.2564   -1.6775 H       1  UNL1        0.0682
     29 H           0.8754    0.6098   -1.0891 H       1  UNL1        0.0657
     30 H           3.1271    1.3957   -0.7567 H       1  UNL1        0.0625
     31 H           5.9446   -0.5604    0.8365 H       1  UNL1        0.0685
     32 H           5.0026    1.9886   -0.4550 H       1  UNL1        0.1439
     33 H           4.2408   -2.2664    1.0299 H       1  UNL1        0.0625
     34 H           1.9592   -3.1508    0.7283 H       1  UNL1        0.0657
     35 H          -4.2040   -1.9224    2.2439 H       1  UNL1        0.2924
     36 H          -5.6059    0.5420    0.9511 H       1  UNL1        0.0664
@<TRIPOS>UNITY_ATOM_ATTR
8 1
charge 1
10 1
charge -1
18 1
charge 1
20 1
charge -1
@<TRIPOS>BOND
     1     1     2    2
     2     2     3    1
     3     2     4    1
     4     4     5   ar
     5     5     6   ar
     6     6     7   ar
     7     7     8    1
     8     8     9    2
     9     8    10    1
    10     8    11    1
    11    11    12    1
    12    12    13   ar
    13    13    14   ar
    14    14    15   ar
    15    15    16    1
    16    16    17    2
    17    17    18    1
    18    18    19    2
    19    18    20    1
    20    15    21   ar
    21    21    22   ar
    22     7    23   ar
    23    23    24    1
    24    23    25   ar
    25    25     4   ar
    26    22    12   ar
    27     3    26    1
    28     5    27    1
    29     6    28    1
    30    13    29    1
    31    14    30    1
    32    16    31    1
    33    17    32    1
    34    21    33    1
    35    22    34    1
    36    24    35    1
    37    25    36    1
