@<TRIPOS>MOLECULE
*****
 18 18 0 0 0
SMALL
GASTEIGER

@<TRIPOS>ATOM
      1 N          -2.4608    0.0459   -0.3975 N.4     1  UNL1        0.2218
      2 C          -1.5630   -0.3218    0.6756 C.3     1  UNL1       -0.0094
      3 C          -0.1504   -0.0361    0.3543 C.ar    1  UNL1       -0.0029
      4 C           0.5439    1.1303    0.6046 C.ar    1  UNL1       -0.0508
      5 C           1.8724    1.2633    0.2484 C.ar    1  UNL1       -0.0260
      6 C           2.4993    0.1774   -0.3767 C.ar    1  UNL1        0.1234
      7 F           3.8147    0.2869   -0.7383 F       1  UNL1       -0.2055
      8 C           1.8273   -1.0055   -0.6405 C.ar    1  UNL1       -0.0260
      9 C           0.5013   -1.0854   -0.2639 C.ar    1  UNL1       -0.0508
     10 H          -2.9303   -0.8177   -0.7623 H       1  UNL1        0.1997
     11 H          -3.2248    0.6598   -0.0360 H       1  UNL1        0.1997
     12 H          -1.9648    0.5529   -1.1492 H       1  UNL1        0.1997
     13 H          -1.8210    0.2965    1.5804 H       1  UNL1        0.0866
     14 H          -1.7064   -1.3780    0.9863 H       1  UNL1        0.0866
     15 H          -0.0278    1.9124    1.0919 H       1  UNL1        0.0623
     16 H           2.3913    2.1895    0.4571 H       1  UNL1        0.0646
     17 H           2.3589   -1.8291   -1.1319 H       1  UNL1        0.0646
     18 H           0.0403   -2.0413   -0.5023 H       1  UNL1        0.0623
@<TRIPOS>UNITY_ATOM_ATTR
1 1
charge 1
@<TRIPOS>BOND
     1     1     2    1
     2     2     3    1
     3     3     4   ar
     4     4     5   ar
     5     5     6   ar
     6     6     7    1
     7     6     8   ar
     8     8     9   ar
     9     9     3   ar
    10     1    10    1
    11     1    11    1
    12     1    12    1
    13     2    13    1
    14     2    14    1
    15     4    15    1
    16     5    16    1
    17     8    17    1
    18     9    18    1
