@<TRIPOS>MOLECULE
*****
 30 31 0 0 0
SMALL
GASTEIGER

@<TRIPOS>ATOM
      1 C          -2.3829   -2.3565    0.1586 C.3     1  UNL1       -0.0598
      2 C          -1.0425   -1.6724    0.0307 C.3     1  UNL1       -0.0124
      3 C          -1.2464   -0.2054    0.1022 C.ar    1  UNL1        0.0556
      4 N          -2.4603    0.3573    0.2569 N.ar    1  UNL1       -0.2190
      5 C          -2.6510    1.6875    0.3224 C.ar    1  UNL1        0.2145
      6 N          -3.9418    2.2628    0.4862 N.pl3   1  UNL1       -0.3274
      7 N          -1.5661    2.4795    0.2270 N.ar    1  UNL1       -0.1995
      8 C          -0.3352    1.9588    0.0718 C.ar    1  UNL1        0.1293
      9 N           0.8359    2.7838   -0.0322 N.pl3   1  UNL1       -0.3425
     10 C          -0.1274    0.5959    0.0033 C.ar    1  UNL1        0.0430
     11 C           1.1989    0.0124   -0.1648 C.ar    1  UNL1       -0.0128
     12 C           1.7580   -0.2518   -1.3959 C.ar    1  UNL1       -0.0528
     13 C           3.0114   -0.8026   -1.5147 C.ar    1  UNL1       -0.0472
     14 C           3.7223   -1.0960   -0.3741 C.ar    1  UNL1        0.0179
     15 BR          5.4781   -1.8669   -0.4972 Br      1  UNL1       -0.0503
     16 C           3.2006   -0.8478    0.8771 C.ar    1  UNL1       -0.0472
     17 C           1.9434   -0.2960    0.9503 C.ar    1  UNL1       -0.0528
     18 H          -2.4462   -3.2006   -0.5551 H       1  UNL1        0.0233
     19 H          -3.2124   -1.6413    0.0854 H       1  UNL1        0.0233
     20 H          -2.4557   -2.8172    1.1748 H       1  UNL1        0.0233
     21 H          -0.6501   -1.8843   -0.9979 H       1  UNL1        0.0326
     22 H          -0.3211   -2.0591    0.7490 H       1  UNL1        0.0326
     23 H          -4.6169    2.4167   -0.2895 H       1  UNL1        0.1452
     24 H          -4.2456    2.5545    1.4406 H       1  UNL1        0.1452
     25 H           1.6683    2.5150    0.5532 H       1  UNL1        0.1437
     26 H           0.8779    3.6119   -0.6515 H       1  UNL1        0.1437
     27 H           1.1996   -0.0211   -2.2716 H       1  UNL1        0.0624
     28 H           3.4686   -1.0178   -2.4656 H       1  UNL1        0.0629
     29 H           3.7902   -1.0920    1.7641 H       1  UNL1        0.0629
     30 H           1.5484   -0.1072    1.9564 H       1  UNL1        0.0624
@<TRIPOS>BOND
     1     1     2    1
     2     2     3    1
     3     3     4   ar
     4     4     5   ar
     5     5     6    1
     6     5     7   ar
     7     7     8   ar
     8     8     9    1
     9     8    10   ar
    10    10    11    1
    11    11    12   ar
    12    12    13   ar
    13    13    14   ar
    14    14    15    1
    15    14    16   ar
    16    16    17   ar
    17    10     3   ar
    18    17    11   ar
    19     1    18    1
    20     1    19    1
    21     1    20    1
    22     2    21    1
    23     2    22    1
    24     6    23    1
    25     6    24    1
    26     9    25    1
    27     9    26    1
    28    12    27    1
    29    13    28    1
    30    16    29    1
    31    17    30    1
