
     RDKit          3D

 30 31  0  0  0  0  0  0  0  0999 V2000
   -2.3829   -2.3565    0.1586 C   0  0  0  0  0  0  0  0  0  0  0  0
   -1.0425   -1.6724    0.0307 C   0  0  0  0  0  0  0  0  0  0  0  0
   -1.2464   -0.2054    0.1022 C   0  0  0  0  0  0  0  0  0  0  0  0
   -2.4603    0.3573    0.2569 N   0  0  0  0  0  0  0  0  0  0  0  0
   -2.6510    1.6875    0.3224 C   0  0  0  0  0  0  0  0  0  0  0  0
   -3.9418    2.2628    0.4862 N   0  0  0  0  0  0  0  0  0  0  0  0
   -1.5661    2.4795    0.2270 N   0  0  0  0  0  0  0  0  0  0  0  0
   -0.3352    1.9588    0.0718 C   0  0  0  0  0  0  0  0  0  0  0  0
    0.8359    2.7838   -0.0322 N   0  0  0  0  0  0  0  0  0  0  0  0
   -0.1274    0.5959    0.0033 C   0  0  0  0  0  0  0  0  0  0  0  0
    1.1989    0.0124   -0.1648 C   0  0  0  0  0  0  0  0  0  0  0  0
    1.7580   -0.2518   -1.3959 C   0  0  0  0  0  0  0  0  0  0  0  0
    3.0114   -0.8026   -1.5147 C   0  0  0  0  0  0  0  0  0  0  0  0
    3.7223   -1.0960   -0.3741 C   0  0  0  0  0  0  0  0  0  0  0  0
    5.4781   -1.8669   -0.4972 Br  0  0  0  0  0  0  0  0  0  0  0  0
    3.2006   -0.8478    0.8771 C   0  0  0  0  0  0  0  0  0  0  0  0
    1.9434   -0.2960    0.9503 C   0  0  0  0  0  0  0  0  0  0  0  0
   -2.4462   -3.2006   -0.5551 H   0  0  0  0  0  0  0  0  0  0  0  0
   -3.2124   -1.6413    0.0854 H   0  0  0  0  0  0  0  0  0  0  0  0
   -2.4557   -2.8172    1.1748 H   0  0  0  0  0  0  0  0  0  0  0  0
   -0.6501   -1.8843   -0.9979 H   0  0  0  0  0  0  0  0  0  0  0  0
   -0.3211   -2.0591    0.7490 H   0  0  0  0  0  0  0  0  0  0  0  0
   -4.6169    2.4167   -0.2895 H   0  0  0  0  0  0  0  0  0  0  0  0
   -4.2456    2.5545    1.4406 H   0  0  0  0  0  0  0  0  0  0  0  0
    1.6683    2.5150    0.5532 H   0  0  0  0  0  0  0  0  0  0  0  0
    0.8779    3.6119   -0.6515 H   0  0  0  0  0  0  0  0  0  0  0  0
    1.1996   -0.0211   -2.2716 H   0  0  0  0  0  0  0  0  0  0  0  0
    3.4686   -1.0178   -2.4656 H   0  0  0  0  0  0  0  0  0  0  0  0
    3.7902   -1.0920    1.7641 H   0  0  0  0  0  0  0  0  0  0  0  0
    1.5484   -0.1072    1.9564 H   0  0  0  0  0  0  0  0  0  0  0  0
  1  2  1  0
  2  3  1  0
  3  4  2  0
  4  5  1  0
  5  6  1  0
  5  7  2  0
  7  8  1  0
  8  9  1  0
  8 10  2  0
 10 11  1  0
 11 12  2  0
 12 13  1  0
 13 14  2  0
 14 15  1  0
 14 16  1  0
 16 17  2  0
 10  3  1  0
 17 11  1  0
  1 18  1  0
  1 19  1  0
  1 20  1  0
  2 21  1  0
  2 22  1  0
  6 23  1  0
  6 24  1  0
  9 25  1  0
  9 26  1  0
 12 27  1  0
 13 28  1  0
 16 29  1  0
 17 30  1  0
M  END
$$$$
