@<TRIPOS>MOLECULE
*****
 62 65 0 0 0
SMALL
GASTEIGER

@<TRIPOS>ATOM
      1 C          -5.2795    6.0142    2.3059 C.3     1  UNL1       -0.0306
      2 C          -5.4466    5.9571    0.8097 C.3     1  UNL1        0.0900
      3 O          -4.6570    4.8752    0.3281 O.3     1  UNL1       -0.4603
      4 C          -4.9333    3.6029    0.7893 C.2     1  UNL1        0.3595
      5 O          -5.8653    3.4478    1.6118 O.2     1  UNL1       -0.2432
      6 C          -4.1692    2.4451    0.3424 C.ar    1  UNL1        0.1702
      7 C          -3.1148    2.4767   -0.5626 C.ar    1  UNL1       -0.0015
      8 C          -2.6308    1.1993   -0.7503 C.ar    1  UNL1        0.0755
      9 C          -1.5323    0.7853   -1.6147 C.ar    1  UNL1        0.0040
     10 C          -1.4268    1.2768   -2.9141 C.ar    1  UNL1       -0.0523
     11 C          -0.4053    0.9049   -3.7525 C.ar    1  UNL1       -0.0577
     12 C           0.5455    0.0354   -3.3348 C.ar    1  UNL1       -0.0191
     13 C           0.4902   -0.4871   -2.0473 C.ar    1  UNL1        0.1339
     14 O           1.4775   -1.3781   -1.6414 O.3     1  UNL1       -0.4115
     15 C           2.6311   -0.9028   -1.0484 C.2     1  UNL1        0.4058
     16 O           2.7472    0.3379   -0.8952 O.2     1  UNL1       -0.2260
     17 N           3.6878   -1.7348   -0.6046 N.am    1  UNL1       -0.2779
     18 C           4.8535   -1.1214    0.0046 C.3     1  UNL1        0.0263
     19 C           6.0789   -1.4061   -0.8752 C.3     1  UNL1       -0.0344
     20 C           7.1517   -0.4131   -0.4816 C.3     1  UNL1       -0.0514
     21 C           7.2681   -0.3516    1.0183 C.3     1  UNL1       -0.0529
     22 C           6.5892   -1.5278    1.6854 C.3     1  UNL1       -0.0514
     23 C           5.1408   -1.6616    1.3648 C.3     1  UNL1       -0.0344
     24 C          -0.5438   -0.0969   -1.2303 C.ar    1  UNL1       -0.0100
     25 N          -3.4018    0.4214    0.0446 N.ar    1  UNL1       -0.2313
     26 C          -3.2862   -0.9970    0.1959 C.ar    1  UNL1        0.0661
     27 C          -3.6480   -1.8741   -0.8060 C.ar    1  UNL1       -0.0360
     28 C          -3.5347   -3.2480   -0.6557 C.ar    1  UNL1       -0.0568
     29 C          -3.0499   -3.7896    0.5166 C.ar    1  UNL1       -0.0503
     30 C          -2.9200   -5.2674    0.6984 C.3     1  UNL1       -0.0397
     31 C          -2.6871   -2.9168    1.5210 C.ar    1  UNL1       -0.0568
     32 C          -2.8023   -1.5446    1.3658 C.ar    1  UNL1       -0.0360
     33 N          -4.2976    1.1597    0.6787 N.ar    1  UNL1       -0.1592
     34 H          -6.2859    5.8735    2.7700 H       1  UNL1        0.0262
     35 H          -4.5869    5.2397    2.6792 H       1  UNL1        0.0262
     36 H          -4.8660    7.0057    2.6386 H       1  UNL1        0.0262
     37 H          -5.1589    6.9127    0.3339 H       1  UNL1        0.0695
     38 H          -6.5039    5.6961    0.5309 H       1  UNL1        0.0695
     39 H          -2.7363    3.3678   -1.0429 H       1  UNL1        0.0663
     40 H          -2.2123    1.9770   -3.2171 H       1  UNL1        0.0624
     41 H          -0.3697    1.3131   -4.7460 H       1  UNL1        0.0619
     42 H           1.3857   -0.2962   -3.9659 H       1  UNL1        0.0654
     43 H           3.6281   -2.7690   -0.7140 H       1  UNL1        0.1523
     44 H           4.7755   -0.0306    0.0569 H       1  UNL1        0.0499
     45 H           6.4206   -2.4416   -0.6882 H       1  UNL1        0.0283
     46 H           5.8458   -1.2835   -1.9436 H       1  UNL1        0.0283
     47 H           8.1220   -0.6604   -0.9339 H       1  UNL1        0.0266
     48 H           6.8608    0.5966   -0.8488 H       1  UNL1        0.0266
     49 H           6.8887    0.6270    1.4178 H       1  UNL1        0.0265
     50 H           8.3413   -0.4002    1.2801 H       1  UNL1        0.0265
     51 H           6.7505   -1.4069    2.7867 H       1  UNL1        0.0266
     52 H           7.1944   -2.4355    1.4017 H       1  UNL1        0.0266
     53 H           4.4918   -1.2221    2.1505 H       1  UNL1        0.0283
     54 H           4.8818   -2.7598    1.3435 H       1  UNL1        0.0283
     55 H          -0.5859   -0.5045   -0.2272 H       1  UNL1        0.0661
     56 H          -4.0287   -1.4572   -1.7275 H       1  UNL1        0.0639
     57 H          -3.8181   -3.9361   -1.4407 H       1  UNL1        0.0621
     58 H          -1.9080   -5.6180    0.4358 H       1  UNL1        0.0278
     59 H          -3.6368   -5.8343    0.0955 H       1  UNL1        0.0278
     60 H          -3.0990   -5.5538    1.7625 H       1  UNL1        0.0278
     61 H          -2.3033   -3.3575    2.4485 H       1  UNL1        0.0621
     62 H          -2.5159   -0.8628    2.1573 H       1  UNL1        0.0639
@<TRIPOS>BOND
     1     1     2    1
     2     2     3    1
     3     3     4    1
     4     4     5    2
     5     4     6    1
     6     6     7   ar
     7     7     8   ar
     8     8     9    1
     9     9    10   ar
    10    10    11   ar
    11    11    12   ar
    12    12    13   ar
    13    13    14    1
    14    14    15    1
    15    15    16    2
    16    15    17   am
    17    17    18    1
    18    18    19    1
    19    19    20    1
    20    20    21    1
    21    21    22    1
    22    22    23    1
    23    13    24   ar
    24     8    25   ar
    25    25    26    1
    26    26    27   ar
    27    27    28   ar
    28    28    29   ar
    29    29    30    1
    30    29    31   ar
    31    31    32   ar
    32    25    33   ar
    33    33     6   ar
    34    24     9   ar
    35    32    26   ar
    36    23    18    1
    37     1    34    1
    38     1    35    1
    39     1    36    1
    40     2    37    1
    41     2    38    1
    42     7    39    1
    43    10    40    1
    44    11    41    1
    45    12    42    1
    46    17    43    1
    47    18    44    1
    48    19    45    1
    49    19    46    1
    50    20    47    1
    51    20    48    1
    52    21    49    1
    53    21    50    1
    54    22    51    1
    55    22    52    1
    56    23    53    1
    57    23    54    1
    58    24    55    1
    59    27    56    1
    60    28    57    1
    61    30    58    1
    62    30    59    1
    63    30    60    1
    64    31    61    1
    65    32    62    1
