
     RDKit          3D

 95101  0  0  0  0  0  0  0  0999 V2000
    6.5913   -0.2659   -6.4471 C   0  0  0  0  0  0  0  0  0  0  0  0
    7.2957    0.0051   -5.2405 O   0  0  0  0  0  0  0  0  0  0  0  0
    6.6067   -0.0936   -4.0277 C   0  0  0  0  0  0  0  0  0  0  0  0
    5.2842   -0.4395   -3.9668 C   0  0  0  0  0  0  0  0  0  0  0  0
    4.6187   -0.5292   -2.7282 C   0  0  0  0  0  0  0  0  0  0  0  0
    3.2706   -0.9142   -2.7257 N   0  0  0  0  0  0  0  0  0  0  0  0
    2.3742   -0.5492   -1.7112 C   0  0  0  0  0  0  0  0  0  0  0  0
    2.6313    0.2894   -0.7061 N   0  0  0  0  0  0  0  0  0  0  0  0
    1.7105    0.5836    0.2149 C   0  0  0  0  0  0  0  0  0  0  0  0
    0.4448    0.0291    0.1670 C   0  0  0  0  0  0  0  0  0  0  0  0
    0.1750   -0.8427   -0.8755 C   0  0  0  0  0  0  0  0  0  0  0  0
   -1.0579   -1.4747   -1.0374 O   0  0  0  0  0  0  0  0  0  0  0  0
   -2.1483   -1.2675   -0.2472 C   0  0  0  0  0  0  0  0  0  0  0  0
   -2.6160   -2.3299    0.5370 C   0  0  0  0  0  0  0  0  0  0  0  0
   -3.7228   -2.1556    1.3480 C   0  0  0  0  0  0  0  0  0  0  0  0
   -4.3866   -0.9543    1.4077 C   0  0  0  0  0  0  0  0  0  0  0  0
   -5.5122   -0.7977    2.2486 N   0  0  0  0  0  0  0  0  0  0  0  0
   -6.7911   -1.1954    1.7787 C   0  0  0  0  0  0  0  0  0  0  0  0
   -6.9090   -1.7101    0.6160 O   0  0  0  0  0  0  0  0  0  0  0  0
   -7.9396   -1.0379    2.5655 N   0  0  0  0  0  0  0  0  0  0  0  0
   -9.2122   -1.4729    2.0944 C   0  0  0  0  0  0  0  0  0  0  0  0
   -9.7437   -2.7200    2.4292 C   0  0  0  0  0  0  0  0  0  0  0  0
  -10.9678   -2.7873    1.7885 C   0  0  0  0  0  0  0  0  0  0  0  0
  -11.9468   -3.8931    1.8050 C   0  0  0  0  0  0  0  0  0  0  0  0
  -12.4652   -4.1418    0.5548 F   0  0  0  0  0  0  0  0  0  0  0  0
  -11.3315   -5.0277    2.3242 F   0  0  0  0  0  0  0  0  0  0  0  0
  -13.0001   -3.5438    2.6251 F   0  0  0  0  0  0  0  0  0  0  0  0
  -11.1165   -1.6307    1.1234 N   0  0  0  0  0  0  0  0  0  0  0  0
  -10.0659   -0.8414    1.3045 N   0  0  0  0  0  0  0  0  0  0  0  0
   -9.9084    0.4429    0.7151 C   0  0  0  0  0  0  0  0  0  0  0  0
   -9.8778    0.5805   -0.6775 C   0  0  0  0  0  0  0  0  0  0  0  0
   -9.7224    1.7886   -1.2927 C   0  0  0  0  0  0  0  0  0  0  0  0
   -9.5885    2.9352   -0.5216 C   0  0  0  0  0  0  0  0  0  0  0  0
   -9.4193    4.2269   -1.2437 C   0  0  0  0  0  0  0  0  0  0  0  0
   -9.6156    2.8330    0.8409 C   0  0  0  0  0  0  0  0  0  0  0  0
   -9.7757    1.5878    1.4571 C   0  0  0  0  0  0  0  0  0  0  0  0
   -3.9163    0.0827    0.6300 C   0  0  0  0  0  0  0  0  0  0  0  0
   -4.6053    1.2789    0.6975 C   0  0  0  0  0  0  0  0  0  0  0  0
   -4.1517    2.3092   -0.0778 C   0  0  0  0  0  0  0  0  0  0  0  0
   -3.0614    2.2232   -0.9132 C   0  0  0  0  0  0  0  0  0  0  0  0
   -2.3835    1.0046   -0.9634 C   0  0  0  0  0  0  0  0  0  0  0  0
   -2.8116   -0.0603   -0.1917 C   0  0  0  0  0  0  0  0  0  0  0  0
    1.1316   -1.0966   -1.7621 N   0  0  0  0  0  0  0  0  0  0  0  0
    5.2843   -0.2735   -1.5603 C   0  0  0  0  0  0  0  0  0  0  0  0
    6.6191    0.0768   -1.6081 C   0  0  0  0  0  0  0  0  0  0  0  0
    7.4279    0.3432   -0.4076 C   0  0  0  0  0  0  0  0  0  0  0  0
    8.5646    0.7943   -0.5794 O   0  0  0  0  0  0  0  0  0  0  0  0
    6.9921    0.1156    0.9058 N   0  0  0  0  0  0  0  0  0  0  0  0
    7.6510    0.3154    2.1437 C   0  0  0  0  0  0  0  0  0  0  0  0
    8.9166   -0.4233    2.3881 C   0  0  0  0  0  0  0  0  0  0  0  0
    9.9684   -0.0490    1.5273 N   0  0  0  0  0  0  0  0  0  0  0  0
   10.4862    1.2668    1.8090 C   0  0  0  0  0  0  0  0  0  0  0  0
   11.7031    1.5727    0.9585 C   0  0  0  0  0  0  0  0  0  0  0  0
   12.6559    0.5942    1.2827 O   0  0  0  0  0  0  0  0  0  0  0  0
   12.2416   -0.5889    0.7235 C   0  0  0  0  0  0  0  0  0  0  0  0
   10.8584   -1.0182    1.0563 C   0  0  0  0  0  0  0  0  0  0  0  0
    7.2428    0.1569   -2.8435 C   0  0  0  0  0  0  0  0  0  0  0  0
    6.2603   -1.3188   -6.4620 H   0  0  0  0  0  0  0  0  0  0  0  0
    5.6808    0.3798   -6.4705 H   0  0  0  0  0  0  0  0  0  0  0  0
    7.2242   -0.0452   -7.3226 H   0  0  0  0  0  0  0  0  0  0  0  0
    4.7500   -0.6461   -4.8839 H   0  0  0  0  0  0  0  0  0  0  0  0
    2.9452   -1.5116   -3.5402 H   0  0  0  0  0  0  0  0  0  0  0  0
    1.9055    1.2624    1.0315 H   0  0  0  0  0  0  0  0  0  0  0  0
   -0.3182    0.2505    0.9018 H   0  0  0  0  0  0  0  0  0  0  0  0
   -2.0846   -3.2556    0.4724 H   0  0  0  0  0  0  0  0  0  0  0  0
   -4.0450   -3.0062    1.9390 H   0  0  0  0  0  0  0  0  0  0  0  0
   -5.3874   -0.3928    3.1933 H   0  0  0  0  0  0  0  0  0  0  0  0
   -7.8255   -0.6028    3.5268 H   0  0  0  0  0  0  0  0  0  0  0  0
   -9.3299   -3.4943    3.0462 H   0  0  0  0  0  0  0  0  0  0  0  0
   -9.9838   -0.3174   -1.2823 H   0  0  0  0  0  0  0  0  0  0  0  0
   -9.6986    1.8827   -2.3728 H   0  0  0  0  0  0  0  0  0  0  0  0
   -8.7334    4.0899   -2.1093 H   0  0  0  0  0  0  0  0  0  0  0  0
  -10.3901    4.5263   -1.6512 H   0  0  0  0  0  0  0  0  0  0  0  0
   -8.9629    4.9738   -0.5878 H   0  0  0  0  0  0  0  0  0  0  0  0
   -9.5139    3.7263    1.4209 H   0  0  0  0  0  0  0  0  0  0  0  0
   -9.7900    1.5795    2.5293 H   0  0  0  0  0  0  0  0  0  0  0  0
   -5.4554    1.3794    1.3320 H   0  0  0  0  0  0  0  0  0  0  0  0
   -4.7029    3.2432   -0.0151 H   0  0  0  0  0  0  0  0  0  0  0  0
   -2.7034    3.0341   -1.5249 H   0  0  0  0  0  0  0  0  0  0  0  0
   -1.5387    0.9365   -1.6263 H   0  0  0  0  0  0  0  0  0  0  0  0
    4.8078   -0.3392   -0.5818 H   0  0  0  0  0  0  0  0  0  0  0  0
    5.9927   -0.2809    0.9681 H   0  0  0  0  0  0  0  0  0  0  0  0
    7.8948    1.4263    2.2274 H   0  0  0  0  0  0  0  0  0  0  0  0
    6.9264    0.1698    2.9864 H   0  0  0  0  0  0  0  0  0  0  0  0
    8.7854   -1.5289    2.3914 H   0  0  0  0  0  0  0  0  0  0  0  0
    9.2351   -0.1790    3.4444 H   0  0  0  0  0  0  0  0  0  0  0  0
   10.8346    1.2375    2.8662 H   0  0  0  0  0  0  0  0  0  0  0  0
    9.7415    2.0718    1.6860 H   0  0  0  0  0  0  0  0  0  0  0  0
   11.4761    1.6314   -0.1063 H   0  0  0  0  0  0  0  0  0  0  0  0
   12.1105    2.5452    1.3656 H   0  0  0  0  0  0  0  0  0  0  0  0
   13.0232   -1.3525    0.9259 H   0  0  0  0  0  0  0  0  0  0  0  0
   12.2760   -0.4402   -0.3938 H   0  0  0  0  0  0  0  0  0  0  0  0
   10.3763   -1.5433    0.1781 H   0  0  0  0  0  0  0  0  0  0  0  0
   10.9431   -1.8360    1.8323 H   0  0  0  0  0  0  0  0  0  0  0  0
    8.2980    0.4338   -2.9119 H   0  0  0  0  0  0  0  0  0  0  0  0
  1  2  1  0
  2  3  1  0
  3  4  2  0
  4  5  1  0
  5  6  1  0
  6  7  1  0
  7  8  2  0
  8  9  1  0
  9 10  2  0
 10 11  1  0
 11 12  1  0
 12 13  1  0
 13 14  2  0
 14 15  1  0
 15 16  2  0
 16 17  1  0
 17 18  1  0
 18 19  2  0
 18 20  1  0
 20 21  1  0
 21 22  2  0
 22 23  1  0
 23 24  1  0
 24 25  1  0
 24 26  1  0
 24 27  1  0
 23 28  2  0
 28 29  1  0
 29 30  1  0
 30 31  2  0
 31 32  1  0
 32 33  2  0
 33 34  1  0
 33 35  1  0
 35 36  2  0
 16 37  1  0
 37 38  2  0
 38 39  1  0
 39 40  2  0
 40 41  1  0
 41 42  2  0
 11 43  2  0
  5 44  2  0
 44 45  1  0
 45 46  1  0
 46 47  2  0
 46 48  1  0
 48 49  1  0
 49 50  1  0
 50 51  1  0
 51 52  1  0
 52 53  1  0
 53 54  1  0
 54 55  1  0
 55 56  1  0
 45 57  2  0
 57  3  1  0
 43  7  1  0
 56 51  1  0
 42 13  1  0
 29 21  1  0
 36 30  1  0
 42 37  1  0
  1 58  1  0
  1 59  1  0
  1 60  1  0
  4 61  1  0
  6 62  1  0
  9 63  1  0
 10 64  1  0
 14 65  1  0
 15 66  1  0
 17 67  1  0
 20 68  1  0
 22 69  1  0
 31 70  1  0
 32 71  1  0
 34 72  1  0
 34 73  1  0
 34 74  1  0
 35 75  1  0
 36 76  1  0
 38 77  1  0
 39 78  1  0
 40 79  1  0
 41 80  1  0
 44 81  1  0
 48 82  1  0
 49 83  1  0
 49 84  1  0
 50 85  1  0
 50 86  1  0
 52 87  1  0
 52 88  1  0
 53 89  1  0
 53 90  1  0
 55 91  1  0
 55 92  1  0
 56 93  1  0
 56 94  1  0
 57 95  1  0
M  END
$$$$
