@<TRIPOS>MOLECULE
*****
 95 101 0 0 0
SMALL
GASTEIGER

@<TRIPOS>ATOM
      1 C           6.5913   -0.2659   -6.4471 C.3     1  UNL1        0.0788
      2 O           7.2957    0.0051   -5.2405 O.3     1  UNL1       -0.4950
      3 C           6.6067   -0.0936   -4.0277 C.ar    1  UNL1        0.1226
      4 C           5.2842   -0.4395   -3.9668 C.ar    1  UNL1        0.0013
      5 C           4.6187   -0.5292   -2.7282 C.ar    1  UNL1        0.0378
      6 N           3.2706   -0.9142   -2.7257 N.pl3   1  UNL1       -0.2834
      7 C           2.3742   -0.5492   -1.7112 C.ar    1  UNL1        0.2226
      8 N           2.6313    0.2894   -0.7061 N.ar    1  UNL1       -0.2225
      9 C           1.7105    0.5836    0.2149 C.ar    1  UNL1        0.0362
     10 C           0.4448    0.0291    0.1670 C.ar    1  UNL1        0.0186
     11 C           0.1750   -0.8427   -0.8755 C.ar    1  UNL1        0.2249
     12 O          -1.0579   -1.4747   -1.0374 O.3     1  UNL1       -0.4373
     13 C          -2.1483   -1.2675   -0.2472 C.ar    1  UNL1        0.1381
     14 C          -2.6160   -2.3299    0.5370 C.ar    1  UNL1       -0.0169
     15 C          -3.7228   -2.1556    1.3480 C.ar    1  UNL1       -0.0363
     16 C          -4.3866   -0.9543    1.4077 C.ar    1  UNL1        0.0427
     17 N          -5.5122   -0.7977    2.2486 N.am    1  UNL1       -0.2686
     18 C          -6.7911   -1.1954    1.7787 C.2     1  UNL1        0.3092
     19 O          -6.9090   -1.7101    0.6160 O.2     1  UNL1       -0.2521
     20 N          -7.9396   -1.0379    2.5655 N.am    1  UNL1       -0.2538
     21 C          -9.2122   -1.4729    2.0944 C.ar    1  UNL1        0.1302
     22 C          -9.7437   -2.7200    2.4292 C.ar    1  UNL1        0.0103
     23 C         -10.9678   -2.7873    1.7885 C.ar    1  UNL1        0.1675
     24 C         -11.9468   -3.8931    1.8050 C.3     1  UNL1        0.4360
     25 F         -12.4652   -4.1418    0.5548 F       1  UNL1       -0.1644
     26 F         -11.3315   -5.0277    2.3242 F       1  UNL1       -0.1644
     27 F         -13.0001   -3.5438    2.6251 F       1  UNL1       -0.1644
     28 N         -11.1165   -1.6307    1.1234 N.ar    1  UNL1       -0.1606
     29 N         -10.0659   -0.8414    1.3045 N.ar    1  UNL1       -0.2178
     30 C          -9.9084    0.4429    0.7151 C.ar    1  UNL1        0.0674
     31 C          -9.8778    0.5805   -0.6775 C.ar    1  UNL1       -0.0359
     32 C          -9.7224    1.7886   -1.2927 C.ar    1  UNL1       -0.0568
     33 C          -9.5885    2.9352   -0.5216 C.ar    1  UNL1       -0.0503
     34 C          -9.4193    4.2269   -1.2437 C.3     1  UNL1       -0.0397
     35 C          -9.6156    2.8330    0.8409 C.ar    1  UNL1       -0.0568
     36 C          -9.7757    1.5878    1.4571 C.ar    1  UNL1       -0.0359
     37 C          -3.9163    0.0827    0.6300 C.ar    1  UNL1        0.0069
     38 C          -4.6053    1.2789    0.6975 C.ar    1  UNL1       -0.0521
     39 C          -4.1517    2.3092   -0.0778 C.ar    1  UNL1       -0.0611
     40 C          -3.0614    2.2232   -0.9132 C.ar    1  UNL1       -0.0611
     41 C          -2.3835    1.0046   -0.9634 C.ar    1  UNL1       -0.0505
     42 C          -2.8116   -0.0603   -0.1917 C.ar    1  UNL1        0.0262
     43 N           1.1316   -1.0966   -1.7621 N.ar    1  UNL1       -0.1789
     44 C           5.2843   -0.2735   -1.5603 C.ar    1  UNL1       -0.0281
     45 C           6.6191    0.0768   -1.6081 C.ar    1  UNL1        0.0419
     46 C           7.4279    0.3432   -0.4076 C.2     1  UNL1        0.2443
     47 O           8.5646    0.7943   -0.5794 O.2     1  UNL1       -0.2702
     48 N           6.9921    0.1156    0.9058 N.am    1  UNL1       -0.3101
     49 C           7.6510    0.3154    2.1437 C.3     1  UNL1        0.0247
     50 C           8.9166   -0.4233    2.3881 C.3     1  UNL1        0.0146
     51 N           9.9684   -0.0490    1.5273 N.3     1  UNL1       -0.2965
     52 C          10.4862    1.2668    1.8090 C.3     1  UNL1        0.0225
     53 C          11.7031    1.5727    0.9585 C.3     1  UNL1        0.0604
     54 O          12.6559    0.5942    1.2827 O.3     1  UNL1       -0.3772
     55 C          12.2416   -0.5889    0.7235 C.3     1  UNL1        0.0604
     56 C          10.8584   -1.0182    1.0563 C.3     1  UNL1        0.0225
     57 C           7.2428    0.1569   -2.8435 C.ar    1  UNL1       -0.0077
     58 H           6.2603   -1.3188   -6.4620 H       1  UNL1        0.0660
     59 H           5.6808    0.3798   -6.4705 H       1  UNL1        0.0660
     60 H           7.2242   -0.0452   -7.3226 H       1  UNL1        0.0660
     61 H           4.7500   -0.6461   -4.8839 H       1  UNL1        0.0673
     62 H           2.9452   -1.5116   -3.5402 H       1  UNL1        0.1550
     63 H           1.9055    1.2624    1.0315 H       1  UNL1        0.0832
     64 H          -0.3182    0.2505    0.9018 H       1  UNL1        0.0686
     65 H          -2.0846   -3.2556    0.4724 H       1  UNL1        0.0655
     66 H          -4.0450   -3.0062    1.9390 H       1  UNL1        0.0637
     67 H          -5.3874   -0.3928    3.1933 H       1  UNL1        0.1564
     68 H          -7.8255   -0.6028    3.5268 H       1  UNL1        0.1578
     69 H          -9.3299   -3.4943    3.0462 H       1  UNL1        0.0673
     70 H          -9.9838   -0.3174   -1.2823 H       1  UNL1        0.0639
     71 H          -9.6986    1.8827   -2.3728 H       1  UNL1        0.0621
     72 H          -8.7334    4.0899   -2.1093 H       1  UNL1        0.0278
     73 H         -10.3901    4.5263   -1.6512 H       1  UNL1        0.0278
     74 H          -8.9629    4.9738   -0.5878 H       1  UNL1        0.0278
     75 H          -9.5139    3.7263    1.4209 H       1  UNL1        0.0621
     76 H          -9.7900    1.5795    2.5293 H       1  UNL1        0.0639
     77 H          -5.4554    1.3794    1.3320 H       1  UNL1        0.0624
     78 H          -4.7029    3.2432   -0.0151 H       1  UNL1        0.0618
     79 H          -2.7034    3.0341   -1.5249 H       1  UNL1        0.0618
     80 H          -1.5387    0.9365   -1.6263 H       1  UNL1        0.0625
     81 H           4.8078   -0.3392   -0.5818 H       1  UNL1        0.0644
     82 H           5.9927   -0.2809    0.9681 H       1  UNL1        0.1490
     83 H           7.8948    1.4263    2.2274 H       1  UNL1        0.0475
     84 H           6.9264    0.1698    2.9864 H       1  UNL1        0.0475
     85 H           8.7854   -1.5289    2.3914 H       1  UNL1        0.0442
     86 H           9.2351   -0.1790    3.4444 H       1  UNL1        0.0442
     87 H          10.8346    1.2375    2.8662 H       1  UNL1        0.0449
     88 H           9.7415    2.0718    1.6860 H       1  UNL1        0.0449
     89 H          11.4761    1.6314   -0.1063 H       1  UNL1        0.0572
     90 H          12.1105    2.5452    1.3656 H       1  UNL1        0.0572
     91 H          13.0232   -1.3525    0.9259 H       1  UNL1        0.0572
     92 H          12.2760   -0.4402   -0.3938 H       1  UNL1        0.0572
     93 H          10.3763   -1.5433    0.1781 H       1  UNL1        0.0449
     94 H          10.9431   -1.8360    1.8323 H       1  UNL1        0.0449
     95 H           8.2980    0.4338   -2.9119 H       1  UNL1        0.0662
@<TRIPOS>BOND
     1     1     2    1
     2     2     3    1
     3     3     4   ar
     4     4     5   ar
     5     5     6    1
     6     6     7    1
     7     7     8   ar
     8     8     9   ar
     9     9    10   ar
    10    10    11   ar
    11    11    12    1
    12    12    13    1
    13    13    14   ar
    14    14    15   ar
    15    15    16   ar
    16    16    17    1
    17    17    18   am
    18    18    19    2
    19    18    20   am
    20    20    21    1
    21    21    22   ar
    22    22    23   ar
    23    23    24    1
    24    24    25    1
    25    24    26    1
    26    24    27    1
    27    23    28   ar
    28    28    29   ar
    29    29    30    1
    30    30    31   ar
    31    31    32   ar
    32    32    33   ar
    33    33    34    1
    34    33    35   ar
    35    35    36   ar
    36    16    37   ar
    37    37    38   ar
    38    38    39   ar
    39    39    40   ar
    40    40    41   ar
    41    41    42   ar
    42    11    43   ar
    43     5    44   ar
    44    44    45   ar
    45    45    46    1
    46    46    47    2
    47    46    48   am
    48    48    49    1
    49    49    50    1
    50    50    51    1
    51    51    52    1
    52    52    53    1
    53    53    54    1
    54    54    55    1
    55    55    56    1
    56    45    57   ar
    57    57     3   ar
    58    43     7   ar
    59    56    51    1
    60    42    13   ar
    61    29    21   ar
    62    36    30   ar
    63    42    37   ar
    64     1    58    1
    65     1    59    1
    66     1    60    1
    67     4    61    1
    68     6    62    1
    69     9    63    1
    70    10    64    1
    71    14    65    1
    72    15    66    1
    73    17    67    1
    74    20    68    1
    75    22    69    1
    76    31    70    1
    77    32    71    1
    78    34    72    1
    79    34    73    1
    80    34    74    1
    81    35    75    1
    82    36    76    1
    83    38    77    1
    84    39    78    1
    85    40    79    1
    86    41    80    1
    87    44    81    1
    88    48    82    1
    89    49    83    1
    90    49    84    1
    91    50    85    1
    92    50    86    1
    93    52    87    1
    94    52    88    1
    95    53    89    1
    96    53    90    1
    97    55    91    1
    98    55    92    1
    99    56    93    1
   100    56    94    1
   101    57    95    1
