@<TRIPOS>MOLECULE
*****
 53 54 0 0 0
SMALL
GASTEIGER

@<TRIPOS>ATOM
      1 C          -5.4923    1.6424   -1.3469 C.3     1  UNL1        0.0032
      2 N          -5.3764    2.4135   -0.1288 N.am    1  UNL1       -0.3010
      3 C          -6.4101    3.3682    0.2083 C.3     1  UNL1        0.0032
      4 C          -4.2870    2.2635    0.7420 C.2     1  UNL1        0.2867
      5 O          -4.1559    2.9142    1.8020 O.2     1  UNL1       -0.2665
      6 C          -3.2321    1.2887    0.4006 C.ar    1  UNL1        0.2572
      7 N          -2.4458    1.2406   -0.6863 N.ar    1  UNL1       -0.0512
      8 O          -1.6469    0.2071   -0.5834 O.2     1  UNL1       -0.3373
      9 C          -1.8666   -0.4348    0.5240 C.ar    1  UNL1        0.2313
     10 C          -1.1523   -1.6711    0.9989 C.3     1  UNL1        0.0464
     11 C           0.2819   -1.3569    1.3151 C.3     1  UNL1       -0.0413
     12 C           1.0903   -0.8375    0.1685 C.3     1  UNL1       -0.0521
     13 C           2.4900   -0.5983    0.7020 C.3     1  UNL1       -0.0502
     14 C           3.4358   -0.0789   -0.3238 C.3     1  UNL1       -0.0410
     15 C           3.0461    1.2263   -0.9375 C.3     1  UNL1       -0.0502
     16 C           3.4162    2.3280    0.0334 C.3     1  UNL1       -0.0528
     17 C           4.9217    2.4433    0.0117 C.3     1  UNL1       -0.0530
     18 C           5.6256    1.1332   -0.0993 C.3     1  UNL1       -0.0528
     19 C           4.8132   -0.0494    0.2948 C.3     1  UNL1       -0.0502
     20 C          -1.3605   -2.7568   -0.0013 C.3     1  UNL1        0.0372
     21 C          -0.7307   -4.0493    0.3239 C.2     1  UNL1        0.2362
     22 O          -0.0898   -4.3302    1.3508 O.2     1  UNL1       -0.2737
     23 N          -0.8705   -5.1036   -0.6504 N.am    1  UNL1       -0.1975
     24 O          -0.3235   -6.3102   -0.4241 O.3     1  UNL1       -0.2952
     25 N          -2.8542    0.2229    1.1571 N.ar    1  UNL1       -0.1872
     26 H          -5.6331    0.5537   -1.1534 H       1  UNL1        0.0428
     27 H          -4.5534    1.8255   -1.9368 H       1  UNL1        0.0428
     28 H          -6.3534    1.9640   -1.9569 H       1  UNL1        0.0428
     29 H          -5.9278    4.3050    0.5496 H       1  UNL1        0.0428
     30 H          -7.0449    3.5806   -0.6759 H       1  UNL1        0.0428
     31 H          -7.0051    2.9706    1.0593 H       1  UNL1        0.0428
     32 H          -1.6245   -1.9763    1.9547 H       1  UNL1        0.0401
     33 H           0.2512   -0.5595    2.0986 H       1  UNL1        0.0273
     34 H           0.7642   -2.2457    1.7223 H       1  UNL1        0.0273
     35 H           1.0711   -1.4959   -0.7075 H       1  UNL1        0.0266
     36 H           0.6244    0.1416   -0.1484 H       1  UNL1        0.0266
     37 H           2.8657   -1.5493    1.0902 H       1  UNL1        0.0268
     38 H           2.4012    0.0972    1.5608 H       1  UNL1        0.0268
     39 H           3.4415   -0.8352   -1.1643 H       1  UNL1        0.0301
     40 H           1.9908    1.2228   -1.2015 H       1  UNL1        0.0268
     41 H           3.7127    1.3761   -1.8333 H       1  UNL1        0.0268
     42 H           3.0023    3.3169   -0.2923 H       1  UNL1        0.0265
     43 H           3.1073    2.1005    1.0619 H       1  UNL1        0.0265
     44 H           5.2227    3.0181    0.9089 H       1  UNL1        0.0265
     45 H           5.1858    3.0449   -0.8978 H       1  UNL1        0.0265
     46 H           6.5161    1.1714    0.5681 H       1  UNL1        0.0265
     47 H           6.0568    0.9615   -1.1278 H       1  UNL1        0.0265
     48 H           4.7694   -0.0855    1.4155 H       1  UNL1        0.0268
     49 H           5.3655   -0.9682   -0.0019 H       1  UNL1        0.0268
     50 H          -1.1301   -2.4219   -1.0346 H       1  UNL1        0.0366
     51 H          -2.4726   -2.9631   -0.0011 H       1  UNL1        0.0366
     52 H          -1.3996   -4.9420   -1.5452 H       1  UNL1        0.1822
     53 H          -0.0306   -6.7225   -1.2834 H       1  UNL1        0.2414
@<TRIPOS>BOND
     1     1     2    1
     2     2     3    1
     3     2     4   am
     4     4     5    2
     5     4     6    1
     6     6     7   ar
     7     7     8   ar
     8     8     9   ar
     9     9    10    1
    10    10    11    1
    11    11    12    1
    12    12    13    1
    13    13    14    1
    14    14    15    1
    15    15    16    1
    16    16    17    1
    17    17    18    1
    18    18    19    1
    19    10    20    1
    20    20    21    1
    21    21    22    2
    22    21    23   am
    23    23    24    1
    24     9    25   ar
    25    25     6   ar
    26    19    14    1
    27     1    26    1
    28     1    27    1
    29     1    28    1
    30     3    29    1
    31     3    30    1
    32     3    31    1
    33    10    32    1
    34    11    33    1
    35    11    34    1
    36    12    35    1
    37    12    36    1
    38    13    37    1
    39    13    38    1
    40    14    39    1
    41    15    40    1
    42    15    41    1
    43    16    42    1
    44    16    43    1
    45    17    44    1
    46    17    45    1
    47    18    46    1
    48    18    47    1
    49    19    48    1
    50    19    49    1
    51    20    50    1
    52    20    51    1
    53    23    52    1
    54    24    53    1
