
     RDKit          3D

 53 54  0  0  0  0  0  0  0  0999 V2000
   -5.4923    1.6424   -1.3469 C   0  0  0  0  0  0  0  0  0  0  0  0
   -5.3764    2.4135   -0.1288 N   0  0  0  0  0  0  0  0  0  0  0  0
   -6.4101    3.3682    0.2083 C   0  0  0  0  0  0  0  0  0  0  0  0
   -4.2870    2.2635    0.7420 C   0  0  0  0  0  0  0  0  0  0  0  0
   -4.1559    2.9142    1.8020 O   0  0  0  0  0  0  0  0  0  0  0  0
   -3.2321    1.2887    0.4006 C   0  0  0  0  0  0  0  0  0  0  0  0
   -2.4458    1.2406   -0.6863 N   0  0  0  0  0  0  0  0  0  0  0  0
   -1.6469    0.2071   -0.5834 O   0  0  0  0  0  0  0  0  0  0  0  0
   -1.8666   -0.4348    0.5240 C   0  0  0  0  0  0  0  0  0  0  0  0
   -1.1523   -1.6711    0.9989 C   0  0  2  0  0  0  0  0  0  0  0  0
    0.2819   -1.3569    1.3151 C   0  0  0  0  0  0  0  0  0  0  0  0
    1.0903   -0.8375    0.1685 C   0  0  0  0  0  0  0  0  0  0  0  0
    2.4900   -0.5983    0.7020 C   0  0  0  0  0  0  0  0  0  0  0  0
    3.4358   -0.0789   -0.3238 C   0  0  0  0  0  0  0  0  0  0  0  0
    3.0461    1.2263   -0.9375 C   0  0  0  0  0  0  0  0  0  0  0  0
    3.4162    2.3280    0.0334 C   0  0  0  0  0  0  0  0  0  0  0  0
    4.9217    2.4433    0.0117 C   0  0  0  0  0  0  0  0  0  0  0  0
    5.6256    1.1332   -0.0993 C   0  0  0  0  0  0  0  0  0  0  0  0
    4.8132   -0.0494    0.2948 C   0  0  0  0  0  0  0  0  0  0  0  0
   -1.3605   -2.7568   -0.0013 C   0  0  0  0  0  0  0  0  0  0  0  0
   -0.7307   -4.0493    0.3239 C   0  0  0  0  0  0  0  0  0  0  0  0
   -0.0898   -4.3302    1.3508 O   0  0  0  0  0  0  0  0  0  0  0  0
   -0.8705   -5.1036   -0.6504 N   0  0  0  0  0  0  0  0  0  0  0  0
   -0.3235   -6.3102   -0.4241 O   0  0  0  0  0  0  0  0  0  0  0  0
   -2.8542    0.2229    1.1571 N   0  0  0  0  0  0  0  0  0  0  0  0
   -5.6331    0.5537   -1.1534 H   0  0  0  0  0  0  0  0  0  0  0  0
   -4.5534    1.8255   -1.9368 H   0  0  0  0  0  0  0  0  0  0  0  0
   -6.3534    1.9640   -1.9569 H   0  0  0  0  0  0  0  0  0  0  0  0
   -5.9278    4.3050    0.5496 H   0  0  0  0  0  0  0  0  0  0  0  0
   -7.0449    3.5806   -0.6759 H   0  0  0  0  0  0  0  0  0  0  0  0
   -7.0051    2.9706    1.0593 H   0  0  0  0  0  0  0  0  0  0  0  0
   -1.6245   -1.9763    1.9547 H   0  0  0  0  0  0  0  0  0  0  0  0
    0.2512   -0.5595    2.0986 H   0  0  0  0  0  0  0  0  0  0  0  0
    0.7642   -2.2457    1.7223 H   0  0  0  0  0  0  0  0  0  0  0  0
    1.0711   -1.4959   -0.7075 H   0  0  0  0  0  0  0  0  0  0  0  0
    0.6244    0.1416   -0.1484 H   0  0  0  0  0  0  0  0  0  0  0  0
    2.8657   -1.5493    1.0902 H   0  0  0  0  0  0  0  0  0  0  0  0
    2.4012    0.0972    1.5608 H   0  0  0  0  0  0  0  0  0  0  0  0
    3.4415   -0.8352   -1.1643 H   0  0  0  0  0  0  0  0  0  0  0  0
    1.9908    1.2228   -1.2015 H   0  0  0  0  0  0  0  0  0  0  0  0
    3.7127    1.3761   -1.8333 H   0  0  0  0  0  0  0  0  0  0  0  0
    3.0023    3.3169   -0.2923 H   0  0  0  0  0  0  0  0  0  0  0  0
    3.1073    2.1005    1.0619 H   0  0  0  0  0  0  0  0  0  0  0  0
    5.2227    3.0181    0.9089 H   0  0  0  0  0  0  0  0  0  0  0  0
    5.1858    3.0449   -0.8978 H   0  0  0  0  0  0  0  0  0  0  0  0
    6.5161    1.1714    0.5681 H   0  0  0  0  0  0  0  0  0  0  0  0
    6.0568    0.9615   -1.1278 H   0  0  0  0  0  0  0  0  0  0  0  0
    4.7694   -0.0855    1.4155 H   0  0  0  0  0  0  0  0  0  0  0  0
    5.3655   -0.9682   -0.0019 H   0  0  0  0  0  0  0  0  0  0  0  0
   -1.1301   -2.4219   -1.0346 H   0  0  0  0  0  0  0  0  0  0  0  0
   -2.4726   -2.9631   -0.0011 H   0  0  0  0  0  0  0  0  0  0  0  0
   -1.3996   -4.9420   -1.5452 H   0  0  0  0  0  0  0  0  0  0  0  0
   -0.0306   -6.7225   -1.2834 H   0  0  0  0  0  0  0  0  0  0  0  0
  1  2  1  0
  2  3  1  0
  2  4  1  0
  4  5  2  0
  4  6  1  0
  6  7  2  0
  7  8  1  0
  8  9  1  0
  9 10  1  0
 10 11  1  0
 11 12  1  0
 12 13  1  0
 13 14  1  0
 14 15  1  0
 15 16  1  0
 16 17  1  0
 17 18  1  0
 18 19  1  0
 10 20  1  0
 20 21  1  0
 21 22  2  0
 21 23  1  0
 23 24  1  0
  9 25  2  0
 25  6  1  0
 19 14  1  0
  1 26  1  0
  1 27  1  0
  1 28  1  0
  3 29  1  0
  3 30  1  0
  3 31  1  0
 10 32  1  1
 11 33  1  0
 11 34  1  0
 12 35  1  0
 12 36  1  0
 13 37  1  0
 13 38  1  0
 14 39  1  0
 15 40  1  0
 15 41  1  0
 16 42  1  0
 16 43  1  0
 17 44  1  0
 17 45  1  0
 18 46  1  0
 18 47  1  0
 19 48  1  0
 19 49  1  0
 20 50  1  0
 20 51  1  0
 23 52  1  0
 24 53  1  0
M  END
$$$$
