@<TRIPOS>MOLECULE
*****
 51 55 0 0 0
SMALL
GASTEIGER

@<TRIPOS>ATOM
      1 C           7.6720   -0.0408    1.2860 C.3     1  UNL1       -0.0205
      2 C           6.5638    0.0489    0.3070 C.ar    1  UNL1        0.0625
      3 C           6.5821    0.0055   -1.0565 C.ar    1  UNL1        0.0052
      4 C           5.2831    0.1321   -1.5021 C.ar    1  UNL1        0.1560
      5 N           4.7108    0.1573   -2.7117 N.ar    1  UNL1       -0.2357
      6 C           3.3860    0.2948   -2.8960 C.ar    1  UNL1        0.0361
      7 C           2.5604    0.4172   -1.7990 C.ar    1  UNL1        0.0074
      8 C           3.1491    0.3910   -0.5605 C.ar    1  UNL1        0.0649
      9 N           4.4989    0.2496   -0.4159 N.ar    1  UNL1       -0.2168
     10 N           5.2628    0.1995    0.6473 N.ar    1  UNL1       -0.1699
     11 C           2.1254    0.5349    0.4739 C.3     1  UNL1        0.0423
     12 N           0.9899    1.0549   -0.2629 N.3     1  UNL1       -0.2894
     13 C          -0.2468    0.8851    0.3953 C.3     1  UNL1        0.0126
     14 C          -1.3922    1.4647   -0.4020 C.3     1  UNL1       -0.0367
     15 C          -2.3127    0.4509   -0.9910 C.3     1  UNL1       -0.0433
     16 C          -2.7959   -0.5478    0.0080 C.3     1  UNL1        0.0022
     17 C          -4.2453   -0.4757    0.2559 C.ar    1  UNL1       -0.0049
     18 C          -4.8228    0.3147    1.2245 C.ar    1  UNL1       -0.0202
     19 C          -6.2026    0.3239    1.3917 C.ar    1  UNL1        0.1238
     20 F          -6.7761    1.1125    2.3582 F       1  UNL1       -0.2055
     21 C          -7.0165   -0.4491    0.6011 C.ar    1  UNL1       -0.0237
     22 C          -6.4690   -1.2399   -0.3646 C.ar    1  UNL1       -0.0235
     23 C          -5.0922   -1.2385   -0.5194 C.ar    1  UNL1        0.1270
     24 F          -4.5565   -2.0278   -1.4822 F       1  UNL1       -0.2052
     25 C          -2.0075   -0.5337    1.3067 C.3     1  UNL1        0.0132
     26 N          -2.2330   -1.7981    1.9880 N.3     1  UNL1       -0.3266
     27 C          -0.5340   -0.5089    0.8759 C.3     1  UNL1       -0.0215
     28 C           1.1034    0.5796   -1.5965 C.3     1  UNL1        0.0279
     29 H           7.4595   -0.7327    2.1209 H       1  UNL1        0.0293
     30 H           7.8330    0.9589    1.7273 H       1  UNL1        0.0293
     31 H           8.6062   -0.3371    0.7674 H       1  UNL1        0.0293
     32 H           7.4590   -0.1078   -1.6778 H       1  UNL1        0.0673
     33 H           2.9588    0.3107   -3.8976 H       1  UNL1        0.0834
     34 H           2.4477    1.2991    1.2017 H       1  UNL1        0.0491
     35 H           1.9008   -0.4322    0.9443 H       1  UNL1        0.0491
     36 H          -0.1972    1.5169    1.3356 H       1  UNL1        0.0463
     37 H          -0.9340    2.0373   -1.2639 H       1  UNL1        0.0280
     38 H          -1.9472    2.2612    0.1594 H       1  UNL1        0.0280
     39 H          -1.8295   -0.0046   -1.8776 H       1  UNL1        0.0272
     40 H          -3.1791    1.0253   -1.4128 H       1  UNL1        0.0272
     41 H          -2.5782   -1.5657   -0.4359 H       1  UNL1        0.0365
     42 H          -4.1886    0.9278    1.8523 H       1  UNL1        0.0650
     43 H          -8.1039   -0.4498    0.7237 H       1  UNL1        0.0647
     44 H          -7.0747   -1.8644   -1.0093 H       1  UNL1        0.0647
     45 H          -2.2497    0.3186    1.9466 H       1  UNL1        0.0465
     46 H          -1.3996   -2.1139    2.5166 H       1  UNL1        0.1185
     47 H          -3.1072   -1.7693    2.5673 H       1  UNL1        0.1185
     48 H          -0.3938   -1.2914    0.1397 H       1  UNL1        0.0295
     49 H           0.0474   -0.7703    1.7837 H       1  UNL1        0.0295
     50 H           0.7493    1.3643   -2.2968 H       1  UNL1        0.0477
     51 H           0.5361   -0.3377   -1.8206 H       1  UNL1        0.0477
@<TRIPOS>BOND
     1     1     2    1
     2     2     3   ar
     3     3     4   ar
     4     4     5   ar
     5     5     6   ar
     6     6     7   ar
     7     7     8   ar
     8     8     9   ar
     9     9    10   ar
    10     8    11    1
    11    11    12    1
    12    12    13    1
    13    13    14    1
    14    14    15    1
    15    15    16    1
    16    16    17    1
    17    17    18   ar
    18    18    19   ar
    19    19    20    1
    20    19    21   ar
    21    21    22   ar
    22    22    23   ar
    23    23    24    1
    24    16    25    1
    25    25    26    1
    26    25    27    1
    27    12    28    1
    28    10     2   ar
    29    27    13    1
    30     9     4   ar
    31    23    17   ar
    32    28     7    1
    33     1    29    1
    34     1    30    1
    35     1    31    1
    36     3    32    1
    37     6    33    1
    38    11    34    1
    39    11    35    1
    40    13    36    1
    41    14    37    1
    42    14    38    1
    43    15    39    1
    44    15    40    1
    45    16    41    1
    46    18    42    1
    47    21    43    1
    48    22    44    1
    49    25    45    1
    50    26    46    1
    51    26    47    1
    52    27    48    1
    53    27    49    1
    54    28    50    1
    55    28    51    1
