
     RDKit          3D

 45 48  0  0  0  0  0  0  0  0999 V2000
   -5.7944    0.5956    0.8500 N   0  0  0  0  0  0  0  0  0  0  0  0
   -4.5406    0.2016    0.2237 C   0  0  0  0  0  0  0  0  0  0  0  0
   -4.7660   -1.1221   -0.4408 C   0  0  0  0  0  0  0  0  0  0  0  0
   -3.5122   -1.7121   -1.0260 C   0  0  0  0  0  0  0  0  0  0  0  0
   -2.2673   -1.2353   -0.2847 C   0  0  0  0  0  0  0  0  0  0  0  0
   -1.7959   -0.0629   -0.9457 N   0  0  0  0  0  0  0  0  0  0  0  0
   -0.6163    0.5116   -0.3617 C   0  0  0  0  0  0  0  0  0  0  0  0
   -0.1285    1.7633   -1.0818 C   0  0  0  0  0  0  0  0  0  0  0  0
    0.6526    0.4274   -1.1237 C   0  0  0  0  0  0  0  0  0  0  0  0
    1.9572    0.5091   -0.4655 C   0  0  0  0  0  0  0  0  0  0  0  0
    2.1671    1.1754    0.7348 C   0  0  0  0  0  0  0  0  0  0  0  0
    3.4141    1.2267    1.3192 C   0  0  0  0  0  0  0  0  0  0  0  0
    4.5082    0.6135    0.7291 C   0  0  0  0  0  0  0  0  0  0  0  0
    5.7479    0.6626    1.3069 C   0  0  0  0  0  0  0  0  0  0  0  0
    6.8107    0.0473    0.7008 C   0  0  0  0  0  0  0  0  0  0  0  0
    6.6705   -0.6308   -0.4914 C   0  0  0  0  0  0  0  0  0  0  0  0
    5.4133   -0.6679   -1.0561 C   0  0  0  0  0  0  0  0  0  0  0  0
    4.3201   -0.0592   -0.4731 C   0  0  0  0  0  0  0  0  0  0  0  0
    3.0631   -0.0906   -1.0281 C   0  0  0  0  0  0  0  0  0  0  0  0
   -2.6497   -1.0389    1.1468 C   0  0  0  0  0  0  0  0  0  0  0  0
   -3.4835    0.1935    1.2732 C   0  0  0  0  0  0  0  0  0  0  0  0
   -5.8213    0.3842    1.8619 H   0  0  0  0  0  0  0  0  0  0  0  0
   -6.0452    1.5833    0.6230 H   0  0  0  0  0  0  0  0  0  0  0  0
   -4.3434    0.9724   -0.5784 H   0  0  0  0  0  0  0  0  0  0  0  0
   -5.4928   -0.9540   -1.2701 H   0  0  0  0  0  0  0  0  0  0  0  0
   -5.2652   -1.7875    0.2817 H   0  0  0  0  0  0  0  0  0  0  0  0
   -3.6044   -2.8142   -0.9925 H   0  0  0  0  0  0  0  0  0  0  0  0
   -3.4525   -1.4282   -2.1048 H   0  0  0  0  0  0  0  0  0  0  0  0
   -1.5088   -2.0658   -0.3878 H   0  0  0  0  0  0  0  0  0  0  0  0
   -1.7511   -0.2204   -1.9586 H   0  0  0  0  0  0  0  0  0  0  0  0
   -0.5858    0.4853    0.7423 H   0  0  0  0  0  0  0  0  0  0  0  0
   -0.5816    2.0412   -2.0344 H   0  0  0  0  0  0  0  0  0  0  0  0
    0.2360    2.5495   -0.4035 H   0  0  0  0  0  0  0  0  0  0  0  0
    0.6248   -0.1290   -2.0673 H   0  0  0  0  0  0  0  0  0  0  0  0
    1.3085    1.6442    1.1771 H   0  0  0  0  0  0  0  0  0  0  0  0
    3.5759    1.7461    2.2541 H   0  0  0  0  0  0  0  0  0  0  0  0
    5.8328    1.2049    2.2495 H   0  0  0  0  0  0  0  0  0  0  0  0
    7.7935    0.0788    1.1464 H   0  0  0  0  0  0  0  0  0  0  0  0
    7.5349   -1.1051   -0.9406 H   0  0  0  0  0  0  0  0  0  0  0  0
    5.2813   -1.1942   -1.9906 H   0  0  0  0  0  0  0  0  0  0  0  0
    2.9451   -0.6213   -1.9645 H   0  0  0  0  0  0  0  0  0  0  0  0
   -3.2982   -1.9154    1.4360 H   0  0  0  0  0  0  0  0  0  0  0  0
   -1.7939   -1.0668    1.8514 H   0  0  0  0  0  0  0  0  0  0  0  0
   -3.9134    0.1893    2.3161 H   0  0  0  0  0  0  0  0  0  0  0  0
   -2.8455    1.1150    1.2476 H   0  0  0  0  0  0  0  0  0  0  0  0
  1  2  1  0
  2  3  1  0
  3  4  1  0
  4  5  1  0
  5  6  1  0
  6  7  1  0
  7  8  1  0
  8  9  1  0
  9 10  1  0
 10 11  2  0
 11 12  1  0
 12 13  2  0
 13 14  1  0
 14 15  2  0
 15 16  1  0
 16 17  2  0
 17 18  1  0
 18 19  2  0
  5 20  1  0
 20 21  1  0
 21  2  1  0
  9  7  1  0
 19 10  1  0
 18 13  1  0
  1 22  1  0
  1 23  1  0
  2 24  1  0
  3 25  1  0
  3 26  1  0
  4 27  1  0
  4 28  1  0
  5 29  1  0
  6 30  1  0
  7 31  1  0
  8 32  1  0
  8 33  1  0
  9 34  1  0
 11 35  1  0
 12 36  1  0
 14 37  1  0
 15 38  1  0
 16 39  1  0
 17 40  1  0
 19 41  1  0
 20 42  1  0
 20 43  1  0
 21 44  1  0
 21 45  1  0
M  END
$$$$
