@<TRIPOS>MOLECULE
*****
 45 48 0 0 0
SMALL
GASTEIGER

@<TRIPOS>ATOM
      1 N          -5.7944    0.5956    0.8500 N.3     1  UNL1       -0.3272
      2 C          -4.5406    0.2016    0.2237 C.3     1  UNL1        0.0049
      3 C          -4.7660   -1.1221   -0.4408 C.3     1  UNL1       -0.0363
      4 C          -3.5122   -1.7121   -1.0260 C.3     1  UNL1       -0.0361
      5 C          -2.2673   -1.2353   -0.2847 C.3     1  UNL1        0.0080
      6 N          -1.7959   -0.0629   -0.9457 N.3     1  UNL1       -0.3099
      7 C          -0.6163    0.5116   -0.3617 C.3     1  UNL1        0.0153
      8 C          -0.1285    1.7633   -1.0818 C.3     1  UNL1       -0.0287
      9 C           0.6526    0.4274   -1.1237 C.3     1  UNL1        0.0010
     10 C           1.9572    0.5091   -0.4655 C.ar    1  UNL1       -0.0422
     11 C           2.1671    1.1754    0.7348 C.ar    1  UNL1       -0.0577
     12 C           3.4141    1.2267    1.3192 C.ar    1  UNL1       -0.0538
     13 C           4.5082    0.6135    0.7291 C.ar    1  UNL1       -0.0179
     14 C           5.7479    0.6626    1.3069 C.ar    1  UNL1       -0.0540
     15 C           6.8107    0.0473    0.7008 C.ar    1  UNL1       -0.0612
     16 C           6.6705   -0.6308   -0.4914 C.ar    1  UNL1       -0.0612
     17 C           5.4133   -0.6679   -1.0561 C.ar    1  UNL1       -0.0540
     18 C           4.3201   -0.0592   -0.4731 C.ar    1  UNL1       -0.0176
     19 C           3.0631   -0.0906   -1.0281 C.ar    1  UNL1       -0.0505
     20 C          -2.6497   -1.0389    1.1468 C.3     1  UNL1       -0.0361
     21 C          -3.4835    0.1935    1.2732 C.3     1  UNL1       -0.0363
     22 H          -5.8213    0.3842    1.8619 H       1  UNL1        0.1185
     23 H          -6.0452    1.5833    0.6230 H       1  UNL1        0.1185
     24 H          -4.3434    0.9724   -0.5784 H       1  UNL1        0.0458
     25 H          -5.4928   -0.9540   -1.2701 H       1  UNL1        0.0281
     26 H          -5.2652   -1.7875    0.2817 H       1  UNL1        0.0281
     27 H          -3.6044   -2.8142   -0.9925 H       1  UNL1        0.0281
     28 H          -3.4525   -1.4282   -2.1048 H       1  UNL1        0.0281
     29 H          -1.5088   -2.0658   -0.3878 H       1  UNL1        0.0460
     30 H          -1.7511   -0.2204   -1.9586 H       1  UNL1        0.1225
     31 H          -0.5858    0.4853    0.7423 H       1  UNL1        0.0466
     32 H          -0.5816    2.0412   -2.0344 H       1  UNL1        0.0287
     33 H           0.2360    2.5495   -0.4035 H       1  UNL1        0.0287
     34 H           0.6248   -0.1290   -2.0673 H       1  UNL1        0.0364
     35 H           1.3085    1.6442    1.1771 H       1  UNL1        0.0621
     36 H           3.5759    1.7461    2.2541 H       1  UNL1        0.0624
     37 H           5.8328    1.2049    2.2495 H       1  UNL1        0.0624
     38 H           7.7935    0.0788    1.1464 H       1  UNL1        0.0618
     39 H           7.5349   -1.1051   -0.9406 H       1  UNL1        0.0618
     40 H           5.2813   -1.1942   -1.9906 H       1  UNL1        0.0624
     41 H           2.9451   -0.6213   -1.9645 H       1  UNL1        0.0626
     42 H          -3.2982   -1.9154    1.4360 H       1  UNL1        0.0281
     43 H          -1.7939   -1.0668    1.8514 H       1  UNL1        0.0281
     44 H          -3.9134    0.1893    2.3161 H       1  UNL1        0.0281
     45 H          -2.8455    1.1150    1.2476 H       1  UNL1        0.0281
@<TRIPOS>BOND
     1     1     2    1
     2     2     3    1
     3     3     4    1
     4     4     5    1
     5     5     6    1
     6     6     7    1
     7     7     8    1
     8     8     9    1
     9     9    10    1
    10    10    11   ar
    11    11    12   ar
    12    12    13   ar
    13    13    14   ar
    14    14    15   ar
    15    15    16   ar
    16    16    17   ar
    17    17    18   ar
    18    18    19   ar
    19     5    20    1
    20    20    21    1
    21    21     2    1
    22     9     7    1
    23    19    10   ar
    24    18    13   ar
    25     1    22    1
    26     1    23    1
    27     2    24    1
    28     3    25    1
    29     3    26    1
    30     4    27    1
    31     4    28    1
    32     5    29    1
    33     6    30    1
    34     7    31    1
    35     8    32    1
    36     8    33    1
    37     9    34    1
    38    11    35    1
    39    12    36    1
    40    14    37    1
    41    15    38    1
    42    16    39    1
    43    17    40    1
    44    19    41    1
    45    20    42    1
    46    20    43    1
    47    21    44    1
    48    21    45    1
