@<TRIPOS>MOLECULE
*****
 71 78 0 0 0
SMALL
GASTEIGER

@<TRIPOS>ATOM
      1 C           8.9312    0.6094   -0.6909 C.3     1  UNL1       -0.0653
      2 C           8.2504    0.2372    0.5960 C.3     1  UNL1       -0.0559
      3 C           6.7668    0.0142    0.3630 C.3     1  UNL1       -0.0532
      4 C           6.1202    1.2566   -0.1714 C.3     1  UNL1       -0.0500
      5 C           4.6394    1.0723   -0.4196 C.3     1  UNL1       -0.0185
      6 C           3.9116    0.7109    0.8336 C.3     1  UNL1        0.0926
      7 O           2.5354    0.5516    0.5851 O.3     1  UNL1       -0.4625
      8 C           1.9730   -0.3723   -0.2658 C.2     1  UNL1        0.3442
      9 O           2.7401   -1.1496   -0.8797 O.2     1  UNL1       -0.2474
     10 C           0.4998   -0.4116   -0.4212 C.3     1  UNL1        0.2144
     11 O           0.2082   -1.4258   -1.3284 O.3     1  UNL1       -0.3737
     12 C           0.0754    0.8820   -1.0787 C.3     1  UNL1        0.0368
     13 C          -0.6667    1.5660    0.0384 C.3     1  UNL1        0.1420
     14 O          -0.5028    0.8525    1.1712 O.3     1  UNL1       -0.3273
     15 C          -0.2225   -0.5058    0.8602 C.3     1  UNL1        0.1860
     16 C           0.6288   -0.8999    2.0361 C.3     1  UNL1       -0.0128
     17 N          -1.5037   -1.1796    0.7897 N.ar    1  UNL1       -0.3064
     18 C          -1.7835   -2.4507    1.1318 C.ar    1  UNL1        0.0527
     19 C          -0.9966   -3.4836    1.5936 C.ar    1  UNL1       -0.0375
     20 C          -1.5225   -4.7232    1.8718 C.ar    1  UNL1       -0.0598
     21 C          -2.8849   -4.9885    1.6959 C.ar    1  UNL1       -0.0611
     22 C          -3.6782   -3.9595    1.2331 C.ar    1  UNL1       -0.0520
     23 C          -3.1331   -2.7250    0.9602 C.ar    1  UNL1        0.0081
     24 C          -3.6982   -1.5865    0.4951 C.ar    1  UNL1        0.0151
     25 C          -4.9839   -1.1826    0.1180 C.ar    1  UNL1       -0.0078
     26 C          -5.2681    0.0916   -0.3421 C.ar    1  UNL1        0.0518
     27 C          -4.2415    1.0036   -0.4344 C.ar    1  UNL1        0.0221
     28 C          -4.1375    2.3059   -0.8434 C.ar    1  UNL1        0.0085
     29 C          -5.0197    3.2423   -1.3186 C.ar    1  UNL1       -0.0520
     30 C          -4.6266    4.5418   -1.6725 C.ar    1  UNL1       -0.0611
     31 C          -3.3014    4.8705   -1.5305 C.ar    1  UNL1       -0.0598
     32 C          -2.4057    3.9404   -1.0548 C.ar    1  UNL1       -0.0375
     33 C          -2.7970    2.6666   -0.7090 C.ar    1  UNL1        0.0524
     34 N          -2.1011    1.6259   -0.2345 N.ar    1  UNL1       -0.3114
     35 C          -2.9575    0.6130   -0.0612 C.ar    1  UNL1        0.0774
     36 C          -2.7140   -0.6672    0.3951 C.ar    1  UNL1        0.0772
     37 C          -6.6851    0.1879   -0.6455 C.2     1  UNL1        0.2453
     38 O          -7.3985    1.1122   -1.0768 O.2     1  UNL1       -0.2702
     39 N          -7.2408   -1.0969   -0.3438 N.am    1  UNL1       -0.3072
     40 C          -6.2168   -1.9828    0.1339 C.3     1  UNL1        0.0385
     41 H           9.8766    0.0294   -0.8175 H       1  UNL1        0.0230
     42 H           9.1734    1.6866   -0.7300 H       1  UNL1        0.0230
     43 H           8.2819    0.3558   -1.5725 H       1  UNL1        0.0230
     44 H           8.7010   -0.7135    0.9621 H       1  UNL1        0.0263
     45 H           8.3670    0.9886    1.3815 H       1  UNL1        0.0263
     46 H           6.6548   -0.8460   -0.3224 H       1  UNL1        0.0265
     47 H           6.2946   -0.2427    1.3518 H       1  UNL1        0.0265
     48 H           6.5776    1.4742   -1.1797 H       1  UNL1        0.0266
     49 H           6.3508    2.1229    0.4534 H       1  UNL1        0.0266
     50 H           4.5414    0.2536   -1.1492 H       1  UNL1        0.0298
     51 H           4.2472    2.0395   -0.8405 H       1  UNL1        0.0298
     52 H           4.0845    1.4191    1.6636 H       1  UNL1        0.0697
     53 H           4.2785   -0.3174    1.1296 H       1  UNL1        0.0697
     54 H           0.8409   -2.1773   -1.2002 H       1  UNL1        0.2111
     55 H          -0.6429    0.7115   -1.9038 H       1  UNL1        0.0344
     56 H           0.9358    1.4734   -1.4472 H       1  UNL1        0.0344
     57 H          -0.2904    2.6048    0.1075 H       1  UNL1        0.0840
     58 H           0.0145   -1.2879    2.8392 H       1  UNL1        0.0277
     59 H           1.4824   -1.5509    1.8185 H       1  UNL1        0.0277
     60 H           1.1297    0.0293    2.4707 H       1  UNL1        0.0277
     61 H           0.0502   -3.3308    1.7292 H       1  UNL1        0.0638
     62 H          -0.8807   -5.4910    2.2263 H       1  UNL1        0.0618
     63 H          -3.3140   -5.9546    1.9092 H       1  UNL1        0.0618
     64 H          -4.7461   -4.1585    1.0922 H       1  UNL1        0.0624
     65 H          -6.0509    2.9731   -1.4242 H       1  UNL1        0.0624
     66 H          -5.3825    5.1965   -2.0309 H       1  UNL1        0.0618
     67 H          -2.9713    5.8810   -1.8011 H       1  UNL1        0.0618
     68 H          -1.3598    4.1923   -0.9403 H       1  UNL1        0.0638
     69 H          -8.2641   -1.3527   -0.4587 H       1  UNL1        0.1493
     70 H          -6.1703   -2.8557   -0.5580 H       1  UNL1        0.0512
     71 H          -6.4023   -2.3159    1.1850 H       1  UNL1        0.0512
@<TRIPOS>BOND
     1     1     2    1
     2     2     3    1
     3     3     4    1
     4     4     5    1
     5     5     6    1
     6     6     7    1
     7     7     8    1
     8     8     9    2
     9     8    10    1
    10    10    11    1
    11    10    12    1
    12    12    13    1
    13    13    14    1
    14    14    15    1
    15    15    16    1
    16    15    17    1
    17    17    18   ar
    18    18    19   ar
    19    19    20   ar
    20    20    21   ar
    21    21    22   ar
    22    22    23   ar
    23    23    24   ar
    24    24    25   ar
    25    25    26   ar
    26    26    27   ar
    27    27    28   ar
    28    28    29   ar
    29    29    30   ar
    30    30    31   ar
    31    31    32   ar
    32    32    33   ar
    33    33    34   ar
    34    34    35   ar
    35    35    36   ar
    36    26    37    1
    37    37    38    2
    38    37    39   am
    39    39    40    1
    40    15    10    1
    41    36    17   ar
    42    34    13    1
    43    23    18   ar
    44    36    24   ar
    45    40    25    1
    46    35    27   ar
    47    33    28   ar
    48     1    41    1
    49     1    42    1
    50     1    43    1
    51     2    44    1
    52     2    45    1
    53     3    46    1
    54     3    47    1
    55     4    48    1
    56     4    49    1
    57     5    50    1
    58     5    51    1
    59     6    52    1
    60     6    53    1
    61    11    54    1
    62    12    55    1
    63    12    56    1
    64    13    57    1
    65    16    58    1
    66    16    59    1
    67    16    60    1
    68    19    61    1
    69    20    62    1
    70    21    63    1
    71    22    64    1
    72    29    65    1
    73    30    66    1
    74    31    67    1
    75    32    68    1
    76    39    69    1
    77    40    70    1
    78    40    71    1
