@<TRIPOS>MOLECULE
*****
 25 25 0 0 0
SMALL
GASTEIGER

@<TRIPOS>ATOM
      1 C          -2.7125    1.0737    0.5806 C.3     1  UNL1       -0.0610
      2 C          -1.3849    0.6237    0.0159 C.3     1  UNL1       -0.0280
      3 C          -1.5457   -0.4629   -0.9943 C.3     1  UNL1       -0.0476
      4 C          -0.4793   -1.5134   -0.9837 C.3     1  UNL1       -0.0369
      5 C           0.8806   -1.0474   -0.5968 C.3     1  UNL1        0.0147
      6 N           0.8484   -0.0237    0.4441 N.am    1  UNL1       -0.3014
      7 C          -0.3978    0.2613    1.1206 C.3     1  UNL1        0.0172
      8 C           2.0442    0.6730    0.7721 C.2     1  UNL1        0.2125
      9 C           3.3076    0.3699    0.0720 C.3     1  UNL1        0.0124
     10 O           2.0205    1.5694    1.6823 O.2     1  UNL1       -0.2759
     11 H          -2.6320    1.4154    1.6298 H       1  UNL1        0.0233
     12 H          -3.4283    0.2258    0.4690 H       1  UNL1        0.0233
     13 H          -3.0962    1.8787   -0.0915 H       1  UNL1        0.0233
     14 H          -0.9083    1.5023   -0.5082 H       1  UNL1        0.0313
     15 H          -1.6545   -0.0406   -2.0142 H       1  UNL1        0.0269
     16 H          -2.5183   -0.9996   -0.7993 H       1  UNL1        0.0269
     17 H          -0.4057   -1.9181   -2.0350 H       1  UNL1        0.0280
     18 H          -0.7741   -2.3852   -0.3602 H       1  UNL1        0.0280
     19 H           1.4285   -1.9387   -0.1723 H       1  UNL1        0.0464
     20 H           1.4932   -0.7107   -1.4468 H       1  UNL1        0.0464
     21 H          -0.7569   -0.6083    1.7095 H       1  UNL1        0.0467
     22 H          -0.2718    1.1257    1.7728 H       1  UNL1        0.0467
     23 H           4.1468    0.4706    0.7901 H       1  UNL1        0.0323
     24 H           3.3413   -0.6555   -0.3174 H       1  UNL1        0.0323
     25 H           3.4553    1.1147   -0.7390 H       1  UNL1        0.0323
@<TRIPOS>BOND
     1     1     2    1
     2     2     3    1
     3     3     4    1
     4     4     5    1
     5     5     6    1
     6     6     7    1
     7     6     8   am
     8     8     9    1
     9     8    10    2
    10     7     2    1
    11     1    11    1
    12     1    12    1
    13     1    13    1
    14     2    14    1
    15     3    15    1
    16     3    16    1
    17     4    17    1
    18     4    18    1
    19     5    19    1
    20     5    20    1
    21     7    21    1
    22     7    22    1
    23     9    23    1
    24     9    24    1
    25     9    25    1
