
     RDKit          3D

 47 49  0  0  0  0  0  0  0  0999 V2000
   -4.8302    0.4196   -2.3749 C   0  0  0  0  0  0  0  0  0  0  0  0
   -3.5323    0.6607   -1.7169 N   0  0  0  0  0  0  0  0  0  0  0  0
   -3.5651    1.6437   -0.6635 C   0  0  0  0  0  0  0  0  0  0  0  0
   -3.9539    0.9672    0.5991 C   0  0  0  0  0  0  0  0  0  0  0  0
   -5.3060    0.7988    0.9117 C   0  0  0  0  0  0  0  0  0  0  0  0
   -5.6346    0.1814    2.0814 C   0  0  0  0  0  0  0  0  0  0  0  0
   -4.6963   -0.2908    2.9824 C   0  0  0  0  0  0  0  0  0  0  0  0
   -3.3607   -0.1309    2.6873 C   0  0  0  0  0  0  0  0  0  0  0  0
   -3.0118    0.5023    1.4883 C   0  0  0  0  0  0  0  0  0  0  0  0
   -2.3753   -0.0347   -2.0989 C   0  0  0  0  0  0  0  0  0  0  0  0
   -2.4685   -0.8943   -3.0281 O   0  0  0  0  0  0  0  0  0  0  0  0
   -1.0896    0.1893   -1.4806 C   0  0  0  0  0  0  0  0  0  0  0  0
   -0.4455   -0.7691   -0.7094 C   0  0  0  0  0  0  0  0  0  0  0  0
    0.7886   -0.5339   -0.1349 C   0  0  0  0  0  0  0  0  0  0  0  0
    1.4408    0.6647   -0.2999 C   0  0  0  0  0  0  0  0  0  0  0  0
    2.9981    1.0192    0.4118 S   0  0  0  0  0  6  0  0  0  0  0  0
    3.1424    0.4241    1.7669 O   0  0  0  0  0  0  0  0  0  0  0  0
    3.1470    2.5123    0.5545 O   0  0  0  0  0  0  0  0  0  0  0  0
    4.2942    0.4406   -0.5874 N   0  0  0  0  0  0  0  0  0  0  0  0
    5.1722   -0.6027   -0.1475 C   0  0  0  0  0  0  0  0  0  0  0  0
    4.6649   -1.7184    0.5190 C   0  0  0  0  0  0  0  0  0  0  0  0
    5.5047   -2.7353    0.9660 C   0  0  0  0  0  0  0  0  0  0  0  0
    6.8538   -2.6240    0.7390 C   0  0  0  0  0  0  0  0  0  0  0  0
    7.3771   -1.5221    0.0778 C   0  0  0  0  0  0  0  0  0  0  0  0
    6.5325   -0.5266   -0.3567 C   0  0  0  0  0  0  0  0  0  0  0  0
    0.7865    1.6113   -1.0719 C   0  0  0  0  0  0  0  0  0  0  0  0
   -0.4423    1.3984   -1.6530 C   0  0  0  0  0  0  0  0  0  0  0  0
   -5.3806   -0.2405   -1.6484 H   0  0  0  0  0  0  0  0  0  0  0  0
   -4.6965   -0.0667   -3.3603 H   0  0  0  0  0  0  0  0  0  0  0  0
   -5.4108    1.3628   -2.4354 H   0  0  0  0  0  0  0  0  0  0  0  0
   -2.5586    2.1348   -0.5114 H   0  0  0  0  0  0  0  0  0  0  0  0
   -4.2664    2.4685   -0.9137 H   0  0  0  0  0  0  0  0  0  0  0  0
   -6.0392    1.1728    0.1969 H   0  0  0  0  0  0  0  0  0  0  0  0
   -6.6749    0.0435    2.3356 H   0  0  0  0  0  0  0  0  0  0  0  0
   -4.9659   -0.7853    3.9175 H   0  0  0  0  0  0  0  0  0  0  0  0
   -2.5618   -0.4825    3.3580 H   0  0  0  0  0  0  0  0  0  0  0  0
   -1.9691    0.6444    1.2419 H   0  0  0  0  0  0  0  0  0  0  0  0
   -0.9504   -1.7295   -0.5684 H   0  0  0  0  0  0  0  0  0  0  0  0
    1.2695   -1.2950    0.4610 H   0  0  0  0  0  0  0  0  0  0  0  0
    4.4336    0.8690   -1.5354 H   0  0  0  0  0  0  0  0  0  0  0  0
    3.6012   -1.7960    0.6927 H   0  0  0  0  0  0  0  0  0  0  0  0
    5.0290   -3.5712    1.4781 H   0  0  0  0  0  0  0  0  0  0  0  0
    7.4854   -3.4275    1.0964 H   0  0  0  0  0  0  0  0  0  0  0  0
    8.4328   -1.4254   -0.1044 H   0  0  0  0  0  0  0  0  0  0  0  0
    6.9001    0.3591   -0.8823 H   0  0  0  0  0  0  0  0  0  0  0  0
    1.2647    2.5706   -1.2270 H   0  0  0  0  0  0  0  0  0  0  0  0
   -0.9328    2.1436   -2.2520 H   0  0  0  0  0  0  0  0  0  0  0  0
  1  2  1  0
  2  3  1  0
  3  4  1  0
  4  5  2  0
  5  6  1  0
  6  7  2  0
  7  8  1  0
  8  9  2  0
  2 10  1  0
 10 11  2  0
 10 12  1  0
 12 13  2  0
 13 14  1  0
 14 15  2  0
 15 16  1  0
 16 17  2  0
 16 18  2  0
 16 19  1  0
 19 20  1  0
 20 21  2  0
 21 22  1  0
 22 23  2  0
 23 24  1  0
 24 25  2  0
 15 26  1  0
 26 27  2  0
  9  4  1  0
 27 12  1  0
 25 20  1  0
  1 28  1  0
  1 29  1  0
  1 30  1  0
  3 31  1  0
  3 32  1  0
  5 33  1  0
  6 34  1  0
  7 35  1  0
  8 36  1  0
  9 37  1  0
 13 38  1  0
 14 39  1  0
 19 40  1  0
 21 41  1  0
 22 42  1  0
 23 43  1  0
 24 44  1  0
 25 45  1  0
 26 46  1  0
 27 47  1  0
M  END
$$$$
