@<TRIPOS>MOLECULE
*****
 47 49 0 0 0
SMALL
GASTEIGER

@<TRIPOS>ATOM
      1 C          -4.8302    0.4196   -2.3749 C.3     1  UNL1        0.0038
      2 N          -3.5323    0.6607   -1.7169 N.am    1  UNL1       -0.2963
      3 C          -3.5651    1.6437   -0.6635 C.3     1  UNL1        0.0397
      4 C          -3.9539    0.9672    0.5991 C.ar    1  UNL1       -0.0301
      5 C          -5.3060    0.7988    0.9117 C.ar    1  UNL1       -0.0571
      6 C          -5.6346    0.1814    2.0814 C.ar    1  UNL1       -0.0615
      7 C          -4.6963   -0.2908    2.9824 C.ar    1  UNL1       -0.0617
      8 C          -3.3607   -0.1309    2.6873 C.ar    1  UNL1       -0.0615
      9 C          -3.0118    0.5023    1.4883 C.ar    1  UNL1       -0.0571
     10 C          -2.3753   -0.0347   -2.0989 C.2     1  UNL1        0.2467
     11 O          -2.4685   -0.8943   -3.0281 O.2     1  UNL1       -0.2700
     12 C          -1.0896    0.1893   -1.4806 C.ar    1  UNL1        0.0370
     13 C          -0.4455   -0.7691   -0.7094 C.ar    1  UNL1       -0.0478
     14 C           0.7886   -0.5339   -0.1349 C.ar    1  UNL1       -0.0344
     15 C           1.4408    0.6647   -0.2999 C.ar    1  UNL1        0.1085
     16 S           2.9981    1.0192    0.4118 S.O2    1  UNL1        0.0723
     17 O           3.1424    0.4241    1.7669 O.2     1  UNL1       -0.1500
     18 O           3.1470    2.5123    0.5545 O.2     1  UNL1       -0.1500
     19 N           4.2942    0.4406   -0.5874 N.pl3   1  UNL1       -0.2163
     20 C           5.1722   -0.6027   -0.1475 C.ar    1  UNL1        0.0480
     21 C           4.6649   -1.7184    0.5190 C.ar    1  UNL1       -0.0393
     22 C           5.5047   -2.7353    0.9660 C.ar    1  UNL1       -0.0600
     23 C           6.8538   -2.6240    0.7390 C.ar    1  UNL1       -0.0616
     24 C           7.3771   -1.5221    0.0778 C.ar    1  UNL1       -0.0600
     25 C           6.5325   -0.5266   -0.3567 C.ar    1  UNL1       -0.0393
     26 C           0.7865    1.6113   -1.0719 C.ar    1  UNL1       -0.0344
     27 C          -0.4423    1.3984   -1.6530 C.ar    1  UNL1       -0.0478
     28 H          -5.3806   -0.2405   -1.6484 H       1  UNL1        0.0429
     29 H          -4.6965   -0.0667   -3.3603 H       1  UNL1        0.0429
     30 H          -5.4108    1.3628   -2.4354 H       1  UNL1        0.0429
     31 H          -2.5586    2.1348   -0.5114 H       1  UNL1        0.0514
     32 H          -4.2664    2.4685   -0.9137 H       1  UNL1        0.0514
     33 H          -6.0392    1.1728    0.1969 H       1  UNL1        0.0621
     34 H          -6.6749    0.0435    2.3356 H       1  UNL1        0.0618
     35 H          -4.9659   -0.7853    3.9175 H       1  UNL1        0.0618
     36 H          -2.5618   -0.4825    3.3580 H       1  UNL1        0.0618
     37 H          -1.9691    0.6444    1.2419 H       1  UNL1        0.0621
     38 H          -0.9504   -1.7295   -0.5684 H       1  UNL1        0.0626
     39 H           1.2695   -1.2950    0.4610 H       1  UNL1        0.0637
     40 H           4.4336    0.8690   -1.5354 H       1  UNL1        0.1737
     41 H           3.6012   -1.7960    0.6927 H       1  UNL1        0.0636
     42 H           5.0290   -3.5712    1.4781 H       1  UNL1        0.0618
     43 H           7.4854   -3.4275    1.0964 H       1  UNL1        0.0618
     44 H           8.4328   -1.4254   -0.1044 H       1  UNL1        0.0618
     45 H           6.9001    0.3591   -0.8823 H       1  UNL1        0.0636
     46 H           1.2647    2.5706   -1.2270 H       1  UNL1        0.0637
     47 H          -0.9328    2.1436   -2.2520 H       1  UNL1        0.0626
@<TRIPOS>BOND
     1     1     2    1
     2     2     3    1
     3     3     4    1
     4     4     5   ar
     5     5     6   ar
     6     6     7   ar
     7     7     8   ar
     8     8     9   ar
     9     2    10   am
    10    10    11    2
    11    10    12    1
    12    12    13   ar
    13    13    14   ar
    14    14    15   ar
    15    15    16    1
    16    16    17    2
    17    16    18    2
    18    16    19    1
    19    19    20    1
    20    20    21   ar
    21    21    22   ar
    22    22    23   ar
    23    23    24   ar
    24    24    25   ar
    25    15    26   ar
    26    26    27   ar
    27     9     4   ar
    28    27    12   ar
    29    25    20   ar
    30     1    28    1
    31     1    29    1
    32     1    30    1
    33     3    31    1
    34     3    32    1
    35     5    33    1
    36     6    34    1
    37     7    35    1
    38     8    36    1
    39     9    37    1
    40    13    38    1
    41    14    39    1
    42    19    40    1
    43    21    41    1
    44    22    42    1
    45    23    43    1
    46    24    44    1
    47    25    45    1
    48    26    46    1
    49    27    47    1
