
     RDKit          3D

 60 64  0  0  0  0  0  0  0  0999 V2000
  -10.4015    0.3450    2.2772 C   0  0  0  0  0  0  0  0  0  0  0  0
   -9.3367   -0.3758    1.7109 O   0  0  0  0  0  0  0  0  0  0  0  0
   -8.1817    0.2903    1.3559 C   0  0  0  0  0  0  0  0  0  0  0  0
   -8.0330    1.6464    1.5377 C   0  0  0  0  0  0  0  0  0  0  0  0
   -6.8658    2.2611    1.1685 C   0  0  0  0  0  0  0  0  0  0  0  0
   -5.7944    1.5678    0.6044 C   0  0  0  0  0  0  0  0  0  0  0  0
   -5.9629    0.2170    0.4317 C   0  0  0  0  0  0  0  0  0  0  0  0
   -5.0761   -0.7416   -0.1084 C   0  0  0  0  0  0  0  0  0  0  0  0
   -3.7365   -0.4041   -0.5440 C   0  0  0  0  0  0  0  0  0  0  0  0
   -2.9687   -0.9749   -1.4126 C   0  0  0  0  0  0  0  0  0  0  0  0
   -1.6137   -0.5002   -1.7304 C   0  0  0  0  0  0  0  0  0  0  0  0
   -0.9369   -1.1341   -2.6026 O   0  0  0  0  0  0  0  0  0  0  0  0
   -0.9757    0.6108   -1.1532 N   0  0  0  0  0  0  0  0  0  0  0  0
    0.3575    1.0052   -1.5254 C   0  0  0  0  0  0  0  0  0  0  0  0
    0.4695    1.8975   -2.5679 C   0  0  0  0  0  0  0  0  0  0  0  0
    1.7034    2.3424   -3.0062 C   0  0  0  0  0  0  0  0  0  0  0  0
    2.8549    1.8599   -2.3589 C   0  0  0  0  0  0  0  0  0  0  0  0
    2.7641    0.9743   -1.3228 C   0  0  0  0  0  0  0  0  0  0  0  0
    3.9159    0.4412   -0.6159 C   0  0  0  0  0  0  0  0  0  0  0  0
    5.1711    0.7200   -0.8573 C   0  0  0  0  0  0  0  0  0  0  0  0
    6.3181    0.1777   -0.1399 C   0  0  0  0  0  0  0  0  0  0  0  0
    6.2056   -0.7076    0.8943 C   0  0  0  0  0  0  0  0  0  0  0  0
    7.3264   -1.2066    1.5590 C   0  0  0  0  0  0  0  0  0  0  0  0
    8.5701   -0.8066    1.1741 C   0  0  0  0  0  0  0  0  0  0  0  0
    9.6963   -1.2824    1.8119 C   0  0  0  0  0  0  0  0  0  0  0  0
   10.9640   -0.8899    1.4375 C   0  0  0  0  0  0  0  0  0  0  0  0
   11.0546    0.0079    0.3872 C   0  0  0  0  0  0  0  0  0  0  0  0
   12.6339    0.5320   -0.1206 Cl  0  0  0  0  0  0  0  0  0  0  0  0
    9.9292    0.4901   -0.2581 C   0  0  0  0  0  0  0  0  0  0  0  0
    8.6654    0.0875    0.1284 C   0  0  0  0  0  0  0  0  0  0  0  0
    7.5521    0.5537   -0.4971 N   0  0  0  0  0  0  0  0  0  0  0  0
    1.4880    0.5600   -0.9232 C   0  0  0  0  0  0  0  0  0  0  0  0
   -5.7342   -1.9338   -0.0463 C   0  0  0  0  0  0  0  0  0  0  0  0
   -5.2903   -3.2737   -0.3931 C   0  0  0  0  0  0  0  0  0  0  0  0
   -6.1601   -4.2293   -0.2256 O   0  0  0  0  0  0  0  0  0  0  0  0
   -4.0635   -3.6194   -0.8633 O   0  0  0  0  0  0  0  0  0  0  0  0
   -6.9795   -1.7041    0.5051 N   0  0  0  0  0  0  0  0  0  0  0  0
   -7.1110   -0.4155    0.7899 C   0  0  0  0  0  0  0  0  0  0  0  0
  -10.1097    0.6774    3.2786 H   0  0  0  0  0  0  0  0  0  0  0  0
  -10.6890    1.1842    1.6041 H   0  0  0  0  0  0  0  0  0  0  0  0
  -11.2718   -0.3628    2.4047 H   0  0  0  0  0  0  0  0  0  0  0  0
   -8.8646    2.2152    1.9811 H   0  0  0  0  0  0  0  0  0  0  0  0
   -6.7687    3.3212    1.3185 H   0  0  0  0  0  0  0  0  0  0  0  0
   -4.8852    2.0679    0.3205 H   0  0  0  0  0  0  0  0  0  0  0  0
   -3.2816    0.4939   -0.0362 H   0  0  0  0  0  0  0  0  0  0  0  0
   -3.3493   -1.7910   -1.9870 H   0  0  0  0  0  0  0  0  0  0  0  0
   -1.4832    1.1663   -0.4337 H   0  0  0  0  0  0  0  0  0  0  0  0
   -0.4054    2.2766   -3.0744 H   0  0  0  0  0  0  0  0  0  0  0  0
    1.8158    3.0421   -3.8220 H   0  0  0  0  0  0  0  0  0  0  0  0
    3.8249    2.1939   -2.6851 H   0  0  0  0  0  0  0  0  0  0  0  0
    3.7521   -0.2740    0.2146 H   0  0  0  0  0  0  0  0  0  0  0  0
    5.3333    1.4339   -1.6863 H   0  0  0  0  0  0  0  0  0  0  0  0
    5.2490   -1.0560    1.2383 H   0  0  0  0  0  0  0  0  0  0  0  0
    7.1838   -1.8984    2.3632 H   0  0  0  0  0  0  0  0  0  0  0  0
    9.6317   -1.9953    2.6463 H   0  0  0  0  0  0  0  0  0  0  0  0
   11.8546   -1.2460    1.9181 H   0  0  0  0  0  0  0  0  0  0  0  0
    9.9924    1.1985   -1.0874 H   0  0  0  0  0  0  0  0  0  0  0  0
    1.3915   -0.1428   -0.1028 H   0  0  0  0  0  0  0  0  0  0  0  0
   -3.6344   -4.4775   -0.6022 H   0  0  0  0  0  0  0  0  0  0  0  0
   -7.7043   -2.4154    0.6743 H   0  0  0  0  0  0  0  0  0  0  0  0
  1  2  1  0
  2  3  1  0
  3  4  2  0
  4  5  1  0
  5  6  2  0
  6  7  1  0
  7  8  1  0
  8  9  1  0
  9 10  2  0
 10 11  1  0
 11 12  2  0
 11 13  1  0
 13 14  1  0
 14 15  2  0
 15 16  1  0
 16 17  2  0
 17 18  1  0
 18 19  1  0
 19 20  2  0
 20 21  1  0
 21 22  2  0
 22 23  1  0
 23 24  2  0
 24 25  1  0
 25 26  2  0
 26 27  1  0
 27 28  1  0
 27 29  2  0
 29 30  1  0
 30 31  2  0
 18 32  2  0
  8 33  2  0
 33 34  1  0
 34 35  2  0
 34 36  1  0
 33 37  1  0
 37 38  1  0
 38  3  1  0
 38  7  2  0
 32 14  1  0
 31 21  1  0
 30 24  1  0
  1 39  1  0
  1 40  1  0
  1 41  1  0
  4 42  1  0
  5 43  1  0
  6 44  1  0
  9 45  1  0
 10 46  1  0
 13 47  1  0
 15 48  1  0
 16 49  1  0
 17 50  1  0
 19 51  1  0
 20 52  1  0
 22 53  1  0
 23 54  1  0
 25 55  1  0
 26 56  1  0
 29 57  1  0
 32 58  1  0
 36 59  1  0
 37 60  1  0
M  END
$$$$
