@<TRIPOS>MOLECULE
*****
 60 64 0 0 0
SMALL
GASTEIGER

@<TRIPOS>ATOM
      1 C         -10.4015    0.3450    2.2772 C.3     1  UNL1        0.0789
      2 O          -9.3367   -0.3758    1.7109 O.3     1  UNL1       -0.4930
      3 C          -8.1817    0.2903    1.3559 C.ar    1  UNL1        0.1439
      4 C          -8.0330    1.6464    1.5377 C.ar    1  UNL1       -0.0179
      5 C          -6.8658    2.2611    1.1685 C.ar    1  UNL1       -0.0576
      6 C          -5.7944    1.5678    0.6044 C.ar    1  UNL1       -0.0518
      7 C          -5.9629    0.2170    0.4317 C.ar    1  UNL1        0.0112
      8 C          -5.0761   -0.7416   -0.1084 C.ar    1  UNL1        0.0147
      9 C          -3.7365   -0.4041   -0.5440 C.2     1  UNL1       -0.0469
     10 C          -2.9687   -0.9749   -1.4126 C.2     1  UNL1        0.0011
     11 C          -1.6137   -0.5002   -1.7304 C.2     1  UNL1        0.2411
     12 O          -0.9369   -1.1341   -2.6026 O.2     1  UNL1       -0.2705
     13 N          -0.9757    0.6108   -1.1532 N.am    1  UNL1       -0.2820
     14 C           0.3575    1.0052   -1.5254 C.ar    1  UNL1        0.0342
     15 C           0.4695    1.8975   -2.5679 C.ar    1  UNL1       -0.0404
     16 C           1.7034    2.3424   -3.0062 C.ar    1  UNL1       -0.0595
     17 C           2.8549    1.8599   -2.3589 C.ar    1  UNL1       -0.0545
     18 C           2.7641    0.9743   -1.3228 C.ar    1  UNL1       -0.0232
     19 C           3.9159    0.4412   -0.6159 C.2     1  UNL1       -0.0525
     20 C           5.1711    0.7200   -0.8573 C.2     1  UNL1       -0.0357
     21 C           6.3181    0.1777   -0.1399 C.ar    1  UNL1        0.0646
     22 C           6.2056   -0.7076    0.8943 C.ar    1  UNL1       -0.0357
     23 C           7.3264   -1.2066    1.5590 C.ar    1  UNL1       -0.0506
     24 C           8.5701   -0.8066    1.1741 C.ar    1  UNL1        0.0005
     25 C           9.6963   -1.2824    1.8119 C.ar    1  UNL1       -0.0512
     26 C          10.9640   -0.8899    1.4375 C.ar    1  UNL1       -0.0427
     27 C          11.0546    0.0079    0.3872 C.ar    1  UNL1        0.0430
     28 CL         12.6339    0.5320   -0.1206 Cl      1  UNL1       -0.0835
     29 C           9.9292    0.4901   -0.2581 C.ar    1  UNL1       -0.0174
     30 C           8.6654    0.0875    0.1284 C.ar    1  UNL1        0.0730
     31 N           7.5521    0.5537   -0.4971 N.ar    1  UNL1       -0.2472
     32 C           1.4880    0.5600   -0.9232 C.ar    1  UNL1       -0.0333
     33 CA         -5.7342   -1.9338   -0.0463 C.ar    1  UNL1        0.1325
     34 C          -5.2903   -3.2737   -0.3931 C.2     1  UNL1        0.3539
     35 O          -6.1601   -4.2293   -0.2256 O.2     1  UNL1       -0.2435
     36 OXT        -4.0635   -3.6194   -0.8633 O.3     1  UNL1       -0.4761
     37 N          -6.9795   -1.7041    0.5051 N.ar    1  UNL1       -0.3457
     38 C          -7.1110   -0.4155    0.7899 C.ar    1  UNL1        0.0899
     39 H         -10.1097    0.6774    3.2786 H       1  UNL1        0.0660
     40 H         -10.6890    1.1842    1.6041 H       1  UNL1        0.0660
     41 H         -11.2718   -0.3628    2.4047 H       1  UNL1        0.0660
     42 H          -8.8646    2.2152    1.9811 H       1  UNL1        0.0655
     43 H          -6.7687    3.3212    1.3185 H       1  UNL1        0.0619
     44 H          -4.8852    2.0679    0.3205 H       1  UNL1        0.0624
     45 H          -3.2816    0.4939   -0.0362 H       1  UNL1        0.0626
     46 H          -3.3493   -1.7910   -1.9870 H       1  UNL1        0.0670
     47 H          -1.4832    1.1663   -0.4337 H       1  UNL1        0.1551
     48 H          -0.4054    2.2766   -3.0744 H       1  UNL1        0.0636
     49 H           1.8158    3.0421   -3.8220 H       1  UNL1        0.0618
     50 H           3.8249    2.1939   -2.6851 H       1  UNL1        0.0623
     51 H           3.7521   -0.2740    0.2146 H       1  UNL1        0.0624
     52 H           5.3333    1.4339   -1.6863 H       1  UNL1        0.0639
     53 H           5.2490   -1.0560    1.2383 H       1  UNL1        0.0639
     54 H           7.1838   -1.8984    2.3632 H       1  UNL1        0.0625
     55 H           9.6317   -1.9953    2.6463 H       1  UNL1        0.0625
     56 H          11.8546   -1.2460    1.9181 H       1  UNL1        0.0632
     57 H           9.9924    1.1985   -1.0874 H       1  UNL1        0.0653
     58 H           1.3915   -0.1428   -0.1028 H       1  UNL1        0.0642
     59 HXT        -3.6344   -4.4775   -0.6022 H       1  UNL1        0.2955
     60 H          -7.7043   -2.4154    0.6743 H       1  UNL1        0.1662
@<TRIPOS>BOND
     1     1     2    1
     2     2     3    1
     3     3     4   ar
     4     4     5   ar
     5     5     6   ar
     6     6     7   ar
     7     7     8   ar
     8     8     9    1
     9     9    10    2
    10    10    11    1
    11    11    12    2
    12    11    13   am
    13    13    14    1
    14    14    15   ar
    15    15    16   ar
    16    16    17   ar
    17    17    18   ar
    18    18    19    1
    19    19    20    2
    20    20    21    1
    21    21    22   ar
    22    22    23   ar
    23    23    24   ar
    24    24    25   ar
    25    25    26   ar
    26    26    27   ar
    27    27    28    1
    28    27    29   ar
    29    29    30   ar
    30    30    31   ar
    31    18    32   ar
    32     8    33   ar
    33    33    34    1
    34    34    35    2
    35    34    36    1
    36    33    37   ar
    37    37    38   ar
    38    38     3   ar
    39    38     7   ar
    40    32    14   ar
    41    31    21   ar
    42    30    24   ar
    43     1    39    1
    44     1    40    1
    45     1    41    1
    46     4    42    1
    47     5    43    1
    48     6    44    1
    49     9    45    1
    50    10    46    1
    51    13    47    1
    52    15    48    1
    53    16    49    1
    54    17    50    1
    55    19    51    1
    56    20    52    1
    57    22    53    1
    58    23    54    1
    59    25    55    1
    60    26    56    1
    61    29    57    1
    62    32    58    1
    63    36    59    1
    64    37    60    1
