@<TRIPOS>MOLECULE
*****
 42 43 0 0 0
SMALL
GASTEIGER

@<TRIPOS>ATOM
      1 C           4.7693    0.1304    0.5109 C.3     1  UNL1       -0.0130
      2 N           3.3563    0.4637    0.3210 N.3     1  UNL1       -0.3062
      3 C           3.3212    1.6282   -0.5607 C.3     1  UNL1       -0.0130
      4 C           2.7478   -0.6761   -0.2848 C.3     1  UNL1        0.0218
      5 C           1.2415   -0.5276   -0.4836 C.3     1  UNL1        0.0620
      6 O           0.6770   -0.3471    0.7492 O.3     1  UNL1       -0.3616
      7 C          -0.6876   -0.2216    0.8114 C.3     1  UNL1        0.1332
      8 C          -1.0174   -0.1063    2.3106 C.3     1  UNL1       -0.0259
      9 C          -1.1153    1.0533    0.2350 C.ar    1  UNL1       -0.0103
     10 C          -2.5086    1.0250    0.0784 C.ar    1  UNL1       -0.0555
     11 C          -3.2103    2.1093   -0.4435 C.ar    1  UNL1       -0.0614
     12 C          -2.5609    3.2606   -0.8295 C.ar    1  UNL1       -0.0617
     13 C          -1.1906    3.2855   -0.6741 C.ar    1  UNL1       -0.0614
     14 C          -0.4911    2.2173   -0.1587 C.ar    1  UNL1       -0.0555
     15 C          -1.4130   -1.3924    0.2921 C.ar    1  UNL1        0.0771
     16 C          -1.9838   -2.3299    1.1646 C.ar    1  UNL1       -0.0372
     17 C          -2.6608   -3.4080    0.6327 C.ar    1  UNL1       -0.0585
     18 C          -2.7408   -3.5076   -0.7373 C.ar    1  UNL1       -0.0436
     19 C          -2.1559   -2.5483   -1.5631 C.ar    1  UNL1        0.0280
     20 N          -1.5025   -1.5080   -1.0191 N.ar    1  UNL1       -0.2566
     21 H           5.0778   -0.4339   -0.3875 H       1  UNL1        0.0391
     22 H           5.3652    1.0657    0.6019 H       1  UNL1        0.0391
     23 H           4.9501   -0.4879    1.3965 H       1  UNL1        0.0391
     24 H           3.3235    2.5561    0.0286 H       1  UNL1        0.0391
     25 H           4.2613    1.6429   -1.1754 H       1  UNL1        0.0391
     26 H           2.5024    1.5817   -1.2802 H       1  UNL1        0.0391
     27 H           3.2004   -0.7748   -1.3052 H       1  UNL1        0.0449
     28 H           2.9908   -1.6156    0.2484 H       1  UNL1        0.0449
     29 H           1.0050    0.1951   -1.2596 H       1  UNL1        0.0573
     30 H           0.8463   -1.5246   -0.8585 H       1  UNL1        0.0573
     31 H          -0.5206   -0.8974    2.8855 H       1  UNL1        0.0265
     32 H          -0.7329    0.9293    2.6436 H       1  UNL1        0.0265
     33 H          -2.1308   -0.1900    2.3739 H       1  UNL1        0.0265
     34 H          -3.2048    0.2311    0.3138 H       1  UNL1        0.0621
     35 H          -4.2836    2.1568   -0.5923 H       1  UNL1        0.0618
     36 H          -3.0128    4.1371   -1.2385 H       1  UNL1        0.0618
     37 H          -0.5302    4.1204   -0.9313 H       1  UNL1        0.0618
     38 H           0.5703    2.1325    0.0156 H       1  UNL1        0.0621
     39 H          -1.9052   -2.2271    2.2327 H       1  UNL1        0.0636
     40 H          -3.1174   -4.1566    1.2655 H       1  UNL1        0.0619
     41 H          -3.2785   -4.3636   -1.1467 H       1  UNL1        0.0633
     42 H          -2.2505   -2.6776   -2.6343 H       1  UNL1        0.0829
@<TRIPOS>BOND
     1     1     2    1
     2     2     3    1
     3     2     4    1
     4     4     5    1
     5     5     6    1
     6     6     7    1
     7     7     8    1
     8     7     9    1
     9     9    10   ar
    10    10    11   ar
    11    11    12   ar
    12    12    13   ar
    13    13    14   ar
    14     7    15    1
    15    15    16   ar
    16    16    17   ar
    17    17    18   ar
    18    18    19   ar
    19    19    20   ar
    20    14     9   ar
    21    20    15   ar
    22     1    21    1
    23     1    22    1
    24     1    23    1
    25     3    24    1
    26     3    25    1
    27     3    26    1
    28     4    27    1
    29     4    28    1
    30     5    29    1
    31     5    30    1
    32     8    31    1
    33     8    32    1
    34     8    33    1
    35    10    34    1
    36    11    35    1
    37    12    36    1
    38    13    37    1
    39    14    38    1
    40    16    39    1
    41    17    40    1
    42    18    41    1
    43    19    42    1
