@<TRIPOS>MOLECULE
*****
 67 70 0 0 0
SMALL
GASTEIGER

@<TRIPOS>ATOM
      1 C          13.5391    1.0480   -0.5663 C.3     1  UNL1        0.0125
      2 C          12.0978    0.8004   -0.4802 C.2     1  UNL1        0.2152
      3 O          11.5106    0.3344   -1.5150 O.2     1  UNL1       -0.2757
      4 N          11.2817    1.0309    0.6555 N.am    1  UNL1       -0.2706
      5 C           9.8883    0.7512    0.6198 C.ar    1  UNL1        0.1249
      6 C           9.3835   -0.4948    0.9753 C.ar    1  UNL1       -0.0209
      7 C           8.0277   -0.7704    0.9425 C.ar    1  UNL1       -0.0493
      8 C           7.1350    0.2045    0.5493 C.ar    1  UNL1        0.0004
      9 C           5.7000   -0.0454    0.5014 C.ar    1  UNL1       -0.0163
     10 C           4.7926    0.9665    0.7399 C.ar    1  UNL1       -0.0522
     11 C           3.4327    0.7265    0.6943 C.ar    1  UNL1       -0.0403
     12 C           2.9090   -0.5170    0.4126 C.ar    1  UNL1        0.0275
     13 N           1.5109   -0.7706    0.3662 N.pl3   1  UNL1       -0.3354
     14 C           0.6152    0.3302    0.6305 C.3     1  UNL1        0.0861
     15 C          -0.8040   -0.2069    0.5170 C.2     1  UNL1        0.2343
     16 O          -0.9977   -1.3958    0.2400 O.2     1  UNL1       -0.2738
     17 N          -1.8474    0.6971    0.7388 N.am    1  UNL1       -0.2842
     18 C          -3.2213    0.3590    0.6714 C.ar    1  UNL1        0.0340
     19 C          -4.1757    1.3589    0.9328 C.ar    1  UNL1       -0.0402
     20 C          -5.4979    1.0565    0.8705 C.ar    1  UNL1       -0.0551
     21 C          -5.9905   -0.1990    0.5595 C.ar    1  UNL1       -0.0216
     22 C          -7.4455   -0.4578    0.5201 C.3     1  UNL1        0.0247
     23 N          -7.8558   -0.5843   -0.8625 N.3     1  UNL1       -0.2957
     24 C          -9.2718   -0.9121   -0.9559 C.3     1  UNL1        0.0118
     25 C         -10.0273    0.0763   -1.8114 C.3     1  UNL1        0.0087
     26 N          -9.8371    1.3945   -1.2395 N.3     1  UNL1       -0.3136
     27 C          -8.4383    1.7726   -1.2122 C.3     1  UNL1        0.0087
     28 C          -7.5337    0.6190   -1.5612 C.3     1  UNL1        0.0118
     29 C          -5.0653   -1.1822    0.3028 C.ar    1  UNL1        0.0609
     30 C          -5.5381   -2.5393   -0.0290 C.3     1  UNL1        0.4178
     31 F          -6.2869   -3.1252    0.9692 F       1  UNL1       -0.1659
     32 F          -6.1927   -2.5764   -1.2445 F       1  UNL1       -0.1659
     33 F          -4.4072   -3.3532   -0.1805 F       1  UNL1       -0.1659
     34 C          -3.6930   -0.8843    0.3634 C.ar    1  UNL1       -0.0285
     35 C           3.8269   -1.5367    0.1720 C.ar    1  UNL1       -0.0403
     36 C           5.1830   -1.2951    0.2181 C.ar    1  UNL1       -0.0522
     37 C           7.6520    1.4343    0.2002 C.ar    1  UNL1        0.0374
     38 N           8.9892    1.6804    0.2407 N.ar    1  UNL1       -0.2395
     39 H          13.6908    1.9312   -1.2205 H       1  UNL1        0.0323
     40 H          13.9932    0.1881   -1.1274 H       1  UNL1        0.0323
     41 H          14.0449    1.1629    0.3939 H       1  UNL1        0.0323
     42 H          11.7341    1.4102    1.5110 H       1  UNL1        0.1562
     43 H          10.0924   -1.2496    1.2817 H       1  UNL1        0.0652
     44 H           7.6327   -1.7340    1.2168 H       1  UNL1        0.0625
     45 H           5.1815    1.9497    0.9624 H       1  UNL1        0.0624
     46 H           2.7104    1.5322    0.8836 H       1  UNL1        0.0636
     47 H           1.1577   -1.7048    0.1519 H       1  UNL1        0.1466
     48 H           0.8096    0.6858    1.6559 H       1  UNL1        0.0557
     49 H           0.7673    1.1354   -0.1151 H       1  UNL1        0.0557
     50 H          -1.6140    1.7292    0.9782 H       1  UNL1        0.1549
     51 H          -3.8421    2.3450    1.1775 H       1  UNL1        0.0636
     52 H          -6.2361    1.8439    1.0790 H       1  UNL1        0.0621
     53 H          -7.9853    0.4106    1.0003 H       1  UNL1        0.0476
     54 H          -7.7262   -1.4038    1.0203 H       1  UNL1        0.0476
     55 H          -9.4311   -1.9143   -1.4020 H       1  UNL1        0.0439
     56 H          -9.7096   -0.9371    0.0536 H       1  UNL1        0.0439
     57 H          -9.7341    0.0196   -2.8641 H       1  UNL1        0.0437
     58 H         -11.1048   -0.1680   -1.7234 H       1  UNL1        0.0437
     59 H         -10.4599    2.1018   -1.6420 H       1  UNL1        0.1220
     60 H          -8.2950    2.5467   -2.0028 H       1  UNL1        0.0437
     61 H          -8.1992    2.1712   -0.2290 H       1  UNL1        0.0437
     62 H          -6.4973    0.9127   -1.3280 H       1  UNL1        0.0439
     63 H          -7.5371    0.4563   -2.6743 H       1  UNL1        0.0439
     64 H          -3.0473   -1.7266    0.1432 H       1  UNL1        0.0642
     65 H           3.4075   -2.5175   -0.0494 H       1  UNL1        0.0636
     66 H           5.8862   -2.0932    0.0299 H       1  UNL1        0.0624
     67 H           6.9625    2.1980   -0.1068 H       1  UNL1        0.0836
@<TRIPOS>BOND
     1     1     2    1
     2     2     3    2
     3     2     4   am
     4     4     5    1
     5     5     6   ar
     6     6     7   ar
     7     7     8   ar
     8     8     9    1
     9     9    10   ar
    10    10    11   ar
    11    11    12   ar
    12    12    13    1
    13    13    14    1
    14    14    15    1
    15    15    16    2
    16    15    17   am
    17    17    18    1
    18    18    19   ar
    19    19    20   ar
    20    20    21   ar
    21    21    22    1
    22    22    23    1
    23    23    24    1
    24    24    25    1
    25    25    26    1
    26    26    27    1
    27    27    28    1
    28    21    29   ar
    29    29    30    1
    30    30    31    1
    31    30    32    1
    32    30    33    1
    33    29    34   ar
    34    12    35   ar
    35    35    36   ar
    36     8    37   ar
    37    37    38   ar
    38    38     5   ar
    39    36     9   ar
    40    34    18   ar
    41    28    23    1
    42     1    39    1
    43     1    40    1
    44     1    41    1
    45     4    42    1
    46     6    43    1
    47     7    44    1
    48    10    45    1
    49    11    46    1
    50    13    47    1
    51    14    48    1
    52    14    49    1
    53    17    50    1
    54    19    51    1
    55    20    52    1
    56    22    53    1
    57    22    54    1
    58    24    55    1
    59    24    56    1
    60    25    57    1
    61    25    58    1
    62    26    59    1
    63    27    60    1
    64    27    61    1
    65    28    62    1
    66    28    63    1
    67    34    64    1
    68    35    65    1
    69    36    66    1
    70    37    67    1
