
     RDKit          3D

 51 54  0  0  0  0  0  0  0  0999 V2000
   -0.4913    4.4096    0.2022 C   0  0  0  0  0  0  0  0  0  0  0  0
    0.1582    3.6811    1.3829 C   0  0  0  0  0  0  0  0  0  0  0  0
    1.1917    2.8434    0.7772 N   0  0  0  0  0  0  0  0  0  0  0  0
    2.4747    3.1339    0.5373 C   0  0  0  0  0  0  0  0  0  0  0  0
    3.1012    2.0949   -0.0337 N   0  0  0  0  0  0  0  0  0  0  0  0
    2.2051    1.1137   -0.1652 C   0  0  0  0  0  0  0  0  0  0  0  0
    2.2290   -0.1758   -0.6721 C   0  0  0  0  0  0  0  0  0  0  0  0
    3.4507   -0.6436   -1.1799 N   0  0  0  0  0  0  0  0  0  0  0  0
    4.3309   -1.4941   -0.4903 C   0  0  0  0  0  0  0  0  0  0  0  0
    5.5736   -1.7753   -1.0101 C   0  0  0  0  0  0  0  0  0  0  0  0
    6.4563   -2.6332   -0.3424 C   0  0  0  0  0  0  0  0  0  0  0  0
    6.0553   -3.1986    0.8588 C   0  0  0  0  0  0  0  0  0  0  0  0
    4.8139   -2.9228    1.3860 C   0  0  0  0  0  0  0  0  0  0  0  0
    4.3551   -3.6583    2.8995 Cl  0  0  0  0  0  0  0  0  0  0  0  0
    3.9684   -2.0641    0.6886 C   0  0  0  0  0  0  0  0  0  0  0  0
    1.0817   -0.8744   -0.6297 N   0  0  0  0  0  0  0  0  0  0  0  0
   -0.0818   -0.4322   -0.1400 C   0  0  0  0  0  0  0  0  0  0  0  0
   -1.2260   -1.2824   -0.1484 N   0  0  0  0  0  0  0  0  0  0  0  0
   -2.5086   -0.8971    0.3510 C   0  0  2  0  0  0  0  0  0  0  0  0
   -3.4950   -2.0405    0.2304 C   0  0  0  0  0  0  0  0  0  0  0  0
   -4.7622   -1.7509    1.0089 C   0  0  0  0  0  0  0  0  0  0  0  0
   -5.3866   -0.5249    0.3770 C   0  0  0  0  0  0  0  0  0  0  0  0
   -4.4403    0.6254    0.2564 C   0  0  0  0  0  0  0  0  0  0  0  0
   -3.1188    0.2907   -0.3544 C   0  0  2  0  0  0  0  0  0  0  0  0
   -3.2023    0.1104   -1.7792 N   0  0  0  0  0  0  0  0  0  0  0  0
   -0.1107    0.8178    0.3523 N   0  0  0  0  0  0  0  0  0  0  0  0
    1.0130    1.5719    0.3377 C   0  0  0  0  0  0  0  0  0  0  0  0
    0.1354    5.3118   -0.0540 H   0  0  0  0  0  0  0  0  0  0  0  0
   -0.4769    3.7697   -0.7118 H   0  0  0  0  0  0  0  0  0  0  0  0
   -1.5397    4.6590    0.3931 H   0  0  0  0  0  0  0  0  0  0  0  0
   -0.6303    3.0795    1.8510 H   0  0  0  0  0  0  0  0  0  0  0  0
    0.5827    4.4639    2.0176 H   0  0  0  0  0  0  0  0  0  0  0  0
    2.9606    4.0899    0.7718 H   0  0  0  0  0  0  0  0  0  0  0  0
    3.6984   -0.3122   -2.1545 H   0  0  0  0  0  0  0  0  0  0  0  0
    5.9217   -1.3576   -1.9372 H   0  0  0  0  0  0  0  0  0  0  0  0
    7.4339   -2.8390   -0.7741 H   0  0  0  0  0  0  0  0  0  0  0  0
    6.7780   -3.8558    1.3318 H   0  0  0  0  0  0  0  0  0  0  0  0
    2.9983   -1.8777    1.1465 H   0  0  0  0  0  0  0  0  0  0  0  0
   -1.1262   -2.2472   -0.5425 H   0  0  0  0  0  0  0  0  0  0  0  0
   -2.4522   -0.6279    1.4217 H   0  0  0  0  0  0  0  0  0  0  0  0
   -2.9868   -2.9319    0.6992 H   0  0  0  0  0  0  0  0  0  0  0  0
   -3.7253   -2.3352   -0.7916 H   0  0  0  0  0  0  0  0  0  0  0  0
   -5.4512   -2.6004    0.8224 H   0  0  0  0  0  0  0  0  0  0  0  0
   -4.5407   -1.6391    2.0806 H   0  0  0  0  0  0  0  0  0  0  0  0
   -5.8208   -0.8513   -0.5921 H   0  0  0  0  0  0  0  0  0  0  0  0
   -6.2226   -0.2258    1.0370 H   0  0  0  0  0  0  0  0  0  0  0  0
   -4.9475    1.3663   -0.4307 H   0  0  0  0  0  0  0  0  0  0  0  0
   -4.3597    1.1432    1.2217 H   0  0  0  0  0  0  0  0  0  0  0  0
   -2.4426    1.1717   -0.1710 H   0  0  0  0  0  0  0  0  0  0  0  0
   -3.6067    0.9916   -2.1713 H   0  0  0  0  0  0  0  0  0  0  0  0
   -3.8149   -0.6697   -2.0474 H   0  0  0  0  0  0  0  0  0  0  0  0
  1  2  1  0
  2  3  1  0
  3  4  1  0
  4  5  2  0
  5  6  1  0
  6  7  2  0
  7  8  1  0
  8  9  1  0
  9 10  2  0
 10 11  1  0
 11 12  2  0
 12 13  1  0
 13 14  1  0
 13 15  2  0
  7 16  1  0
 16 17  2  0
 17 18  1  0
 18 19  1  0
 19 20  1  0
 20 21  1  0
 21 22  1  0
 22 23  1  0
 23 24  1  0
 24 25  1  0
 17 26  1  0
 26 27  2  0
 27  3  1  0
 27  6  1  0
 15  9  1  0
 24 19  1  0
  1 28  1  0
  1 29  1  0
  1 30  1  0
  2 31  1  0
  2 32  1  0
  4 33  1  0
  8 34  1  0
 10 35  1  0
 11 36  1  0
 12 37  1  0
 15 38  1  0
 18 39  1  0
 19 40  1  1
 20 41  1  0
 20 42  1  0
 21 43  1  0
 21 44  1  0
 22 45  1  0
 22 46  1  0
 23 47  1  0
 23 48  1  0
 24 49  1  6
 25 50  1  0
 25 51  1  0
M  END
$$$$
