@<TRIPOS>MOLECULE
*****
 51 54 0 0 0
SMALL
GASTEIGER

@<TRIPOS>ATOM
      1 C          -0.4913    4.4096    0.2022 C.3     1  UNL1       -0.0470
      2 C           0.1582    3.6811    1.3829 C.3     1  UNL1        0.0232
      3 N           1.1917    2.8434    0.7772 N.ar    1  UNL1       -0.3151
      4 C           2.4747    3.1339    0.5373 C.ar    1  UNL1        0.0983
      5 N           3.1012    2.0949   -0.0337 N.ar    1  UNL1       -0.2306
      6 C           2.2051    1.1137   -0.1652 C.ar    1  UNL1        0.1479
      7 C           2.2290   -0.1758   -0.6721 C.ar    1  UNL1        0.1558
      8 N           3.4507   -0.6436   -1.1799 N.pl3   1  UNL1       -0.2975
      9 C           4.3309   -1.4941   -0.4903 C.ar    1  UNL1        0.0338
     10 C           5.5736   -1.7753   -1.0101 C.ar    1  UNL1       -0.0404
     11 C           6.4563   -2.6332   -0.3424 C.ar    1  UNL1       -0.0586
     12 C           6.0553   -3.1986    0.8588 C.ar    1  UNL1       -0.0433
     13 C           4.8139   -2.9228    1.3860 C.ar    1  UNL1        0.0427
     14 CL          4.3551   -3.6583    2.8995 Cl      1  UNL1       -0.0835
     15 C           3.9684   -2.0641    0.6886 C.ar    1  UNL1       -0.0222
     16 N           1.0817   -0.8744   -0.6297 N.ar    1  UNL1       -0.1971
     17 C          -0.0818   -0.4322   -0.1400 C.ar    1  UNL1        0.2191
     18 N          -1.2260   -1.2824   -0.1484 N.pl3   1  UNL1       -0.3090
     19 C          -2.5086   -0.8971    0.3510 C.3     1  UNL1        0.0384
     20 C          -3.4950   -2.0405    0.2304 C.3     1  UNL1       -0.0331
     21 C          -4.7622   -1.7509    1.0089 C.3     1  UNL1       -0.0513
     22 C          -5.3866   -0.5249    0.3770 C.3     1  UNL1       -0.0515
     23 C          -4.4403    0.6254    0.2564 C.3     1  UNL1       -0.0360
     24 C          -3.1188    0.2907   -0.3544 C.3     1  UNL1        0.0234
     25 N          -3.2023    0.1104   -1.7792 N.3     1  UNL1       -0.3257
     26 N          -0.1107    0.8178    0.3523 N.ar    1  UNL1       -0.1947
     27 C           1.0130    1.5719    0.3377 C.ar    1  UNL1        0.1672
     28 H           0.1354    5.3118   -0.0540 H       1  UNL1        0.0247
     29 H          -0.4769    3.7697   -0.7118 H       1  UNL1        0.0247
     30 H          -1.5397    4.6590    0.3931 H       1  UNL1        0.0247
     31 H          -0.6303    3.0795    1.8510 H       1  UNL1        0.0490
     32 H           0.5827    4.4639    2.0176 H       1  UNL1        0.0490
     33 H           2.9606    4.0899    0.7718 H       1  UNL1        0.1029
     34 H           3.6984   -0.3122   -2.1545 H       1  UNL1        0.1536
     35 H           5.9217   -1.3576   -1.9372 H       1  UNL1        0.0636
     36 H           7.4339   -2.8390   -0.7741 H       1  UNL1        0.0619
     37 H           6.7780   -3.8558    1.3318 H       1  UNL1        0.0632
     38 H           2.9983   -1.8777    1.1465 H       1  UNL1        0.0651
     39 H          -1.1262   -2.2472   -0.5425 H       1  UNL1        0.1492
     40 H          -2.4522   -0.6279    1.4217 H       1  UNL1        0.0513
     41 H          -2.9868   -2.9319    0.6992 H       1  UNL1        0.0284
     42 H          -3.7253   -2.3352   -0.7916 H       1  UNL1        0.0284
     43 H          -5.4512   -2.6004    0.8224 H       1  UNL1        0.0266
     44 H          -4.5407   -1.6391    2.0806 H       1  UNL1        0.0266
     45 H          -5.8208   -0.8513   -0.5921 H       1  UNL1        0.0266
     46 H          -6.2226   -0.2258    1.0370 H       1  UNL1        0.0266
     47 H          -4.9475    1.3663   -0.4307 H       1  UNL1        0.0281
     48 H          -4.3597    1.1432    1.2217 H       1  UNL1        0.0281
     49 H          -2.4426    1.1717   -0.1710 H       1  UNL1        0.0476
     50 H          -3.6067    0.9916   -2.1713 H       1  UNL1        0.1185
     51 H          -3.8149   -0.6697   -2.0474 H       1  UNL1        0.1185
@<TRIPOS>BOND
     1     1     2    1
     2     2     3    1
     3     3     4   ar
     4     4     5   ar
     5     5     6   ar
     6     6     7   ar
     7     7     8    1
     8     8     9    1
     9     9    10   ar
    10    10    11   ar
    11    11    12   ar
    12    12    13   ar
    13    13    14    1
    14    13    15   ar
    15     7    16   ar
    16    16    17   ar
    17    17    18    1
    18    18    19    1
    19    19    20    1
    20    20    21    1
    21    21    22    1
    22    22    23    1
    23    23    24    1
    24    24    25    1
    25    17    26   ar
    26    26    27   ar
    27    27     3   ar
    28    27     6   ar
    29    15     9   ar
    30    24    19    1
    31     1    28    1
    32     1    29    1
    33     1    30    1
    34     2    31    1
    35     2    32    1
    36     4    33    1
    37     8    34    1
    38    10    35    1
    39    11    36    1
    40    12    37    1
    41    15    38    1
    42    18    39    1
    43    19    40    1
    44    20    41    1
    45    20    42    1
    46    21    43    1
    47    21    44    1
    48    22    45    1
    49    22    46    1
    50    23    47    1
    51    23    48    1
    52    24    49    1
    53    25    50    1
    54    25    51    1
