@<TRIPOS>MOLECULE
*****
 20 19 0 0 0
SMALL
GASTEIGER

@<TRIPOS>ATOM
      1 CE          3.4047    0.5943    0.2666 C.3     1  MET1       -0.0181
      2 SD          2.6130   -0.9871    0.5381 S.3     1  MET1       -0.1641
      3 CG          0.9516   -1.1088   -0.1327 C.3     1  MET1       -0.0047
      4 CB         -0.0459   -0.2090    0.5446 C.3     1  MET1       -0.0183
      5 CA         -1.3849   -0.4256   -0.1196 C.3     1  MET1        0.1040
      6 N          -1.3665   -0.1200   -1.5186 N.3     1  MET1       -0.3184
      7 C          -2.4541    0.4190    0.5071 C.2     1  MET1        0.3217
      8 O          -3.3292    1.3476   -0.0413 O.3     1  MET1       -0.4795
      9 OXT        -2.7886    0.4587    1.7133 O.2     1  MET1       -0.2493
     10 HE1         4.2683    0.6605    0.9909 H       1  MET1        0.0340
     11 HE2         2.7820    1.4793    0.4747 H       1  MET1        0.0340
     12 HE3         3.8581    0.6855   -0.7377 H       1  MET1        0.0340
     13 HG1         0.6194   -2.1584    0.0167 H       1  MET1        0.0377
     14 HG2         0.9410   -0.8764   -1.2186 H       1  MET1        0.0377
     15 HB1         0.2630    0.8550    0.3860 H       1  MET1        0.0293
     16 HB2        -0.1264   -0.4544    1.6248 H       1  MET1        0.0293
     17 HA         -1.6616   -1.4976   -0.0282 H       1  MET1        0.0574
     18 H1         -0.8750   -0.7790   -2.1272 H       1  MET1        0.1190
     19 H2         -1.3198    0.8779   -1.7526 H       1  MET1        0.1190
     20 H          -4.3491    1.2385   -0.0371 H       1  MET1        0.2951
@<TRIPOS>BOND
     1     1     2    1
     2     2     3    1
     3     3     4    1
     4     4     5    1
     5     5     6    1
     6     5     7    1
     7     7     8    1
     8     7     9    2
     9     1    10    1
    10     1    11    1
    11     1    12    1
    12     3    13    1
    13     3    14    1
    14     4    15    1
    15     4    16    1
    16     5    17    1
    17     6    18    1
    18     6    19    1
    19     8    20    1
