@<TRIPOS>MOLECULE
*****
 68 70 0 0 0
SMALL
GASTEIGER

@<TRIPOS>ATOM
      1 C          -1.3765    4.2818    4.2158 C.3     1  UNL1       -0.0652
      2 C          -1.1704    2.8703    3.6735 C.3     1  UNL1       -0.0544
      3 C          -1.1705    2.8954    2.1534 C.3     1  UNL1       -0.0357
      4 C          -0.9609    1.4593    1.6795 C.3     1  UNL1        0.0350
      5 N          -0.9543    1.4556    0.2518 N.pl3   1  UNL1       -0.2030
      6 C          -2.2114    1.1053   -0.3737 C.ar    1  UNL1        0.0524
      7 C          -2.5553   -0.1862   -0.6938 C.ar    1  UNL1       -0.0313
      8 C          -3.7716   -0.4923   -1.2940 C.ar    1  UNL1       -0.0156
      9 C          -4.1035   -1.8804   -1.6216 C.ar    1  UNL1       -0.0177
     10 C          -3.6450   -2.9426   -0.8514 C.ar    1  UNL1       -0.0527
     11 C          -3.9585   -4.2513   -1.1615 C.ar    1  UNL1       -0.0428
     12 C          -4.7421   -4.5559   -2.2520 C.ar    1  UNL1        0.0410
     13 CL         -5.1587   -6.1924   -2.6752 Cl      1  UNL1       -0.0835
     14 C          -5.2203   -3.5089   -3.0487 C.ar    1  UNL1       -0.0428
     15 C          -4.8843   -2.2187   -2.7045 C.ar    1  UNL1       -0.0527
     16 C          -4.6561    0.5349   -1.5747 C.ar    1  UNL1       -0.0423
     17 C          -4.3338    1.8389   -1.2630 C.ar    1  UNL1        0.0572
     18 C          -5.3084    2.9160   -1.5793 C.3     1  UNL1        0.4175
     19 F          -5.0051    4.0404   -0.8441 F       1  UNL1       -0.1659
     20 F          -5.2679    3.1768   -2.9532 F       1  UNL1       -0.1659
     21 F          -6.6052    2.5390   -1.2951 F       1  UNL1       -0.1659
     22 C          -3.1130    2.0983   -0.6664 C.ar    1  UNL1       -0.0274
     23 S           0.3925    1.8275   -0.7007 S.O2    1  UNL1        0.0750
     24 O          -0.0245    1.7913   -2.1794 O.2     1  UNL1       -0.1498
     25 O           0.8176    3.2647   -0.4938 O.2     1  UNL1       -0.1498
     26 C           1.7822    0.7991   -0.5160 C.ar    1  UNL1        0.1121
     27 C           2.0877   -0.1243   -1.5158 C.ar    1  UNL1       -0.0313
     28 C           3.1423   -0.9863   -1.3977 C.ar    1  UNL1       -0.0178
     29 C           3.9725   -1.0095   -0.2988 C.ar    1  UNL1        0.1249
     30 O           5.0479   -1.8716   -0.1507 O.3     1  UNL1       -0.4776
     31 C           5.4750   -2.8386   -1.0487 C.3     1  UNL1        0.1931
     32 C           5.4070   -4.1891   -0.3250 C.3     1  UNL1       -0.0172
     33 C           6.9306   -2.5665   -1.3204 C.2     1  UNL1        0.3456
     34 O           7.5683   -3.3046   -2.1093 O.2     1  UNL1       -0.2468
     35 O           7.6158   -1.5165   -0.7276 O.3     1  UNL1       -0.4781
     36 C           3.6849   -0.1046    0.6949 C.ar    1  UNL1       -0.0040
     37 C           4.5393   -0.0740    1.9111 C.3     1  UNL1       -0.0359
     38 C           2.6037    0.7832    0.5780 C.ar    1  UNL1       -0.0175
     39 C           2.4221    1.7463    1.6792 C.3     1  UNL1       -0.0375
     40 H          -2.4310    4.5470    3.9320 H       1  UNL1        0.0230
     41 H          -0.6419    4.9834    3.8055 H       1  UNL1        0.0230
     42 H          -1.3188    4.2721    5.3205 H       1  UNL1        0.0230
     43 H          -0.1952    2.5261    4.0302 H       1  UNL1        0.0263
     44 H          -1.9755    2.2199    4.0373 H       1  UNL1        0.0263
     45 H          -0.4302    3.5977    1.7492 H       1  UNL1        0.0281
     46 H          -2.1689    3.2629    1.8488 H       1  UNL1        0.0281
     47 H          -1.8968    0.9081    2.0637 H       1  UNL1        0.0482
     48 H          -0.1338    0.9450    2.1675 H       1  UNL1        0.0482
     49 H          -1.8812   -1.0003   -0.4836 H       1  UNL1        0.0643
     50 H          -3.0258   -2.7038    0.0108 H       1  UNL1        0.0624
     51 H          -3.5829   -5.0448   -0.5384 H       1  UNL1        0.0632
     52 H          -5.8370   -3.7051   -3.9104 H       1  UNL1        0.0632
     53 H          -5.2565   -1.4179   -3.3229 H       1  UNL1        0.0624
     54 H          -5.6163    0.2795   -2.0498 H       1  UNL1        0.0629
     55 H          -2.8855    3.1242   -0.4334 H       1  UNL1        0.0642
     56 H           1.4321   -0.1109   -2.3897 H       1  UNL1        0.0638
     57 H           3.3343   -1.6820   -2.2034 H       1  UNL1        0.0655
     58 H           4.9030   -2.9361   -1.9688 H       1  UNL1        0.0849
     59 H           4.7176   -4.1200    0.5508 H       1  UNL1        0.0271
     60 H           6.4074   -4.4341    0.1040 H       1  UNL1        0.0271
     61 H           5.0426   -4.9895   -0.9690 H       1  UNL1        0.0271
     62 H           8.4615   -1.1266   -1.1249 H       1  UNL1        0.2952
     63 H           3.9207    0.0737    2.8315 H       1  UNL1        0.0279
     64 H           5.1667   -0.9595    2.0090 H       1  UNL1        0.0279
     65 H           5.2195    0.8113    1.8099 H       1  UNL1        0.0279
     66 H           2.2617    1.2447    2.6548 H       1  UNL1        0.0278
     67 H           3.4161    2.2750    1.7865 H       1  UNL1        0.0278
     68 H           1.7025    2.5501    1.4811 H       1  UNL1        0.0278
@<TRIPOS>BOND
     1     1     2    1
     2     2     3    1
     3     3     4    1
     4     4     5    1
     5     5     6    1
     6     6     7   ar
     7     7     8   ar
     8     8     9    1
     9     9    10   ar
    10    10    11   ar
    11    11    12   ar
    12    12    13    1
    13    12    14   ar
    14    14    15   ar
    15     8    16   ar
    16    16    17   ar
    17    17    18    1
    18    18    19    1
    19    18    20    1
    20    18    21    1
    21    17    22   ar
    22     5    23    1
    23    23    24    2
    24    23    25    2
    25    23    26    1
    26    26    27   ar
    27    27    28   ar
    28    28    29   ar
    29    29    30    1
    30    30    31    1
    31    31    32    1
    32    31    33    1
    33    33    34    2
    34    33    35    1
    35    29    36   ar
    36    36    37    1
    37    36    38   ar
    38    38    39    1
    39    22     6   ar
    40    38    26   ar
    41    15     9   ar
    42     1    40    1
    43     1    41    1
    44     1    42    1
    45     2    43    1
    46     2    44    1
    47     3    45    1
    48     3    46    1
    49     4    47    1
    50     4    48    1
    51     7    49    1
    52    10    50    1
    53    11    51    1
    54    14    52    1
    55    15    53    1
    56    16    54    1
    57    22    55    1
    58    27    56    1
    59    28    57    1
    60    31    58    1
    61    32    59    1
    62    32    60    1
    63    32    61    1
    64    35    62    1
    65    37    63    1
    66    37    64    1
    67    37    65    1
    68    39    66    1
    69    39    67    1
    70    39    68    1
