
     RDKit          3D

 68 70  0  0  0  0  0  0  0  0999 V2000
   -1.3765    4.2818    4.2158 C   0  0  0  0  0  0  0  0  0  0  0  0
   -1.1704    2.8703    3.6735 C   0  0  0  0  0  0  0  0  0  0  0  0
   -1.1705    2.8954    2.1534 C   0  0  0  0  0  0  0  0  0  0  0  0
   -0.9609    1.4593    1.6795 C   0  0  0  0  0  0  0  0  0  0  0  0
   -0.9543    1.4556    0.2518 N   0  0  0  0  0  0  0  0  0  0  0  0
   -2.2114    1.1053   -0.3737 C   0  0  0  0  0  0  0  0  0  0  0  0
   -2.5553   -0.1862   -0.6938 C   0  0  0  0  0  0  0  0  0  0  0  0
   -3.7716   -0.4923   -1.2940 C   0  0  0  0  0  0  0  0  0  0  0  0
   -4.1035   -1.8804   -1.6216 C   0  0  0  0  0  0  0  0  0  0  0  0
   -3.6450   -2.9426   -0.8514 C   0  0  0  0  0  0  0  0  0  0  0  0
   -3.9585   -4.2513   -1.1615 C   0  0  0  0  0  0  0  0  0  0  0  0
   -4.7421   -4.5559   -2.2520 C   0  0  0  0  0  0  0  0  0  0  0  0
   -5.1587   -6.1924   -2.6752 Cl  0  0  0  0  0  0  0  0  0  0  0  0
   -5.2203   -3.5089   -3.0487 C   0  0  0  0  0  0  0  0  0  0  0  0
   -4.8843   -2.2187   -2.7045 C   0  0  0  0  0  0  0  0  0  0  0  0
   -4.6561    0.5349   -1.5747 C   0  0  0  0  0  0  0  0  0  0  0  0
   -4.3338    1.8389   -1.2630 C   0  0  0  0  0  0  0  0  0  0  0  0
   -5.3084    2.9160   -1.5793 C   0  0  0  0  0  0  0  0  0  0  0  0
   -5.0051    4.0404   -0.8441 F   0  0  0  0  0  0  0  0  0  0  0  0
   -5.2679    3.1768   -2.9532 F   0  0  0  0  0  0  0  0  0  0  0  0
   -6.6052    2.5390   -1.2951 F   0  0  0  0  0  0  0  0  0  0  0  0
   -3.1130    2.0983   -0.6664 C   0  0  0  0  0  0  0  0  0  0  0  0
    0.3925    1.8275   -0.7007 S   0  0  0  0  0  6  0  0  0  0  0  0
   -0.0245    1.7913   -2.1794 O   0  0  0  0  0  0  0  0  0  0  0  0
    0.8176    3.2647   -0.4938 O   0  0  0  0  0  0  0  0  0  0  0  0
    1.7822    0.7991   -0.5160 C   0  0  0  0  0  0  0  0  0  0  0  0
    2.0877   -0.1243   -1.5158 C   0  0  0  0  0  0  0  0  0  0  0  0
    3.1423   -0.9863   -1.3977 C   0  0  0  0  0  0  0  0  0  0  0  0
    3.9725   -1.0095   -0.2988 C   0  0  0  0  0  0  0  0  0  0  0  0
    5.0479   -1.8716   -0.1507 O   0  0  0  0  0  0  0  0  0  0  0  0
    5.4750   -2.8386   -1.0487 C   0  0  0  0  0  0  0  0  0  0  0  0
    5.4070   -4.1891   -0.3250 C   0  0  0  0  0  0  0  0  0  0  0  0
    6.9306   -2.5665   -1.3204 C   0  0  0  0  0  0  0  0  0  0  0  0
    7.5683   -3.3046   -2.1093 O   0  0  0  0  0  0  0  0  0  0  0  0
    7.6158   -1.5165   -0.7276 O   0  0  0  0  0  0  0  0  0  0  0  0
    3.6849   -0.1046    0.6949 C   0  0  0  0  0  0  0  0  0  0  0  0
    4.5393   -0.0740    1.9111 C   0  0  0  0  0  0  0  0  0  0  0  0
    2.6037    0.7832    0.5780 C   0  0  0  0  0  0  0  0  0  0  0  0
    2.4221    1.7463    1.6792 C   0  0  0  0  0  0  0  0  0  0  0  0
   -2.4310    4.5470    3.9320 H   0  0  0  0  0  0  0  0  0  0  0  0
   -0.6419    4.9834    3.8055 H   0  0  0  0  0  0  0  0  0  0  0  0
   -1.3188    4.2721    5.3205 H   0  0  0  0  0  0  0  0  0  0  0  0
   -0.1952    2.5261    4.0302 H   0  0  0  0  0  0  0  0  0  0  0  0
   -1.9755    2.2199    4.0373 H   0  0  0  0  0  0  0  0  0  0  0  0
   -0.4302    3.5977    1.7492 H   0  0  0  0  0  0  0  0  0  0  0  0
   -2.1689    3.2629    1.8488 H   0  0  0  0  0  0  0  0  0  0  0  0
   -1.8968    0.9081    2.0637 H   0  0  0  0  0  0  0  0  0  0  0  0
   -0.1338    0.9450    2.1675 H   0  0  0  0  0  0  0  0  0  0  0  0
   -1.8812   -1.0003   -0.4836 H   0  0  0  0  0  0  0  0  0  0  0  0
   -3.0258   -2.7038    0.0108 H   0  0  0  0  0  0  0  0  0  0  0  0
   -3.5829   -5.0448   -0.5384 H   0  0  0  0  0  0  0  0  0  0  0  0
   -5.8370   -3.7051   -3.9104 H   0  0  0  0  0  0  0  0  0  0  0  0
   -5.2565   -1.4179   -3.3229 H   0  0  0  0  0  0  0  0  0  0  0  0
   -5.6163    0.2795   -2.0498 H   0  0  0  0  0  0  0  0  0  0  0  0
   -2.8855    3.1242   -0.4334 H   0  0  0  0  0  0  0  0  0  0  0  0
    1.4321   -0.1109   -2.3897 H   0  0  0  0  0  0  0  0  0  0  0  0
    3.3343   -1.6820   -2.2034 H   0  0  0  0  0  0  0  0  0  0  0  0
    4.9030   -2.9361   -1.9688 H   0  0  0  0  0  0  0  0  0  0  0  0
    4.7176   -4.1200    0.5508 H   0  0  0  0  0  0  0  0  0  0  0  0
    6.4074   -4.4341    0.1040 H   0  0  0  0  0  0  0  0  0  0  0  0
    5.0426   -4.9895   -0.9690 H   0  0  0  0  0  0  0  0  0  0  0  0
    8.4615   -1.1266   -1.1249 H   0  0  0  0  0  0  0  0  0  0  0  0
    3.9207    0.0737    2.8315 H   0  0  0  0  0  0  0  0  0  0  0  0
    5.1667   -0.9595    2.0090 H   0  0  0  0  0  0  0  0  0  0  0  0
    5.2195    0.8113    1.8099 H   0  0  0  0  0  0  0  0  0  0  0  0
    2.2617    1.2447    2.6548 H   0  0  0  0  0  0  0  0  0  0  0  0
    3.4161    2.2750    1.7865 H   0  0  0  0  0  0  0  0  0  0  0  0
    1.7025    2.5501    1.4811 H   0  0  0  0  0  0  0  0  0  0  0  0
  1  2  1  0
  2  3  1  0
  3  4  1  0
  4  5  1  0
  5  6  1  0
  6  7  2  0
  7  8  1  0
  8  9  1  0
  9 10  2  0
 10 11  1  0
 11 12  2  0
 12 13  1  0
 12 14  1  0
 14 15  2  0
  8 16  2  0
 16 17  1  0
 17 18  1  0
 18 19  1  0
 18 20  1  0
 18 21  1  0
 17 22  2  0
  5 23  1  0
 23 24  2  0
 23 25  2  0
 23 26  1  0
 26 27  2  0
 27 28  1  0
 28 29  2  0
 29 30  1  0
 30 31  1  0
 31 32  1  0
 31 33  1  0
 33 34  2  0
 33 35  1  0
 29 36  1  0
 36 37  1  0
 36 38  2  0
 38 39  1  0
 22  6  1  0
 38 26  1  0
 15  9  1  0
  1 40  1  0
  1 41  1  0
  1 42  1  0
  2 43  1  0
  2 44  1  0
  3 45  1  0
  3 46  1  0
  4 47  1  0
  4 48  1  0
  7 49  1  0
 10 50  1  0
 11 51  1  0
 14 52  1  0
 15 53  1  0
 16 54  1  0
 22 55  1  0
 27 56  1  0
 28 57  1  0
 31 58  1  0
 32 59  1  0
 32 60  1  0
 32 61  1  0
 35 62  1  0
 37 63  1  0
 37 64  1  0
 37 65  1  0
 39 66  1  0
 39 67  1  0
 39 68  1  0
M  END
$$$$
