
     RDKit          3D

 48 51  0  0  0  0  0  0  0  0999 V2000
   -1.8844    1.3827    2.4401 C   0  0  0  0  0  0  0  0  0  0  0  0
   -2.0455    0.3030    1.5618 O   0  0  0  0  0  0  0  0  0  0  0  0
   -3.1791    0.1126    0.8312 C   0  0  0  0  0  0  0  0  0  0  0  0
   -4.2701    0.9878    0.9057 C   0  0  0  0  0  0  0  0  0  0  0  0
   -5.3915    0.7491    0.1460 C   0  0  0  0  0  0  0  0  0  0  0  0
   -5.4691   -0.3353   -0.6912 C   0  0  0  0  0  0  0  0  0  0  0  0
   -4.3715   -1.1913   -0.7479 C   0  0  0  0  0  0  0  0  0  0  0  0
   -3.2441   -0.9755   -0.0019 C   0  0  0  0  0  0  0  0  0  0  0  0
   -2.0933   -1.9200   -0.0960 C   0  0  0  0  0  0  0  0  0  0  0  0
   -1.1035   -1.3988   -0.8462 N   0  0  0  0  0  0  0  0  0  0  0  0
   -0.2697   -0.9334   -1.4413 N   0  0  0  0  0  0  0  0  0  0  0  0
    0.5710    0.1731   -1.1483 C   0  0  0  0  0  0  0  0  0  0  0  0
    0.0737    1.2848   -0.5342 N   0  0  0  0  0  0  0  0  0  0  0  0
    0.7958    2.3657   -0.2341 C   0  0  0  0  0  0  0  0  0  0  0  0
    0.2718    3.4799    0.3874 C   0  0  0  0  0  0  0  0  0  0  0  0
    1.0317    4.5884    0.6903 C   0  0  0  0  0  0  0  0  0  0  0  0
    2.3582    4.5644    0.3530 C   0  0  0  0  0  0  0  0  0  0  0  0
    2.8961    3.4465   -0.2736 C   0  0  0  0  0  0  0  0  0  0  0  0
    2.1499    2.3312   -0.5828 C   0  0  0  0  0  0  0  0  0  0  0  0
    2.6671    1.2493   -1.1885 N   0  0  0  0  0  0  0  0  0  0  0  0
    1.9034    0.1626   -1.4807 C   0  0  0  0  0  0  0  0  0  0  0  0
    2.5376   -0.9910   -2.1377 C   0  0  0  0  0  0  0  0  0  0  0  0
    2.8110   -2.0767   -1.1701 C   0  0  0  0  0  0  0  0  0  0  0  0
    3.9477   -2.0084   -0.3532 C   0  0  0  0  0  0  0  0  0  0  0  0
    4.2520   -2.9968    0.5526 C   0  0  0  0  0  0  0  0  0  0  0  0
    3.4474   -4.1043    0.6974 C   0  0  0  0  0  0  0  0  0  0  0  0
    2.3349   -4.1745   -0.1001 C   0  0  0  0  0  0  0  0  0  0  0  0
    2.0108   -3.1778   -1.0268 C   0  0  0  0  0  0  0  0  0  0  0  0
   -2.3688    2.3191    2.1326 H   0  0  0  0  0  0  0  0  0  0  0  0
   -0.7948    1.6192    2.6151 H   0  0  0  0  0  0  0  0  0  0  0  0
   -2.2736    1.0981    3.4557 H   0  0  0  0  0  0  0  0  0  0  0  0
   -4.2412    1.8470    1.5536 H   0  0  0  0  0  0  0  0  0  0  0  0
   -6.2234    1.4101    0.1976 H   0  0  0  0  0  0  0  0  0  0  0  0
   -6.3601   -0.5324   -1.2995 H   0  0  0  0  0  0  0  0  0  0  0  0
   -4.4413   -2.0513   -1.4166 H   0  0  0  0  0  0  0  0  0  0  0  0
   -1.8368   -2.1334    0.9988 H   0  0  0  0  0  0  0  0  0  0  0  0
   -2.5001   -2.9345   -0.4594 H   0  0  0  0  0  0  0  0  0  0  0  0
   -0.7720    3.5027    0.6546 H   0  0  0  0  0  0  0  0  0  0  0  0
    0.5996    5.4530    1.1789 H   0  0  0  0  0  0  0  0  0  0  0  0
    2.9801    5.4225    0.5792 H   0  0  0  0  0  0  0  0  0  0  0  0
    3.9377    3.4655   -0.5217 H   0  0  0  0  0  0  0  0  0  0  0  0
    1.8936   -1.4147   -2.9278 H   0  0  0  0  0  0  0  0  0  0  0  0
    3.4870   -0.6946   -2.6619 H   0  0  0  0  0  0  0  0  0  0  0  0
    4.5746   -1.1251   -0.4795 H   0  0  0  0  0  0  0  0  0  0  0  0
    5.1500   -2.9123    1.1766 H   0  0  0  0  0  0  0  0  0  0  0  0
    3.6575   -4.8951    1.3970 H   0  0  0  0  0  0  0  0  0  0  0  0
    1.6835   -5.0463    0.0011 H   0  0  0  0  0  0  0  0  0  0  0  0
    1.1103   -3.2948   -1.6434 H   0  0  0  0  0  0  0  0  0  0  0  0
  1  2  1  0
  2  3  1  0
  3  4  2  0
  4  5  1  0
  5  6  2  0
  6  7  1  0
  7  8  2  0
  8  9  1  0
  9 10  1  0
 10 11  2  3
 11 12  1  0
 12 13  2  0
 13 14  1  0
 14 15  2  0
 15 16  1  0
 16 17  2  0
 17 18  1  0
 18 19  2  0
 19 20  1  0
 20 21  2  0
 21 22  1  0
 22 23  1  0
 23 24  2  0
 24 25  1  0
 25 26  2  0
 26 27  1  0
 27 28  2  0
  8  3  1  0
 21 12  1  0
 28 23  1  0
 19 14  1  0
  1 29  1  0
  1 30  1  0
  1 31  1  0
  4 32  1  0
  5 33  1  0
  6 34  1  0
  7 35  1  0
  9 36  1  0
  9 37  1  0
 15 38  1  0
 16 39  1  0
 17 40  1  0
 18 41  1  0
 22 42  1  0
 22 43  1  0
 24 44  1  0
 25 45  1  0
 26 46  1  0
 27 47  1  0
 28 48  1  0
M  END
$$$$
