@<TRIPOS>MOLECULE
*****
 48 51 0 0 0
SMALL
GASTEIGER

@<TRIPOS>ATOM
      1 C          -1.8844    1.3827    2.4401 C.3     1  UNL1        0.0788
      2 O          -2.0455    0.3030    1.5618 O.3     1  UNL1       -0.4948
      3 C          -3.1791    0.1126    0.8312 C.ar    1  UNL1        0.1251
      4 C          -4.2701    0.9878    0.9057 C.ar    1  UNL1       -0.0196
      5 C          -5.3915    0.7491    0.1460 C.ar    1  UNL1       -0.0583
      6 C          -5.4691   -0.3353   -0.6912 C.ar    1  UNL1       -0.0612
      7 C          -4.3715   -1.1913   -0.7479 C.ar    1  UNL1       -0.0533
      8 C          -3.2441   -0.9755   -0.0019 C.ar    1  UNL1        0.0172
      9 C          -2.0933   -1.9200   -0.0960 C.3     1  UNL1        0.0892
     10 N          -1.1035   -1.3988   -0.8462 N.2     1  UNL1       -0.1807
     11 N          -0.2697   -0.9334   -1.4413 N.2     1  UNL1       -0.1323
     12 C           0.5710    0.1731   -1.1483 C.ar    1  UNL1        0.1966
     13 N           0.0737    1.2848   -0.5342 N.ar    1  UNL1       -0.2233
     14 C           0.7958    2.3657   -0.2341 C.ar    1  UNL1        0.0916
     15 C           0.2718    3.4799    0.3874 C.ar    1  UNL1       -0.0342
     16 C           1.0317    4.5884    0.6903 C.ar    1  UNL1       -0.0596
     17 C           2.3582    4.5644    0.3530 C.ar    1  UNL1       -0.0596
     18 C           2.8961    3.4465   -0.2736 C.ar    1  UNL1       -0.0342
     19 C           2.1499    2.3312   -0.5828 C.ar    1  UNL1        0.0896
     20 N           2.6671    1.2493   -1.1885 N.ar    1  UNL1       -0.2460
     21 C           1.9034    0.1626   -1.4807 C.ar    1  UNL1        0.0920
     22 C           2.5376   -0.9910   -2.1377 C.3     1  UNL1        0.0185
     23 C           2.8110   -2.0767   -1.1701 C.ar    1  UNL1       -0.0415
     24 C           3.9477   -2.0084   -0.3532 C.ar    1  UNL1       -0.0582
     25 C           4.2520   -2.9968    0.5526 C.ar    1  UNL1       -0.0615
     26 C           3.4474   -4.1043    0.6974 C.ar    1  UNL1       -0.0617
     27 C           2.3349   -4.1745   -0.1001 C.ar    1  UNL1       -0.0615
     28 C           2.0108   -3.1778   -1.0268 C.ar    1  UNL1       -0.0582
     29 H          -2.3688    2.3191    2.1326 H       1  UNL1        0.0660
     30 H          -0.7948    1.6192    2.6151 H       1  UNL1        0.0660
     31 H          -2.2736    1.0981    3.4557 H       1  UNL1        0.0660
     32 H          -4.2412    1.8470    1.5536 H       1  UNL1        0.0654
     33 H          -6.2234    1.4101    0.1976 H       1  UNL1        0.0619
     34 H          -6.3601   -0.5324   -1.2995 H       1  UNL1        0.0618
     35 H          -4.4413   -2.0513   -1.4166 H       1  UNL1        0.0622
     36 H          -1.8368   -2.1334    0.9988 H       1  UNL1        0.0577
     37 H          -2.5001   -2.9345   -0.4594 H       1  UNL1        0.0577
     38 H          -0.7720    3.5027    0.6546 H       1  UNL1        0.0639
     39 H           0.5996    5.4530    1.1789 H       1  UNL1        0.0618
     40 H           2.9801    5.4225    0.5792 H       1  UNL1        0.0618
     41 H           3.9377    3.4655   -0.5217 H       1  UNL1        0.0639
     42 H           1.8936   -1.4147   -2.9278 H       1  UNL1        0.0378
     43 H           3.4870   -0.6946   -2.6619 H       1  UNL1        0.0378
     44 H           4.5746   -1.1251   -0.4795 H       1  UNL1        0.0620
     45 H           5.1500   -2.9123    1.1766 H       1  UNL1        0.0618
     46 H           3.6575   -4.8951    1.3970 H       1  UNL1        0.0618
     47 H           1.6835   -5.0463    0.0011 H       1  UNL1        0.0618
     48 H           1.1103   -3.2948   -1.6434 H       1  UNL1        0.0620
@<TRIPOS>BOND
     1     1     2    1
     2     2     3    1
     3     3     4   ar
     4     4     5   ar
     5     5     6   ar
     6     6     7   ar
     7     7     8   ar
     8     8     9    1
     9     9    10    1
    10    10    11    2
    11    11    12    1
    12    12    13   ar
    13    13    14   ar
    14    14    15   ar
    15    15    16   ar
    16    16    17   ar
    17    17    18   ar
    18    18    19   ar
    19    19    20   ar
    20    20    21   ar
    21    21    22    1
    22    22    23    1
    23    23    24   ar
    24    24    25   ar
    25    25    26   ar
    26    26    27   ar
    27    27    28   ar
    28     8     3   ar
    29    21    12   ar
    30    28    23   ar
    31    19    14   ar
    32     1    29    1
    33     1    30    1
    34     1    31    1
    35     4    32    1
    36     5    33    1
    37     6    34    1
    38     7    35    1
    39     9    36    1
    40     9    37    1
    41    15    38    1
    42    16    39    1
    43    17    40    1
    44    18    41    1
    45    22    42    1
    46    22    43    1
    47    24    44    1
    48    25    45    1
    49    26    46    1
    50    27    47    1
    51    28    48    1
