
     RDKit          3D

 49 52  0  0  0  0  0  0  0  0999 V2000
   -2.1047   -2.2645   -0.6144 C   0  0  0  0  0  0  0  0  0  0  0  0
   -2.0490   -2.7626    0.8139 C   0  0  0  0  0  0  0  0  0  0  0  0
   -3.4291   -2.8652    1.4240 C   0  0  0  0  0  0  0  0  0  0  0  0
   -1.5752   -4.0968    0.7270 O   0  0  0  0  0  0  0  0  0  0  0  0
   -1.0803   -2.0338    1.6671 C   0  0  0  0  0  0  0  0  0  0  0  0
   -1.2933   -0.6320    1.8229 N   0  0  0  0  0  0  0  0  0  0  0  0
   -2.0448    0.0246    2.7475 C   0  0  0  0  0  0  0  0  0  0  0  0
   -1.9878    1.3406    2.5529 N   0  0  0  0  0  0  0  0  0  0  0  0
   -1.1938    1.5863    1.4904 C   0  0  0  0  0  0  0  0  0  0  0  0
   -0.8942    2.9212    0.9711 C   0  0  0  0  0  0  0  0  0  0  0  0
   -1.5657    3.3800   -0.1373 C   0  0  0  0  0  0  0  0  0  0  0  0
   -1.3178    4.6341   -0.6771 C   0  0  0  0  0  0  0  0  0  0  0  0
   -0.3787    5.4479   -0.0970 C   0  0  0  0  0  0  0  0  0  0  0  0
   -0.0996    6.6861   -0.5891 F   0  0  0  0  0  0  0  0  0  0  0  0
    0.2908    4.9991    1.0027 C   0  0  0  0  0  0  0  0  0  0  0  0
    0.0390    3.7435    1.5386 C   0  0  0  0  0  0  0  0  0  0  0  0
   -0.7744    0.3413    1.0548 C   0  0  0  0  0  0  0  0  0  0  0  0
    0.1293    0.1466   -0.0896 C   0  0  0  0  0  0  0  0  0  0  0  0
   -0.2687    0.4668   -1.3667 C   0  0  0  0  0  0  0  0  0  0  0  0
    0.6018    0.2827   -2.4193 C   0  0  0  0  0  0  0  0  0  0  0  0
    1.8652   -0.2277   -2.1363 C   0  0  0  0  0  0  0  0  0  0  0  0
    2.8952   -0.5029   -2.9510 N   0  0  0  0  0  0  0  0  0  0  0  0
    3.9015   -0.9790   -2.2053 C   0  0  0  0  0  0  0  0  0  0  0  0
    3.5012   -1.0072   -0.8838 C   0  0  0  0  0  0  0  0  0  0  0  0
    4.2958   -1.4563    0.2533 C   0  0  0  0  0  0  0  0  0  0  0  0
    5.6123   -1.9157    0.0423 N   0  0  0  0  0  0  0  0  0  0  0  0
    3.8115   -1.4330    1.4028 O   0  0  0  0  0  0  0  0  0  0  0  0
    2.2288   -0.5330   -0.8762 N   0  0  0  0  0  0  0  0  0  0  0  0
    1.3978   -0.3626    0.1689 C   0  0  0  0  0  0  0  0  0  0  0  0
   -1.0965   -2.2931   -1.0675 H   0  0  0  0  0  0  0  0  0  0  0  0
   -2.7353   -2.9204   -1.2527 H   0  0  0  0  0  0  0  0  0  0  0  0
   -2.5810   -1.2550   -0.6775 H   0  0  0  0  0  0  0  0  0  0  0  0
   -3.4442   -3.5750    2.2541 H   0  0  0  0  0  0  0  0  0  0  0  0
   -4.0994   -3.2791    0.6179 H   0  0  0  0  0  0  0  0  0  0  0  0
   -3.8306   -1.9037    1.7607 H   0  0  0  0  0  0  0  0  0  0  0  0
   -2.2417   -4.6734    0.2781 H   0  0  0  0  0  0  0  0  0  0  0  0
   -1.1322   -2.4811    2.7023 H   0  0  0  0  0  0  0  0  0  0  0  0
   -0.0528   -2.2896    1.3139 H   0  0  0  0  0  0  0  0  0  0  0  0
   -2.6024   -0.4550    3.5209 H   0  0  0  0  0  0  0  0  0  0  0  0
   -2.3206    2.8000   -0.6441 H   0  0  0  0  0  0  0  0  0  0  0  0
   -1.8357    5.0067   -1.5444 H   0  0  0  0  0  0  0  0  0  0  0  0
    1.0333    5.6344    1.4675 H   0  0  0  0  0  0  0  0  0  0  0  0
    0.5697    3.4103    2.3956 H   0  0  0  0  0  0  0  0  0  0  0  0
   -1.2830    0.8631   -1.5340 H   0  0  0  0  0  0  0  0  0  0  0  0
    0.2992    0.5289   -3.4082 H   0  0  0  0  0  0  0  0  0  0  0  0
    4.8857   -1.2986   -2.5608 H   0  0  0  0  0  0  0  0  0  0  0  0
    6.3852   -1.2389   -0.2094 H   0  0  0  0  0  0  0  0  0  0  0  0
    5.9083   -2.9112    0.1157 H   0  0  0  0  0  0  0  0  0  0  0  0
    1.6613   -0.5979    1.1862 H   0  0  0  0  0  0  0  0  0  0  0  0
  1  2  1  0
  2  3  1  0
  2  4  1  0
  2  5  1  0
  5  6  1  0
  6  7  1  0
  7  8  2  0
  8  9  1  0
  9 10  1  0
 10 11  2  0
 11 12  1  0
 12 13  2  0
 13 14  1  0
 13 15  1  0
 15 16  2  0
  9 17  2  0
 17 18  1  0
 18 19  1  0
 19 20  2  0
 20 21  1  0
 21 22  2  0
 22 23  1  0
 23 24  2  0
 24 25  1  0
 25 26  1  0
 25 27  2  0
 24 28  1  0
 28 29  1  0
 17  6  1  0
 29 18  2  0
 16 10  1  0
 28 21  1  0
  1 30  1  0
  1 31  1  0
  1 32  1  0
  3 33  1  0
  3 34  1  0
  3 35  1  0
  4 36  1  0
  5 37  1  0
  5 38  1  0
  7 39  1  0
 11 40  1  0
 12 41  1  0
 15 42  1  0
 16 43  1  0
 19 44  1  0
 20 45  1  0
 23 46  1  0
 26 47  1  0
 26 48  1  0
 29 49  1  0
M  END
$$$$
