@<TRIPOS>MOLECULE
*****
 49 52 0 0 0
SMALL
GASTEIGER

@<TRIPOS>ATOM
      1 C          -2.1047   -2.2645   -0.6144 C.3     1  UNL1       -0.0347
      2 C          -2.0490   -2.7626    0.8139 C.3     1  UNL1        0.0783
      3 C          -3.4291   -2.8652    1.4240 C.3     1  UNL1       -0.0347
      4 O          -1.5752   -4.0968    0.7270 O.3     1  UNL1       -0.3874
      5 C          -1.0803   -2.0338    1.6671 C.3     1  UNL1        0.0530
      6 N          -1.2933   -0.6320    1.8229 N.ar    1  UNL1       -0.3268
      7 C          -2.0448    0.0246    2.7475 C.ar    1  UNL1        0.0972
      8 N          -1.9878    1.3406    2.5529 N.ar    1  UNL1       -0.2351
      9 C          -1.1938    1.5863    1.4904 C.ar    1  UNL1        0.0967
     10 C          -0.8942    2.9212    0.9711 C.ar    1  UNL1        0.0026
     11 C          -1.5657    3.3800   -0.1373 C.ar    1  UNL1       -0.0498
     12 C          -1.3178    4.6341   -0.6771 C.ar    1  UNL1       -0.0258
     13 C          -0.3787    5.4479   -0.0970 C.ar    1  UNL1        0.1234
     14 F          -0.0996    6.6861   -0.5891 F       1  UNL1       -0.2055
     15 C           0.2908    4.9991    1.0027 C.ar    1  UNL1       -0.0258
     16 C           0.0390    3.7435    1.5386 C.ar    1  UNL1       -0.0498
     17 C          -0.7744    0.3413    1.0548 C.ar    1  UNL1        0.0779
     18 C           0.1293    0.1466   -0.0896 C.ar    1  UNL1        0.0173
     19 C          -0.2687    0.4668   -1.3667 C.ar    1  UNL1       -0.0477
     20 C           0.6018    0.2827   -2.4193 C.ar    1  UNL1       -0.0182
     21 C           1.8652   -0.2277   -2.1363 C.ar    1  UNL1        0.1381
     22 N           2.8952   -0.5029   -2.9510 N.ar    1  UNL1       -0.2353
     23 C           3.9015   -0.9790   -2.2053 C.ar    1  UNL1        0.0588
     24 C           3.5012   -1.0072   -0.8838 C.ar    1  UNL1        0.1280
     25 C           4.2958   -1.4563    0.2533 C.2     1  UNL1        0.2599
     26 N           5.6123   -1.9157    0.0423 N.am    1  UNL1       -0.3241
     27 O           3.8115   -1.4330    1.4028 O.2     1  UNL1       -0.2687
     28 N           2.2288   -0.5330   -0.8762 N.ar    1  UNL1       -0.2949
     29 C           1.3978   -0.3626    0.1689 C.ar    1  UNL1        0.0211
     30 H          -1.0965   -2.2931   -1.0675 H       1  UNL1        0.0258
     31 H          -2.7353   -2.9204   -1.2527 H       1  UNL1        0.0258
     32 H          -2.5810   -1.2550   -0.6775 H       1  UNL1        0.0258
     33 H          -3.4442   -3.5750    2.2541 H       1  UNL1        0.0258
     34 H          -4.0994   -3.2791    0.6179 H       1  UNL1        0.0258
     35 H          -3.8306   -1.9037    1.7607 H       1  UNL1        0.0258
     36 H          -2.2417   -4.6734    0.2781 H       1  UNL1        0.2102
     37 H          -1.1322   -2.4811    2.7023 H       1  UNL1        0.0520
     38 H          -0.0528   -2.2896    1.3139 H       1  UNL1        0.0520
     39 H          -2.6024   -0.4550    3.5209 H       1  UNL1        0.1029
     40 H          -2.3206    2.8000   -0.6441 H       1  UNL1        0.0625
     41 H          -1.8357    5.0067   -1.5444 H       1  UNL1        0.0646
     42 H           1.0333    5.6344    1.4675 H       1  UNL1        0.0646
     43 H           0.5697    3.4103    2.3956 H       1  UNL1        0.0625
     44 H          -1.2830    0.8631   -1.5340 H       1  UNL1        0.0626
     45 H           0.2992    0.5289   -3.4082 H       1  UNL1        0.0654
     46 H           4.8857   -1.2986   -2.5608 H       1  UNL1        0.0853
     47 H           6.3852   -1.2389   -0.2094 H       1  UNL1        0.1453
     48 H           5.9083   -2.9112    0.1157 H       1  UNL1        0.1453
     49 H           1.6613   -0.5979    1.1862 H       1  UNL1        0.0820
@<TRIPOS>BOND
     1     1     2    1
     2     2     3    1
     3     2     4    1
     4     2     5    1
     5     5     6    1
     6     6     7   ar
     7     7     8   ar
     8     8     9   ar
     9     9    10    1
    10    10    11   ar
    11    11    12   ar
    12    12    13   ar
    13    13    14    1
    14    13    15   ar
    15    15    16   ar
    16     9    17   ar
    17    17    18    1
    18    18    19   ar
    19    19    20   ar
    20    20    21   ar
    21    21    22   ar
    22    22    23   ar
    23    23    24   ar
    24    24    25    1
    25    25    26   am
    26    25    27    2
    27    24    28   ar
    28    28    29   ar
    29    17     6   ar
    30    29    18   ar
    31    16    10   ar
    32    28    21   ar
    33     1    30    1
    34     1    31    1
    35     1    32    1
    36     3    33    1
    37     3    34    1
    38     3    35    1
    39     4    36    1
    40     5    37    1
    41     5    38    1
    42     7    39    1
    43    11    40    1
    44    12    41    1
    45    15    42    1
    46    16    43    1
    47    19    44    1
    48    20    45    1
    49    23    46    1
    50    26    47    1
    51    26    48    1
    52    29    49    1
