@<TRIPOS>MOLECULE
*****
 29 28 0 0 0
SMALL
GASTEIGER

@<TRIPOS>ATOM
      1 N           3.1367    1.1564    0.5258 N.3     1  UNL1       -0.3300
      2 C           3.4328   -0.2450    0.5417 C.3     1  UNL1       -0.0069
      3 C           2.1802   -1.0451    0.4899 C.3     1  UNL1       -0.0395
      4 C           1.3083   -0.8811   -0.6935 C.3     1  UNL1       -0.0393
      5 C           0.7411    0.4604   -0.9550 C.3     1  UNL1       -0.0041
      6 N          -0.0868    0.9763    0.1123 N.3     1  UNL1       -0.3159
      7 C          -1.3267    0.2406    0.2637 C.3     1  UNL1       -0.0030
      8 C          -2.2796    0.4229   -0.8931 C.3     1  UNL1       -0.0281
      9 C          -3.5557   -0.3733   -0.6592 C.3     1  UNL1       -0.0058
     10 N          -4.2497    0.0292    0.5384 N.3     1  UNL1       -0.3299
     11 H           3.2076    1.6022    1.4747 H       1  UNL1        0.1182
     12 H           3.6992    1.6846   -0.1868 H       1  UNL1        0.1182
     13 H           3.9939   -0.4750    1.4969 H       1  UNL1        0.0422
     14 H           4.1579   -0.5033   -0.2574 H       1  UNL1        0.0422
     15 H           2.4789   -2.1426    0.5053 H       1  UNL1        0.0278
     16 H           1.5958   -0.9348    1.4578 H       1  UNL1        0.0278
     17 H           0.4574   -1.6149   -0.6654 H       1  UNL1        0.0278
     18 H           1.9400   -1.1429   -1.5984 H       1  UNL1        0.0278
     19 H           0.1571    0.4354   -1.9136 H       1  UNL1        0.0424
     20 H           1.5522    1.1829   -1.1384 H       1  UNL1        0.0424
     21 H           0.4112    0.9741    1.0037 H       1  UNL1        0.1219
     22 H          -1.8361    0.7025    1.1510 H       1  UNL1        0.0424
     23 H          -1.1964   -0.8148    0.5013 H       1  UNL1        0.0424
     24 H          -1.8502    0.0815   -1.8492 H       1  UNL1        0.0290
     25 H          -2.5822    1.4937   -1.0010 H       1  UNL1        0.0290
     26 H          -3.2101   -1.4428   -0.5682 H       1  UNL1        0.0422
     27 H          -4.2211   -0.3145   -1.5234 H       1  UNL1        0.0422
     28 H          -4.1589    1.0254    0.7650 H       1  UNL1        0.1182
     29 H          -3.8968   -0.5379    1.3335 H       1  UNL1        0.1182
@<TRIPOS>BOND
     1     1     2    1
     2     2     3    1
     3     3     4    1
     4     4     5    1
     5     5     6    1
     6     6     7    1
     7     7     8    1
     8     8     9    1
     9     9    10    1
    10     1    11    1
    11     1    12    1
    12     2    13    1
    13     2    14    1
    14     3    15    1
    15     3    16    1
    16     4    17    1
    17     4    18    1
    18     5    19    1
    19     5    20    1
    20     6    21    1
    21     7    22    1
    22     7    23    1
    23     8    24    1
    24     8    25    1
    25     9    26    1
    26     9    27    1
    27    10    28    1
    28    10    29    1
