
     RDKit          3D

 29 28  0  0  0  0  0  0  0  0999 V2000
    3.1367    1.1564    0.5258 N   0  0  0  0  0  0  0  0  0  0  0  0
    3.4328   -0.2450    0.5417 C   0  0  0  0  0  0  0  0  0  0  0  0
    2.1802   -1.0451    0.4899 C   0  0  0  0  0  0  0  0  0  0  0  0
    1.3083   -0.8811   -0.6935 C   0  0  0  0  0  0  0  0  0  0  0  0
    0.7411    0.4604   -0.9550 C   0  0  0  0  0  0  0  0  0  0  0  0
   -0.0868    0.9763    0.1123 N   0  0  0  0  0  0  0  0  0  0  0  0
   -1.3267    0.2406    0.2637 C   0  0  0  0  0  0  0  0  0  0  0  0
   -2.2796    0.4229   -0.8931 C   0  0  0  0  0  0  0  0  0  0  0  0
   -3.5557   -0.3733   -0.6592 C   0  0  0  0  0  0  0  0  0  0  0  0
   -4.2497    0.0292    0.5384 N   0  0  0  0  0  0  0  0  0  0  0  0
    3.2076    1.6022    1.4747 H   0  0  0  0  0  0  0  0  0  0  0  0
    3.6992    1.6846   -0.1868 H   0  0  0  0  0  0  0  0  0  0  0  0
    3.9939   -0.4750    1.4969 H   0  0  0  0  0  0  0  0  0  0  0  0
    4.1579   -0.5033   -0.2574 H   0  0  0  0  0  0  0  0  0  0  0  0
    2.4789   -2.1426    0.5053 H   0  0  0  0  0  0  0  0  0  0  0  0
    1.5958   -0.9348    1.4578 H   0  0  0  0  0  0  0  0  0  0  0  0
    0.4574   -1.6149   -0.6654 H   0  0  0  0  0  0  0  0  0  0  0  0
    1.9400   -1.1429   -1.5984 H   0  0  0  0  0  0  0  0  0  0  0  0
    0.1571    0.4354   -1.9136 H   0  0  0  0  0  0  0  0  0  0  0  0
    1.5522    1.1829   -1.1384 H   0  0  0  0  0  0  0  0  0  0  0  0
    0.4112    0.9741    1.0037 H   0  0  0  0  0  0  0  0  0  0  0  0
   -1.8361    0.7025    1.1510 H   0  0  0  0  0  0  0  0  0  0  0  0
   -1.1964   -0.8148    0.5013 H   0  0  0  0  0  0  0  0  0  0  0  0
   -1.8502    0.0815   -1.8492 H   0  0  0  0  0  0  0  0  0  0  0  0
   -2.5822    1.4937   -1.0010 H   0  0  0  0  0  0  0  0  0  0  0  0
   -3.2101   -1.4428   -0.5682 H   0  0  0  0  0  0  0  0  0  0  0  0
   -4.2211   -0.3145   -1.5234 H   0  0  0  0  0  0  0  0  0  0  0  0
   -4.1589    1.0254    0.7650 H   0  0  0  0  0  0  0  0  0  0  0  0
   -3.8968   -0.5379    1.3335 H   0  0  0  0  0  0  0  0  0  0  0  0
  1  2  1  0
  2  3  1  0
  3  4  1  0
  4  5  1  0
  5  6  1  0
  6  7  1  0
  7  8  1  0
  8  9  1  0
  9 10  1  0
  1 11  1  0
  1 12  1  0
  2 13  1  0
  2 14  1  0
  3 15  1  0
  3 16  1  0
  4 17  1  0
  4 18  1  0
  5 19  1  0
  5 20  1  0
  6 21  1  0
  7 22  1  0
  7 23  1  0
  8 24  1  0
  8 25  1  0
  9 26  1  0
  9 27  1  0
 10 28  1  0
 10 29  1  0
M  END
$$$$
