
     RDKit          3D

 62 65  0  0  0  0  0  0  0  0999 V2000
   -3.9916   -0.4436   -3.4680 C   0  0  0  0  0  0  0  0  0  0  0  0
   -4.6509   -0.1510   -2.1894 N   0  0  0  0  0  0  0  0  0  0  0  0
   -6.0765   -0.1980   -2.4328 C   0  0  0  0  0  0  0  0  0  0  0  0
   -4.3266   -1.2905   -1.3297 C   0  0  0  0  0  0  0  0  0  0  0  0
   -2.8482   -1.2442   -1.0256 C   0  0  0  0  0  0  0  0  0  0  0  0
   -2.4465    0.0007   -0.3091 C   0  0  0  0  0  0  0  0  0  0  0  0
   -1.0154    0.0050   -0.0390 N   0  0  0  0  0  0  0  0  0  0  0  0
   -0.2073    1.1201   -0.4089 C   0  0  0  0  0  0  0  0  0  0  0  0
   -0.8185    2.0767   -0.9655 O   0  0  0  0  0  0  0  0  0  0  0  0
    1.2401    1.2165   -0.1882 C   0  0  0  0  0  0  0  0  0  0  0  0
    1.7099    2.5300   -0.5694 N   0  0  0  0  0  0  0  0  0  0  0  0
    2.0239    0.2310   -1.0374 C   0  0  0  0  0  0  0  0  0  0  0  0
    3.4714    0.6015   -0.9044 C   0  0  0  0  0  0  0  0  0  0  0  0
    3.9199    0.7995    0.4460 N   0  0  0  0  0  0  0  0  0  0  0  0
    5.1873    0.3101    0.8425 C   0  0  0  0  0  0  0  0  0  0  0  0
    6.1554    1.1170    1.3279 N   0  0  0  0  0  0  0  0  0  0  0  0
    7.3641    0.6913    1.7128 C   0  0  0  0  0  0  0  0  0  0  0  0
    7.6764   -0.6181    1.6271 N   0  0  0  0  0  0  0  0  0  0  0  0
    6.7433   -1.4651    1.1480 C   0  0  0  0  0  0  0  0  0  0  0  0
    6.7510   -2.8056    0.9427 N   0  0  0  0  0  0  0  0  0  0  0  0
    5.5770   -3.2185    0.4412 C   0  0  0  0  0  0  0  0  0  0  0  0
    4.7807   -2.1066    0.3167 C   0  0  0  0  0  0  0  0  0  0  0  0
    5.5049   -1.0317    0.7531 C   0  0  0  0  0  0  0  0  0  0  0  0
    3.0790    1.5004    1.3819 C   0  0  0  0  0  0  0  0  0  0  0  0
    1.6699    0.9659    1.2389 C   0  0  0  0  0  0  0  0  0  0  0  0
   -3.2235    0.2276    0.9427 C   0  0  0  0  0  0  0  0  0  0  0  0
   -2.9572   -0.3887    2.1200 C   0  0  0  0  0  0  0  0  0  0  0  0
   -3.7178   -0.1407    3.2357 C   0  0  0  0  0  0  0  0  0  0  0  0
   -4.7714    0.7538    3.1467 C   0  0  0  0  0  0  0  0  0  0  0  0
   -5.7757    1.1064    4.5520 Cl  0  0  0  0  0  0  0  0  0  0  0  0
   -5.0727    1.3991    1.9683 C   0  0  0  0  0  0  0  0  0  0  0  0
   -4.2786    1.1158    0.8773 C   0  0  0  0  0  0  0  0  0  0  0  0
   -3.5991   -1.4702   -3.5223 H   0  0  0  0  0  0  0  0  0  0  0  0
   -3.1559    0.2433   -3.5822 H   0  0  0  0  0  0  0  0  0  0  0  0
   -4.6929   -0.3211   -4.3196 H   0  0  0  0  0  0  0  0  0  0  0  0
   -6.2940   -0.1964   -3.5342 H   0  0  0  0  0  0  0  0  0  0  0  0
   -6.5855    0.6729   -1.9595 H   0  0  0  0  0  0  0  0  0  0  0  0
   -6.5056   -1.1357   -2.0323 H   0  0  0  0  0  0  0  0  0  0  0  0
   -4.9589   -1.2052   -0.4361 H   0  0  0  0  0  0  0  0  0  0  0  0
   -4.5690   -2.1793   -1.9677 H   0  0  0  0  0  0  0  0  0  0  0  0
   -2.5913   -2.1724   -0.4851 H   0  0  0  0  0  0  0  0  0  0  0  0
   -2.2824   -1.2712   -1.9791 H   0  0  0  0  0  0  0  0  0  0  0  0
   -2.6527    0.8673   -0.9638 H   0  0  0  0  0  0  0  0  0  0  0  0
   -0.5180   -0.7864    0.4256 H   0  0  0  0  0  0  0  0  0  0  0  0
    1.4088    3.2499    0.1545 H   0  0  0  0  0  0  0  0  0  0  0  0
    1.3342    2.8296   -1.5132 H   0  0  0  0  0  0  0  0  0  0  0  0
    1.7981   -0.8018   -0.7691 H   0  0  0  0  0  0  0  0  0  0  0  0
    1.7246    0.4341   -2.0940 H   0  0  0  0  0  0  0  0  0  0  0  0
    3.5830    1.6005   -1.4198 H   0  0  0  0  0  0  0  0  0  0  0  0
    4.1477   -0.1099   -1.4204 H   0  0  0  0  0  0  0  0  0  0  0  0
    8.1024    1.4090    2.0974 H   0  0  0  0  0  0  0  0  0  0  0  0
    7.5597   -3.4424    1.1457 H   0  0  0  0  0  0  0  0  0  0  0  0
    5.2703   -4.2204    0.1696 H   0  0  0  0  0  0  0  0  0  0  0  0
    3.7649   -2.0312   -0.0508 H   0  0  0  0  0  0  0  0  0  0  0  0
    3.0589    2.5938    1.1585 H   0  0  0  0  0  0  0  0  0  0  0  0
    3.4447    1.4177    2.4270 H   0  0  0  0  0  0  0  0  0  0  0  0
    0.9915    1.4609    1.9644 H   0  0  0  0  0  0  0  0  0  0  0  0
    1.6396   -0.1322    1.3965 H   0  0  0  0  0  0  0  0  0  0  0  0
   -2.1341   -1.0855    2.1745 H   0  0  0  0  0  0  0  0  0  0  0  0
   -3.5147   -0.6339    4.1999 H   0  0  0  0  0  0  0  0  0  0  0  0
   -5.9111    2.1062    1.9105 H   0  0  0  0  0  0  0  0  0  0  0  0
   -4.5390    1.6443   -0.0541 H   0  0  0  0  0  0  0  0  0  0  0  0
  1  2  1  0
  2  3  1  0
  2  4  1  0
  4  5  1  0
  5  6  1  0
  6  7  1  0
  7  8  1  0
  8  9  2  0
  8 10  1  0
 10 11  1  0
 10 12  1  0
 12 13  1  0
 13 14  1  0
 14 15  1  0
 15 16  2  0
 16 17  1  0
 17 18  2  0
 18 19  1  0
 19 20  1  0
 20 21  1  0
 21 22  2  0
 22 23  1  0
 14 24  1  0
 24 25  1  0
  6 26  1  0
 26 27  2  0
 27 28  1  0
 28 29  2  0
 29 30  1  0
 29 31  1  0
 31 32  2  0
 25 10  1  0
 32 26  1  0
 23 15  1  0
 23 19  2  0
  1 33  1  0
  1 34  1  0
  1 35  1  0
  3 36  1  0
  3 37  1  0
  3 38  1  0
  4 39  1  0
  4 40  1  0
  5 41  1  0
  5 42  1  0
  6 43  1  0
  7 44  1  0
 11 45  1  0
 11 46  1  0
 12 47  1  0
 12 48  1  0
 13 49  1  0
 13 50  1  0
 17 51  1  0
 20 52  1  0
 21 53  1  0
 22 54  1  0
 24 55  1  0
 24 56  1  0
 25 57  1  0
 25 58  1  0
 27 59  1  0
 28 60  1  0
 31 61  1  0
 32 62  1  0
M  END
$$$$
