@<TRIPOS>MOLECULE
*****
 62 65 0 0 0
SMALL
GASTEIGER

@<TRIPOS>ATOM
      1 C          -3.9916   -0.4436   -3.4680 C.3     1  UNL1       -0.0130
      2 N          -4.6509   -0.1510   -2.1894 N.3     1  UNL1       -0.3083
      3 C          -6.0765   -0.1980   -2.4328 C.3     1  UNL1       -0.0130
      4 C          -4.3266   -1.2905   -1.3297 C.3     1  UNL1        0.0003
      5 C          -2.8482   -1.2442   -1.0256 C.3     1  UNL1       -0.0175
      6 C          -2.4465    0.0007   -0.3091 C.3     1  UNL1        0.0496
      7 N          -1.0154    0.0050   -0.0390 N.am    1  UNL1       -0.3069
      8 C          -0.2073    1.1201   -0.4089 C.2     1  UNL1        0.2336
      9 O          -0.8185    2.0767   -0.9655 O.2     1  UNL1       -0.2738
     10 C           1.2401    1.2165   -0.1882 C.3     1  UNL1        0.0965
     11 N           1.7099    2.5300   -0.5694 N.3     1  UNL1       -0.3173
     12 C           2.0239    0.2310   -1.0374 C.3     1  UNL1       -0.0104
     13 C           3.4714    0.6015   -0.9044 C.3     1  UNL1        0.0156
     14 N           3.9199    0.7995    0.4460 N.pl3   1  UNL1       -0.3144
     15 C           5.1873    0.3101    0.8425 C.ar    1  UNL1        0.1337
     16 N           6.1554    1.1170    1.3279 N.ar    1  UNL1       -0.2200
     17 C           7.3641    0.6913    1.7128 C.ar    1  UNL1        0.1204
     18 N           7.6764   -0.6181    1.6271 N.ar    1  UNL1       -0.2178
     19 C           6.7433   -1.4651    1.1480 C.ar    1  UNL1        0.1432
     20 N           6.7510   -2.8056    0.9427 N.ar    1  UNL1       -0.3457
     21 C           5.5770   -3.2185    0.4412 C.ar    1  UNL1        0.0042
     22 C           4.7807   -2.1066    0.3167 C.ar    1  UNL1       -0.0318
     23 C           5.5049   -1.0317    0.7531 C.ar    1  UNL1        0.0585
     24 C           3.0790    1.5004    1.3819 C.3     1  UNL1        0.0156
     25 C           1.6699    0.9659    1.2389 C.3     1  UNL1       -0.0104
     26 C          -3.2235    0.2276    0.9427 C.ar    1  UNL1       -0.0271
     27 C          -2.9572   -0.3887    2.1200 C.ar    1  UNL1       -0.0554
     28 C          -3.7178   -0.1407    3.2357 C.ar    1  UNL1       -0.0431
     29 C          -4.7714    0.7538    3.1467 C.ar    1  UNL1        0.0410
     30 CL         -5.7757    1.1064    4.5520 Cl      1  UNL1       -0.0835
     31 C          -5.0727    1.3991    1.9683 C.ar    1  UNL1       -0.0431
     32 C          -4.2786    1.1158    0.8773 C.ar    1  UNL1       -0.0554
     33 H          -3.5991   -1.4702   -3.5223 H       1  UNL1        0.0391
     34 H          -3.1559    0.2433   -3.5822 H       1  UNL1        0.0391
     35 H          -4.6929   -0.3211   -4.3196 H       1  UNL1        0.0391
     36 H          -6.2940   -0.1964   -3.5342 H       1  UNL1        0.0391
     37 H          -6.5855    0.6729   -1.9595 H       1  UNL1        0.0391
     38 H          -6.5056   -1.1357   -2.0323 H       1  UNL1        0.0391
     39 H          -4.9589   -1.2052   -0.4361 H       1  UNL1        0.0427
     40 H          -4.5690   -2.1793   -1.9677 H       1  UNL1        0.0427
     41 H          -2.5913   -2.1724   -0.4851 H       1  UNL1        0.0299
     42 H          -2.2824   -1.2712   -1.9791 H       1  UNL1        0.0299
     43 H          -2.6527    0.8673   -0.9638 H       1  UNL1        0.0549
     44 H          -0.5180   -0.7864    0.4256 H       1  UNL1        0.1493
     45 H           1.4088    3.2499    0.1545 H       1  UNL1        0.1192
     46 H           1.3342    2.8296   -1.5132 H       1  UNL1        0.1192
     47 H           1.7981   -0.8018   -0.7691 H       1  UNL1        0.0303
     48 H           1.7246    0.4341   -2.0940 H       1  UNL1        0.0303
     49 H           3.5830    1.6005   -1.4198 H       1  UNL1        0.0465
     50 H           4.1477   -0.1099   -1.4204 H       1  UNL1        0.0465
     51 H           8.1024    1.4090    2.0974 H       1  UNL1        0.1048
     52 H           7.5597   -3.4424    1.1457 H       1  UNL1        0.1668
     53 H           5.2703   -4.2204    0.1696 H       1  UNL1        0.0807
     54 H           3.7649   -2.0312   -0.0508 H       1  UNL1        0.0640
     55 H           3.0589    2.5938    1.1585 H       1  UNL1        0.0465
     56 H           3.4447    1.4177    2.4270 H       1  UNL1        0.0465
     57 H           0.9915    1.4609    1.9644 H       1  UNL1        0.0303
     58 H           1.6396   -0.1322    1.3965 H       1  UNL1        0.0303
     59 H          -2.1341   -1.0855    2.1745 H       1  UNL1        0.0621
     60 H          -3.5147   -0.6339    4.1999 H       1  UNL1        0.0632
     61 H          -5.9111    2.1062    1.9105 H       1  UNL1        0.0632
     62 H          -4.5390    1.6443   -0.0541 H       1  UNL1        0.0621
@<TRIPOS>BOND
     1     1     2    1
     2     2     3    1
     3     2     4    1
     4     4     5    1
     5     5     6    1
     6     6     7    1
     7     7     8   am
     8     8     9    2
     9     8    10    1
    10    10    11    1
    11    10    12    1
    12    12    13    1
    13    13    14    1
    14    14    15    1
    15    15    16   ar
    16    16    17   ar
    17    17    18   ar
    18    18    19   ar
    19    19    20   ar
    20    20    21   ar
    21    21    22   ar
    22    22    23   ar
    23    14    24    1
    24    24    25    1
    25     6    26    1
    26    26    27   ar
    27    27    28   ar
    28    28    29   ar
    29    29    30    1
    30    29    31   ar
    31    31    32   ar
    32    25    10    1
    33    32    26   ar
    34    23    15   ar
    35    23    19   ar
    36     1    33    1
    37     1    34    1
    38     1    35    1
    39     3    36    1
    40     3    37    1
    41     3    38    1
    42     4    39    1
    43     4    40    1
    44     5    41    1
    45     5    42    1
    46     6    43    1
    47     7    44    1
    48    11    45    1
    49    11    46    1
    50    12    47    1
    51    12    48    1
    52    13    49    1
    53    13    50    1
    54    17    51    1
    55    20    52    1
    56    21    53    1
    57    22    54    1
    58    24    55    1
    59    24    56    1
    60    25    57    1
    61    25    58    1
    62    27    59    1
    63    28    60    1
    64    31    61    1
    65    32    62    1
