@<TRIPOS>MOLECULE
*****
 38 40 0 0 0
SMALL
GASTEIGER

@<TRIPOS>ATOM
      1 C          -1.0323    2.8265   -2.2994 C.3     1  UNL1        0.0140
      2 C          -1.5793    1.9682   -1.2178 C.2     1  UNL1        0.2322
      3 O          -2.8231    1.9076   -1.0731 O.2     1  UNL1       -0.2741
      4 N          -0.7484    1.2180   -0.3469 N.am    1  UNL1       -0.1853
      5 N           0.6337    1.1479   -0.3328 N.2     1  UNL1       -0.1808
      6 C           1.0616    0.0926    0.2692 C.2     1  UNL1        0.0723
      7 C           2.4823   -0.2440    0.4371 C.ar    1  UNL1        0.0395
      8 C           2.8888   -1.3858    1.0895 C.ar    1  UNL1       -0.0459
      9 C           4.2319   -1.6734    1.2305 C.ar    1  UNL1       -0.0193
     10 C           5.1869   -0.8408    0.7314 C.ar    1  UNL1        0.1204
     11 O           6.5514   -1.0755    0.8414 O.3     1  UNL1       -0.5066
     12 C           4.8079    0.3085    0.0741 C.ar    1  UNL1        0.0219
     13 C           3.4451    0.5938   -0.0652 C.ar    1  UNL1        0.1292
     14 O           3.0598    1.7446   -0.7232 O.3     1  UNL1       -0.5060
     15 C          -0.1125   -0.6928    0.7418 C.3     1  UNL1        0.0165
     16 C          -1.1989    0.3599    0.7262 C.3     1  UNL1        0.0794
     17 C          -2.5327   -0.2384    0.4793 C.ar    1  UNL1       -0.0246
     18 C          -2.8845   -0.8144   -0.7185 C.ar    1  UNL1       -0.0553
     19 C          -4.1322   -1.3677   -0.9321 C.ar    1  UNL1       -0.0431
     20 C          -5.0670   -1.3462    0.0888 C.ar    1  UNL1        0.0410
     21 CL         -6.6517   -2.0430   -0.1664 Cl      1  UNL1       -0.0835
     22 C          -4.7053   -0.7667    1.2859 C.ar    1  UNL1       -0.0431
     23 C          -3.4506   -0.2165    1.4840 C.ar    1  UNL1       -0.0553
     24 H          -0.1021    2.3581   -2.6911 H       1  UNL1        0.0323
     25 H          -1.7927    2.9472   -3.0820 H       1  UNL1        0.0323
     26 H          -0.8401    3.8225   -1.8449 H       1  UNL1        0.0323
     27 H           2.1423   -2.0525    1.4888 H       1  UNL1        0.0626
     28 H           4.5781   -2.5711    1.7429 H       1  UNL1        0.0654
     29 H           6.9608   -1.7376    1.4847 H       1  UNL1        0.2921
     30 H           5.5221    0.9956   -0.3364 H       1  UNL1        0.0691
     31 H           2.8196    1.6539   -1.7150 H       1  UNL1        0.2922
     32 H           0.0488   -1.1221    1.7443 H       1  UNL1        0.0351
     33 H          -0.3263   -1.4499   -0.0344 H       1  UNL1        0.0351
     34 H          -1.1667    0.8876    1.7108 H       1  UNL1        0.0574
     35 H          -2.1863   -0.8522   -1.5399 H       1  UNL1        0.0621
     36 H          -4.4046   -1.8173   -1.8694 H       1  UNL1        0.0632
     37 H          -5.4229   -0.7463    2.0802 H       1  UNL1        0.0632
     38 H          -3.2610    0.2218    2.4759 H       1  UNL1        0.0621
@<TRIPOS>BOND
     1     1     2    1
     2     2     3    2
     3     2     4   am
     4     4     5    1
     5     5     6    2
     6     6     7    1
     7     7     8   ar
     8     8     9   ar
     9     9    10   ar
    10    10    11    1
    11    10    12   ar
    12    12    13   ar
    13    13    14    1
    14     6    15    1
    15    15    16    1
    16    16    17    1
    17    17    18   ar
    18    18    19   ar
    19    19    20   ar
    20    20    21    1
    21    20    22   ar
    22    22    23   ar
    23    16     4    1
    24    23    17   ar
    25    13     7   ar
    26     1    24    1
    27     1    25    1
    28     1    26    1
    29     8    27    1
    30     9    28    1
    31    11    29    1
    32    12    30    1
    33    14    31    1
    34    15    32    1
    35    15    33    1
    36    16    34    1
    37    18    35    1
    38    19    36    1
    39    22    37    1
    40    23    38    1
