
     RDKit          3D

 38 40  0  0  0  0  0  0  0  0999 V2000
   -1.0323    2.8265   -2.2994 C   0  0  0  0  0  0  0  0  0  0  0  0
   -1.5793    1.9682   -1.2178 C   0  0  0  0  0  0  0  0  0  0  0  0
   -2.8231    1.9076   -1.0731 O   0  0  0  0  0  0  0  0  0  0  0  0
   -0.7484    1.2180   -0.3469 N   0  0  0  0  0  0  0  0  0  0  0  0
    0.6337    1.1479   -0.3328 N   0  0  0  0  0  0  0  0  0  0  0  0
    1.0616    0.0926    0.2692 C   0  0  0  0  0  0  0  0  0  0  0  0
    2.4823   -0.2440    0.4371 C   0  0  0  0  0  0  0  0  0  0  0  0
    2.8888   -1.3858    1.0895 C   0  0  0  0  0  0  0  0  0  0  0  0
    4.2319   -1.6734    1.2305 C   0  0  0  0  0  0  0  0  0  0  0  0
    5.1869   -0.8408    0.7314 C   0  0  0  0  0  0  0  0  0  0  0  0
    6.5514   -1.0755    0.8414 O   0  0  0  0  0  0  0  0  0  0  0  0
    4.8079    0.3085    0.0741 C   0  0  0  0  0  0  0  0  0  0  0  0
    3.4451    0.5938   -0.0652 C   0  0  0  0  0  0  0  0  0  0  0  0
    3.0598    1.7446   -0.7232 O   0  0  0  0  0  0  0  0  0  0  0  0
   -0.1125   -0.6928    0.7418 C   0  0  0  0  0  0  0  0  0  0  0  0
   -1.1989    0.3599    0.7262 C   0  0  0  0  0  0  0  0  0  0  0  0
   -2.5327   -0.2384    0.4793 C   0  0  0  0  0  0  0  0  0  0  0  0
   -2.8845   -0.8144   -0.7185 C   0  0  0  0  0  0  0  0  0  0  0  0
   -4.1322   -1.3677   -0.9321 C   0  0  0  0  0  0  0  0  0  0  0  0
   -5.0670   -1.3462    0.0888 C   0  0  0  0  0  0  0  0  0  0  0  0
   -6.6517   -2.0430   -0.1664 Cl  0  0  0  0  0  0  0  0  0  0  0  0
   -4.7053   -0.7667    1.2859 C   0  0  0  0  0  0  0  0  0  0  0  0
   -3.4506   -0.2165    1.4840 C   0  0  0  0  0  0  0  0  0  0  0  0
   -0.1021    2.3581   -2.6911 H   0  0  0  0  0  0  0  0  0  0  0  0
   -1.7927    2.9472   -3.0820 H   0  0  0  0  0  0  0  0  0  0  0  0
   -0.8401    3.8225   -1.8449 H   0  0  0  0  0  0  0  0  0  0  0  0
    2.1423   -2.0525    1.4888 H   0  0  0  0  0  0  0  0  0  0  0  0
    4.5781   -2.5711    1.7429 H   0  0  0  0  0  0  0  0  0  0  0  0
    6.9608   -1.7376    1.4847 H   0  0  0  0  0  0  0  0  0  0  0  0
    5.5221    0.9956   -0.3364 H   0  0  0  0  0  0  0  0  0  0  0  0
    2.8196    1.6539   -1.7150 H   0  0  0  0  0  0  0  0  0  0  0  0
    0.0488   -1.1221    1.7443 H   0  0  0  0  0  0  0  0  0  0  0  0
   -0.3263   -1.4499   -0.0344 H   0  0  0  0  0  0  0  0  0  0  0  0
   -1.1667    0.8876    1.7108 H   0  0  0  0  0  0  0  0  0  0  0  0
   -2.1863   -0.8522   -1.5399 H   0  0  0  0  0  0  0  0  0  0  0  0
   -4.4046   -1.8173   -1.8694 H   0  0  0  0  0  0  0  0  0  0  0  0
   -5.4229   -0.7463    2.0802 H   0  0  0  0  0  0  0  0  0  0  0  0
   -3.2610    0.2218    2.4759 H   0  0  0  0  0  0  0  0  0  0  0  0
  1  2  1  0
  2  3  2  0
  2  4  1  0
  4  5  1  0
  5  6  2  0
  6  7  1  0
  7  8  2  0
  8  9  1  0
  9 10  2  0
 10 11  1  0
 10 12  1  0
 12 13  2  0
 13 14  1  0
  6 15  1  0
 15 16  1  0
 16 17  1  0
 17 18  2  0
 18 19  1  0
 19 20  2  0
 20 21  1  0
 20 22  1  0
 22 23  2  0
 16  4  1  0
 23 17  1  0
 13  7  1  0
  1 24  1  0
  1 25  1  0
  1 26  1  0
  8 27  1  0
  9 28  1  0
 11 29  1  0
 12 30  1  0
 14 31  1  0
 15 32  1  0
 15 33  1  0
 16 34  1  0
 18 35  1  0
 19 36  1  0
 22 37  1  0
 23 38  1  0
M  END
$$$$
