@<TRIPOS>MOLECULE
*****
 61 65 0 0 0
SMALL
GASTEIGER

@<TRIPOS>ATOM
      1 C           9.3072   -1.4067   -0.1458 C.3     1  UNL1        0.0804
      2 O           8.1417   -1.8948    0.4487 O.3     1  UNL1       -0.4796
      3 C           6.9521   -1.2033    0.2706 C.ar    1  UNL1        0.2162
      4 C           5.8017   -1.6607    0.8415 C.ar    1  UNL1        0.0212
      5 C           4.5815   -0.9973    0.6889 C.ar    1  UNL1        0.0400
      6 N           3.4195   -1.5204    1.2944 N.pl3   1  UNL1       -0.2834
      7 C           2.1939   -0.7881    1.1688 C.ar    1  UNL1        0.2212
      8 N           1.8134    0.0689    2.1232 N.ar    1  UNL1       -0.2219
      9 C           0.7032    0.7861    2.0836 C.ar    1  UNL1        0.0437
     10 C          -0.1386    0.6242    0.9348 C.ar    1  UNL1        0.0583
     11 C          -1.1284    1.6670    0.7183 C.ar    1  UNL1        0.0764
     12 C          -1.5972    2.0642   -0.4998 C.ar    1  UNL1       -0.0349
     13 C          -2.4081    3.1760   -0.6962 C.ar    1  UNL1       -0.0505
     14 C          -2.7526    3.9162    0.4104 C.ar    1  UNL1        0.0004
     15 C          -3.5696    5.0386    0.2465 C.ar    1  UNL1       -0.0526
     16 C          -3.8779    5.7350    1.4081 C.ar    1  UNL1       -0.0611
     17 C          -3.4351    5.3829    2.6498 C.ar    1  UNL1       -0.0597
     18 C          -2.6333    4.2708    2.7628 C.ar    1  UNL1       -0.0357
     19 C          -2.2882    3.5271    1.6207 C.ar    1  UNL1        0.0717
     20 N          -1.5012    2.4377    1.7684 N.ar    1  UNL1       -0.2465
     21 C           0.2097   -0.2324   -0.0260 C.ar    1  UNL1        0.1334
     22 N          -0.6525   -0.7894   -0.9939 N.pl3   1  UNL1       -0.3230
     23 C          -2.0664   -0.9620   -0.8778 C.3     1  UNL1        0.0507
     24 C          -2.3470   -2.2044    0.0300 C.3     1  UNL1       -0.0247
     25 C          -3.6527   -2.6537   -0.5803 C.3     1  UNL1        0.0124
     26 C          -4.0720   -4.0203   -0.1012 C.3     1  UNL1        0.0495
     27 O          -3.1370   -4.9885   -0.4175 O.3     1  UNL1       -0.3946
     28 C          -3.2668   -2.6707   -2.0504 C.3     1  UNL1        0.0877
     29 O          -4.3842   -2.8559   -2.8631 O.3     1  UNL1       -0.3888
     30 C          -2.6877   -1.2825   -2.2034 C.3     1  UNL1        0.0996
     31 O          -3.7885   -0.4106   -2.3689 O.3     1  UNL1       -0.3874
     32 N           1.4006   -0.9365    0.1068 N.ar    1  UNL1       -0.1988
     33 C           4.5685    0.1509   -0.0658 C.ar    1  UNL1       -0.0221
     34 C           5.7483    0.5965   -0.6358 C.ar    1  UNL1        0.0331
     35 N           6.9116   -0.0640   -0.4718 N.ar    1  UNL1       -0.2212
     36 H          10.1762   -2.1052    0.0118 H       1  UNL1        0.0660
     37 H           9.2276   -1.2933   -1.2407 H       1  UNL1        0.0660
     38 H           9.6059   -0.4598    0.3685 H       1  UNL1        0.0660
     39 H           5.8256   -2.5744    1.4385 H       1  UNL1        0.0689
     40 H           3.4227   -2.4074    1.8219 H       1  UNL1        0.1550
     41 H           0.3872    1.4726    2.8393 H       1  UNL1        0.0838
     42 H          -1.3109    1.5283   -1.4122 H       1  UNL1        0.0639
     43 H          -2.7764    3.4859   -1.6522 H       1  UNL1        0.0625
     44 H          -3.9235    5.3239   -0.7262 H       1  UNL1        0.0624
     45 H          -4.5104    6.6076    1.2933 H       1  UNL1        0.0618
     46 H          -3.6859    5.9372    3.5527 H       1  UNL1        0.0618
     47 H          -2.2438    3.9287    3.7128 H       1  UNL1        0.0639
     48 H          -0.2230   -1.1229   -1.9201 H       1  UNL1        0.1479
     49 H          -2.6185   -0.1758   -0.3480 H       1  UNL1        0.0524
     50 H          -2.4284   -1.9063    1.0750 H       1  UNL1        0.0288
     51 H          -1.5733   -2.9488   -0.1847 H       1  UNL1        0.0288
     52 H          -4.4418   -1.9216   -0.3632 H       1  UNL1        0.0349
     53 H          -4.2329   -3.9321    1.0017 H       1  UNL1        0.0561
     54 H          -5.0322   -4.2691   -0.5541 H       1  UNL1        0.0561
     55 H          -2.4323   -5.0501    0.2500 H       1  UNL1        0.2094
     56 H          -2.4897   -3.4224   -2.2122 H       1  UNL1        0.0623
     57 H          -4.7483   -1.9316   -3.0503 H       1  UNL1        0.2099
     58 H          -1.9961   -1.2068   -3.0655 H       1  UNL1        0.0638
     59 H          -3.7303    0.3475   -1.7176 H       1  UNL1        0.2100
     60 H           3.6486    0.6895   -0.2075 H       1  UNL1        0.0651
     61 H           5.7357    1.5066   -1.2341 H       1  UNL1        0.0831
@<TRIPOS>BOND
     1     1     2    1
     2     2     3    1
     3     3     4   ar
     4     4     5   ar
     5     5     6    1
     6     6     7    1
     7     7     8   ar
     8     8     9   ar
     9     9    10   ar
    10    10    11    1
    11    11    12   ar
    12    12    13   ar
    13    13    14   ar
    14    14    15   ar
    15    15    16   ar
    16    16    17   ar
    17    17    18   ar
    18    18    19   ar
    19    19    20   ar
    20    10    21   ar
    21    21    22    1
    22    22    23    1
    23    23    24    1
    24    24    25    1
    25    25    26    1
    26    26    27    1
    27    25    28    1
    28    28    29    1
    29    28    30    1
    30    30    31    1
    31    21    32   ar
    32     5    33   ar
    33    33    34   ar
    34    34    35   ar
    35    35     3   ar
    36    32     7   ar
    37    20    11   ar
    38    30    23    1
    39    19    14   ar
    40     1    36    1
    41     1    37    1
    42     1    38    1
    43     4    39    1
    44     6    40    1
    45     9    41    1
    46    12    42    1
    47    13    43    1
    48    15    44    1
    49    16    45    1
    50    17    46    1
    51    18    47    1
    52    22    48    1
    53    23    49    1
    54    24    50    1
    55    24    51    1
    56    25    52    1
    57    26    53    1
    58    26    54    1
    59    27    55    1
    60    28    56    1
    61    29    57    1
    62    30    58    1
    63    31    59    1
    64    33    60    1
    65    34    61    1
