@<TRIPOS>MOLECULE
*****
 45 48 0 0 0
SMALL
GASTEIGER

@<TRIPOS>ATOM
      1 C          -2.6741    0.9999    0.6374 C.3     1  UNL1       -0.0153
      2 C          -1.8221    1.4015   -0.5776 C.3     1  UNL1       -0.0425
      3 C          -0.5694    1.9990    0.0912 C.3     1  UNL1       -0.0301
      4 C           0.2968    0.8506    0.4311 C.2     1  UNL1       -0.0551
      5 C          -0.4859   -0.0340    1.3340 C.3     1  UNL1       -0.0301
      6 C          -1.8005    0.5670    1.7763 C.3     1  UNL1       -0.0425
      7 C           1.5125    0.5432    0.0908 C.2     1  UNL1        0.0665
      8 C           2.3852    1.3101   -0.7715 C.2     1  UNL1        0.1698
      9 O           1.9424    2.5031   -1.3206 O.2     1  UNL1       -0.5028
     10 C           3.6117    1.0094   -1.1234 C.2     1  UNL1        0.1669
     11 O           4.3917    1.8186   -1.9713 O.2     1  UNL1       -0.5029
     12 C           4.2656   -0.2062   -0.6528 C.ar    1  UNL1        0.0309
     13 C           5.5573   -0.5207   -1.0249 C.ar    1  UNL1       -0.0503
     14 C           6.1515   -1.6766   -0.5652 C.ar    1  UNL1       -0.0610
     15 C           5.4139   -2.4797    0.2601 C.ar    1  UNL1       -0.0610
     16 C           4.1261   -2.1629    0.6290 C.ar    1  UNL1       -0.0502
     17 C           3.5024   -0.9997    0.1778 C.ar    1  UNL1        0.0331
     18 C           2.1387   -0.6754    0.5754 C.2     1  UNL1        0.1974
     19 O           1.6046   -1.5176    1.3354 O.2     1  UNL1       -0.2865
     20 C          -3.7508    0.0620    0.2909 C.ar    1  UNL1       -0.0442
     21 C          -5.0767    0.4982    0.4123 C.ar    1  UNL1       -0.0569
     22 C          -6.1888   -0.2900    0.1165 C.ar    1  UNL1       -0.0431
     23 C          -5.9772   -1.5770   -0.3223 C.ar    1  UNL1        0.0410
     24 CL         -7.3864   -2.5447   -0.6864 Cl      1  UNL1       -0.0835
     25 C          -4.6842   -2.0302   -0.4502 C.ar    1  UNL1       -0.0431
     26 C          -3.5961   -1.2352   -0.1526 C.ar    1  UNL1       -0.0569
     27 H          -3.1690    1.9444    0.9496 H       1  UNL1        0.0349
     28 H          -1.5703    0.5483   -1.2061 H       1  UNL1        0.0274
     29 H          -2.2998    2.2394   -1.1223 H       1  UNL1        0.0274
     30 H          -0.1788    2.7347   -0.5953 H       1  UNL1        0.0310
     31 H          -0.8334    2.5085    1.0457 H       1  UNL1        0.0310
     32 H           0.0888   -0.1053    2.3056 H       1  UNL1        0.0310
     33 H          -0.6140   -1.0593    0.9713 H       1  UNL1        0.0310
     34 H          -2.3323   -0.2521    2.3052 H       1  UNL1        0.0274
     35 H          -1.6338    1.3667    2.5178 H       1  UNL1        0.0274
     36 H           1.9049    2.6855   -2.3142 H       1  UNL1        0.2923
     37 H           4.6577    2.7537   -1.7051 H       1  UNL1        0.2923
     38 H           6.1009    0.1521   -1.6836 H       1  UNL1        0.0625
     39 H           7.1634   -1.8531   -0.9003 H       1  UNL1        0.0618
     40 H           5.8920   -3.3811    0.6120 H       1  UNL1        0.0618
     41 H           3.5953   -2.8521    1.2924 H       1  UNL1        0.0625
     42 H          -5.3175    1.5099    0.7556 H       1  UNL1        0.0621
     43 H          -7.1791    0.0898    0.2258 H       1  UNL1        0.0632
     44 H          -4.5586   -3.0459   -0.7974 H       1  UNL1        0.0632
     45 H          -2.6045   -1.5966   -0.2556 H       1  UNL1        0.0621
@<TRIPOS>BOND
     1     1     2    1
     2     2     3    1
     3     3     4    1
     4     4     5    1
     5     5     6    1
     6     4     7    2
     7     7     8    1
     8     8     9    1
     9     8    10    2
    10    10    11    1
    11    10    12    1
    12    12    13   ar
    13    13    14   ar
    14    14    15   ar
    15    15    16   ar
    16    16    17   ar
    17    17    18    1
    18    18    19    2
    19     1    20    1
    20    20    21   ar
    21    21    22   ar
    22    22    23   ar
    23    23    24    1
    24    23    25   ar
    25    25    26   ar
    26     6     1    1
    27    18     7    1
    28    26    20   ar
    29    17    12   ar
    30     1    27    1
    31     2    28    1
    32     2    29    1
    33     3    30    1
    34     3    31    1
    35     5    32    1
    36     5    33    1
    37     6    34    1
    38     6    35    1
    39     9    36    1
    40    11    37    1
    41    13    38    1
    42    14    39    1
    43    15    40    1
    44    16    41    1
    45    21    42    1
    46    22    43    1
    47    25    44    1
    48    26    45    1
