
     RDKit          3D

 45 48  0  0  0  0  0  0  0  0999 V2000
   -2.6741    0.9999    0.6374 C   0  0  0  0  0  0  0  0  0  0  0  0
   -1.8221    1.4015   -0.5776 C   0  0  0  0  0  0  0  0  0  0  0  0
   -0.5694    1.9990    0.0912 C   0  0  0  0  0  0  0  0  0  0  0  0
    0.2968    0.8506    0.4311 C   0  0  0  0  0  0  0  0  0  0  0  0
   -0.4859   -0.0340    1.3340 C   0  0  0  0  0  0  0  0  0  0  0  0
   -1.8005    0.5670    1.7763 C   0  0  0  0  0  0  0  0  0  0  0  0
    1.5125    0.5432    0.0908 C   0  0  0  0  0  0  0  0  0  0  0  0
    2.3852    1.3101   -0.7715 C   0  0  0  0  0  0  0  0  0  0  0  0
    1.9424    2.5031   -1.3206 O   0  0  0  0  0  0  0  0  0  0  0  0
    3.6117    1.0094   -1.1234 C   0  0  0  0  0  0  0  0  0  0  0  0
    4.3917    1.8186   -1.9713 O   0  0  0  0  0  0  0  0  0  0  0  0
    4.2656   -0.2062   -0.6528 C   0  0  0  0  0  0  0  0  0  0  0  0
    5.5573   -0.5207   -1.0249 C   0  0  0  0  0  0  0  0  0  0  0  0
    6.1515   -1.6766   -0.5652 C   0  0  0  0  0  0  0  0  0  0  0  0
    5.4139   -2.4797    0.2601 C   0  0  0  0  0  0  0  0  0  0  0  0
    4.1261   -2.1629    0.6290 C   0  0  0  0  0  0  0  0  0  0  0  0
    3.5024   -0.9997    0.1778 C   0  0  0  0  0  0  0  0  0  0  0  0
    2.1387   -0.6754    0.5754 C   0  0  0  0  0  0  0  0  0  0  0  0
    1.6046   -1.5176    1.3354 O   0  0  0  0  0  0  0  0  0  0  0  0
   -3.7508    0.0620    0.2909 C   0  0  0  0  0  0  0  0  0  0  0  0
   -5.0767    0.4982    0.4123 C   0  0  0  0  0  0  0  0  0  0  0  0
   -6.1888   -0.2900    0.1165 C   0  0  0  0  0  0  0  0  0  0  0  0
   -5.9772   -1.5770   -0.3223 C   0  0  0  0  0  0  0  0  0  0  0  0
   -7.3864   -2.5447   -0.6864 Cl  0  0  0  0  0  0  0  0  0  0  0  0
   -4.6842   -2.0302   -0.4502 C   0  0  0  0  0  0  0  0  0  0  0  0
   -3.5961   -1.2352   -0.1526 C   0  0  0  0  0  0  0  0  0  0  0  0
   -3.1690    1.9444    0.9496 H   0  0  0  0  0  0  0  0  0  0  0  0
   -1.5703    0.5483   -1.2061 H   0  0  0  0  0  0  0  0  0  0  0  0
   -2.2998    2.2394   -1.1223 H   0  0  0  0  0  0  0  0  0  0  0  0
   -0.1788    2.7347   -0.5953 H   0  0  0  0  0  0  0  0  0  0  0  0
   -0.8334    2.5085    1.0457 H   0  0  0  0  0  0  0  0  0  0  0  0
    0.0888   -0.1053    2.3056 H   0  0  0  0  0  0  0  0  0  0  0  0
   -0.6140   -1.0593    0.9713 H   0  0  0  0  0  0  0  0  0  0  0  0
   -2.3323   -0.2521    2.3052 H   0  0  0  0  0  0  0  0  0  0  0  0
   -1.6338    1.3667    2.5178 H   0  0  0  0  0  0  0  0  0  0  0  0
    1.9049    2.6855   -2.3142 H   0  0  0  0  0  0  0  0  0  0  0  0
    4.6577    2.7537   -1.7051 H   0  0  0  0  0  0  0  0  0  0  0  0
    6.1009    0.1521   -1.6836 H   0  0  0  0  0  0  0  0  0  0  0  0
    7.1634   -1.8531   -0.9003 H   0  0  0  0  0  0  0  0  0  0  0  0
    5.8920   -3.3811    0.6120 H   0  0  0  0  0  0  0  0  0  0  0  0
    3.5953   -2.8521    1.2924 H   0  0  0  0  0  0  0  0  0  0  0  0
   -5.3175    1.5099    0.7556 H   0  0  0  0  0  0  0  0  0  0  0  0
   -7.1791    0.0898    0.2258 H   0  0  0  0  0  0  0  0  0  0  0  0
   -4.5586   -3.0459   -0.7974 H   0  0  0  0  0  0  0  0  0  0  0  0
   -2.6045   -1.5966   -0.2556 H   0  0  0  0  0  0  0  0  0  0  0  0
  1  2  1  0
  2  3  1  0
  3  4  1  0
  4  5  1  0
  5  6  1  0
  4  7  2  3
  7  8  1  0
  8  9  1  0
  8 10  2  0
 10 11  1  0
 10 12  1  0
 12 13  2  0
 13 14  1  0
 14 15  2  0
 15 16  1  0
 16 17  2  0
 17 18  1  0
 18 19  2  0
  1 20  1  0
 20 21  2  0
 21 22  1  0
 22 23  2  0
 23 24  1  0
 23 25  1  0
 25 26  2  0
  6  1  1  0
 18  7  1  0
 26 20  1  0
 17 12  1  0
  1 27  1  0
  2 28  1  0
  2 29  1  0
  3 30  1  0
  3 31  1  0
  5 32  1  0
  5 33  1  0
  6 34  1  0
  6 35  1  0
  9 36  1  0
 11 37  1  0
 13 38  1  0
 14 39  1  0
 15 40  1  0
 16 41  1  0
 21 42  1  0
 22 43  1  0
 25 44  1  0
 26 45  1  0
M  END
$$$$
