@<TRIPOS>MOLECULE
*****
 52 53 0 0 0
SMALL
GASTEIGER

@<TRIPOS>ATOM
      1 C           0.6023   -3.2548   -0.2234 C.3     1  UNL1       -0.0492
      2 C           1.1356   -2.0136    0.4080 C.3     1  UNL1        0.0153
      3 N           1.6457   -1.0305   -0.5194 N.am    1  UNL1       -0.2634
      4 C           0.9499    0.0536   -1.1314 C.3     1  UNL1        0.0434
      5 C           0.8756    1.2534   -0.3001 C.ar    1  UNL1       -0.0217
      6 C           2.0225    2.0664   -0.2552 C.ar    1  UNL1       -0.0449
      7 C           2.0895    3.1702    0.5670 C.ar    1  UNL1        0.0552
      8 C           3.3280    4.0242    0.6022 C.3     1  UNL1        0.4174
      9 F           3.0368    5.3449    0.8255 F       1  UNL1       -0.1659
     10 F           3.9666    3.9563   -0.6424 F       1  UNL1       -0.1659
     11 F           4.2255    3.5740    1.5499 F       1  UNL1       -0.1659
     12 C           1.0048    3.4687    1.3512 C.ar    1  UNL1       -0.0495
     13 C          -0.1140    2.6814    1.3080 C.ar    1  UNL1       -0.0531
     14 C          -0.2111    1.5538    0.4807 C.ar    1  UNL1       -0.0097
     15 C          -1.4455    0.8114    0.3892 C.ar    1  UNL1        0.0244
     16 C          -1.9141   -0.1475    1.2200 C.ar    1  UNL1       -0.0468
     17 C          -3.1455   -0.7174    1.0226 C.ar    1  UNL1       -0.0360
     18 C          -3.6361   -1.7676    1.9330 C.3     1  UNL1        0.0699
     19 C          -3.4606   -3.1269    1.3825 C.2     1  UNL1        0.3091
     20 O          -2.9925   -3.2672    0.2251 O.2     1  UNL1       -0.2507
     21 O          -3.7939   -4.2509    2.0976 O.3     1  UNL1       -0.4804
     22 C          -3.9454   -0.3257   -0.0355 C.ar    1  UNL1       -0.0546
     23 C          -3.4827    0.6578   -0.9000 C.ar    1  UNL1       -0.0191
     24 C          -2.2546    1.2295   -0.7072 C.ar    1  UNL1        0.1278
     25 O          -1.7889    2.2126   -1.5669 O.3     1  UNL1       -0.4945
     26 C          -2.6124    2.6036   -2.6395 C.3     1  UNL1        0.0788
     27 C           3.0653   -1.1613   -0.8178 C.2     1  UNL1        0.4029
     28 O           3.6469   -0.4391   -1.6435 O.2     1  UNL1       -0.2263
     29 O           3.8587   -2.1197   -0.1796 O.3     1  UNL1       -0.4535
     30 C           5.2483   -2.2298   -0.4895 C.3     1  UNL1        0.0833
     31 H           0.3281   -3.1394   -1.2943 H       1  UNL1        0.0245
     32 H          -0.2865   -3.5629    0.4032 H       1  UNL1        0.0245
     33 H           1.3392   -4.0740   -0.1147 H       1  UNL1        0.0245
     34 H           2.0186   -2.3614    1.0544 H       1  UNL1        0.0463
     35 H           0.4797   -1.5160    1.1224 H       1  UNL1        0.0463
     36 H          -0.0494   -0.2517   -1.5368 H       1  UNL1        0.0515
     37 H           1.5137    0.3297   -2.0740 H       1  UNL1        0.0515
     38 H           2.8808    1.8628   -0.8716 H       1  UNL1        0.0626
     39 H           1.0686    4.3397    1.9972 H       1  UNL1        0.0623
     40 H          -0.9852    2.8808    1.9058 H       1  UNL1        0.0624
     41 H          -1.2933   -0.4467    2.0696 H       1  UNL1        0.0628
     42 H          -3.1163   -1.6243    2.9118 H       1  UNL1        0.0426
     43 H          -4.7260   -1.6383    2.1338 H       1  UNL1        0.0426
     44 H          -4.2357   -5.0541    1.6687 H       1  UNL1        0.2951
     45 H          -4.9143   -0.7514   -0.2229 H       1  UNL1        0.0622
     46 H          -4.1177    0.9717   -1.7410 H       1  UNL1        0.0654
     47 H          -2.2263    3.5168   -3.1506 H       1  UNL1        0.0660
     48 H          -2.7382    1.7780   -3.3952 H       1  UNL1        0.0660
     49 H          -3.6485    2.8504   -2.3315 H       1  UNL1        0.0660
     50 H           5.3934   -3.2034   -1.0258 H       1  UNL1        0.0661
     51 H           5.8803   -2.2712    0.4013 H       1  UNL1        0.0661
     52 H           5.5302   -1.4448   -1.2206 H       1  UNL1        0.0661
@<TRIPOS>BOND
     1     1     2    1
     2     2     3    1
     3     3     4    1
     4     4     5    1
     5     5     6   ar
     6     6     7   ar
     7     7     8    1
     8     8     9    1
     9     8    10    1
    10     8    11    1
    11     7    12   ar
    12    12    13   ar
    13    13    14   ar
    14    14    15    1
    15    15    16   ar
    16    16    17   ar
    17    17    18    1
    18    18    19    1
    19    19    20    2
    20    19    21    1
    21    17    22   ar
    22    22    23   ar
    23    23    24   ar
    24    24    25    1
    25    25    26    1
    26     3    27   am
    27    27    28    2
    28    27    29    1
    29    29    30    1
    30    14     5   ar
    31    24    15   ar
    32     1    31    1
    33     1    32    1
    34     1    33    1
    35     2    34    1
    36     2    35    1
    37     4    36    1
    38     4    37    1
    39     6    38    1
    40    12    39    1
    41    13    40    1
    42    16    41    1
    43    18    42    1
    44    18    43    1
    45    21    44    1
    46    22    45    1
    47    23    46    1
    48    26    47    1
    49    26    48    1
    50    26    49    1
    51    30    50    1
    52    30    51    1
    53    30    52    1
