
     RDKit          3D

 52 53  0  0  0  0  0  0  0  0999 V2000
    0.6023   -3.2548   -0.2234 C   0  0  0  0  0  0  0  0  0  0  0  0
    1.1356   -2.0136    0.4080 C   0  0  0  0  0  0  0  0  0  0  0  0
    1.6457   -1.0305   -0.5194 N   0  0  0  0  0  0  0  0  0  0  0  0
    0.9499    0.0536   -1.1314 C   0  0  0  0  0  0  0  0  0  0  0  0
    0.8756    1.2534   -0.3001 C   0  0  0  0  0  0  0  0  0  0  0  0
    2.0225    2.0664   -0.2552 C   0  0  0  0  0  0  0  0  0  0  0  0
    2.0895    3.1702    0.5670 C   0  0  0  0  0  0  0  0  0  0  0  0
    3.3280    4.0242    0.6022 C   0  0  0  0  0  0  0  0  0  0  0  0
    3.0368    5.3449    0.8255 F   0  0  0  0  0  0  0  0  0  0  0  0
    3.9666    3.9563   -0.6424 F   0  0  0  0  0  0  0  0  0  0  0  0
    4.2255    3.5740    1.5499 F   0  0  0  0  0  0  0  0  0  0  0  0
    1.0048    3.4687    1.3512 C   0  0  0  0  0  0  0  0  0  0  0  0
   -0.1140    2.6814    1.3080 C   0  0  0  0  0  0  0  0  0  0  0  0
   -0.2111    1.5538    0.4807 C   0  0  0  0  0  0  0  0  0  0  0  0
   -1.4455    0.8114    0.3892 C   0  0  0  0  0  0  0  0  0  0  0  0
   -1.9141   -0.1475    1.2200 C   0  0  0  0  0  0  0  0  0  0  0  0
   -3.1455   -0.7174    1.0226 C   0  0  0  0  0  0  0  0  0  0  0  0
   -3.6361   -1.7676    1.9330 C   0  0  0  0  0  0  0  0  0  0  0  0
   -3.4606   -3.1269    1.3825 C   0  0  0  0  0  0  0  0  0  0  0  0
   -2.9925   -3.2672    0.2251 O   0  0  0  0  0  0  0  0  0  0  0  0
   -3.7939   -4.2509    2.0976 O   0  0  0  0  0  0  0  0  0  0  0  0
   -3.9454   -0.3257   -0.0355 C   0  0  0  0  0  0  0  0  0  0  0  0
   -3.4827    0.6578   -0.9000 C   0  0  0  0  0  0  0  0  0  0  0  0
   -2.2546    1.2295   -0.7072 C   0  0  0  0  0  0  0  0  0  0  0  0
   -1.7889    2.2126   -1.5669 O   0  0  0  0  0  0  0  0  0  0  0  0
   -2.6124    2.6036   -2.6395 C   0  0  0  0  0  0  0  0  0  0  0  0
    3.0653   -1.1613   -0.8178 C   0  0  0  0  0  0  0  0  0  0  0  0
    3.6469   -0.4391   -1.6435 O   0  0  0  0  0  0  0  0  0  0  0  0
    3.8587   -2.1197   -0.1796 O   0  0  0  0  0  0  0  0  0  0  0  0
    5.2483   -2.2298   -0.4895 C   0  0  0  0  0  0  0  0  0  0  0  0
    0.3281   -3.1394   -1.2943 H   0  0  0  0  0  0  0  0  0  0  0  0
   -0.2865   -3.5629    0.4032 H   0  0  0  0  0  0  0  0  0  0  0  0
    1.3392   -4.0740   -0.1147 H   0  0  0  0  0  0  0  0  0  0  0  0
    2.0186   -2.3614    1.0544 H   0  0  0  0  0  0  0  0  0  0  0  0
    0.4797   -1.5160    1.1224 H   0  0  0  0  0  0  0  0  0  0  0  0
   -0.0494   -0.2517   -1.5368 H   0  0  0  0  0  0  0  0  0  0  0  0
    1.5137    0.3297   -2.0740 H   0  0  0  0  0  0  0  0  0  0  0  0
    2.8808    1.8628   -0.8716 H   0  0  0  0  0  0  0  0  0  0  0  0
    1.0686    4.3397    1.9972 H   0  0  0  0  0  0  0  0  0  0  0  0
   -0.9852    2.8808    1.9058 H   0  0  0  0  0  0  0  0  0  0  0  0
   -1.2933   -0.4467    2.0696 H   0  0  0  0  0  0  0  0  0  0  0  0
   -3.1163   -1.6243    2.9118 H   0  0  0  0  0  0  0  0  0  0  0  0
   -4.7260   -1.6383    2.1338 H   0  0  0  0  0  0  0  0  0  0  0  0
   -4.2357   -5.0541    1.6687 H   0  0  0  0  0  0  0  0  0  0  0  0
   -4.9143   -0.7514   -0.2229 H   0  0  0  0  0  0  0  0  0  0  0  0
   -4.1177    0.9717   -1.7410 H   0  0  0  0  0  0  0  0  0  0  0  0
   -2.2263    3.5168   -3.1506 H   0  0  0  0  0  0  0  0  0  0  0  0
   -2.7382    1.7780   -3.3952 H   0  0  0  0  0  0  0  0  0  0  0  0
   -3.6485    2.8504   -2.3315 H   0  0  0  0  0  0  0  0  0  0  0  0
    5.3934   -3.2034   -1.0258 H   0  0  0  0  0  0  0  0  0  0  0  0
    5.8803   -2.2712    0.4013 H   0  0  0  0  0  0  0  0  0  0  0  0
    5.5302   -1.4448   -1.2206 H   0  0  0  0  0  0  0  0  0  0  0  0
  1  2  1  0
  2  3  1  0
  3  4  1  0
  4  5  1  0
  5  6  2  0
  6  7  1  0
  7  8  1  0
  8  9  1  0
  8 10  1  0
  8 11  1  0
  7 12  2  0
 12 13  1  0
 13 14  2  0
 14 15  1  0
 15 16  2  0
 16 17  1  0
 17 18  1  0
 18 19  1  0
 19 20  2  0
 19 21  1  0
 17 22  2  0
 22 23  1  0
 23 24  2  0
 24 25  1  0
 25 26  1  0
  3 27  1  0
 27 28  2  0
 27 29  1  0
 29 30  1  0
 14  5  1  0
 24 15  1  0
  1 31  1  0
  1 32  1  0
  1 33  1  0
  2 34  1  0
  2 35  1  0
  4 36  1  0
  4 37  1  0
  6 38  1  0
 12 39  1  0
 13 40  1  0
 16 41  1  0
 18 42  1  0
 18 43  1  0
 21 44  1  0
 22 45  1  0
 23 46  1  0
 26 47  1  0
 26 48  1  0
 26 49  1  0
 30 50  1  0
 30 51  1  0
 30 52  1  0
M  END
$$$$
