@<TRIPOS>MOLECULE
*****
 50 54 0 0 0
SMALL
GASTEIGER

@<TRIPOS>ATOM
      1 O           3.1115   -3.0911   -0.5341 O.2     1  UNL1       -0.2699
      2 C           3.4814   -1.9311   -0.1748 C.2     1  UNL1        0.2483
      3 N           2.5741   -0.8836   -0.2798 N.am    1  UNL1       -0.2815
      4 C           1.2370   -0.9126   -0.7483 C.ar    1  UNL1        0.0343
      5 C           0.6048   -2.0324   -1.1905 C.ar    1  UNL1       -0.0404
      6 C          -0.7323   -2.0128   -1.6493 C.ar    1  UNL1       -0.0594
      7 C          -1.3772   -0.8209   -1.6346 C.ar    1  UNL1       -0.0524
      8 C          -0.8037    0.3580   -1.2008 C.ar    1  UNL1        0.0023
      9 C          -1.5107    1.6314   -1.1912 C.ar    1  UNL1        0.0763
     10 C          -0.9374    2.8032   -1.6456 C.ar    1  UNL1       -0.0174
     11 C          -1.6327    3.9921   -1.6233 C.ar    1  UNL1        0.0320
     12 N          -2.9018    4.0054   -1.1457 N.ar    1  UNL1       -0.2360
     13 C          -3.4491    2.8499   -0.7045 C.ar    1  UNL1        0.1566
     14 C          -4.7028    2.5365   -0.1665 C.ar    1  UNL1        0.0102
     15 C          -4.7369    1.1927    0.1187 C.ar    1  UNL1        0.0954
     16 C          -5.8719    0.4982    0.6889 C.ar    1  UNL1        0.0050
     17 C          -7.0187    1.2000    0.9808 C.ar    1  UNL1       -0.0344
     18 C          -8.1143    0.5649    1.5240 C.ar    1  UNL1        0.0282
     19 N          -8.0494   -0.7518    1.7661 N.ar    1  UNL1       -0.2632
     20 C          -6.9581   -1.4960    1.5039 C.ar    1  UNL1        0.0282
     21 C          -5.8626   -0.8535    0.9591 C.ar    1  UNL1       -0.0344
     22 N          -3.5296    0.7110   -0.2407 N.ar    1  UNL1       -0.1644
     23 N          -2.7771    1.6849   -0.7228 N.ar    1  UNL1       -0.2135
     24 C           0.4952    0.2704   -0.7689 C.ar    1  UNL1       -0.0313
     25 C           4.8405   -1.7877    0.3241 C.ar    1  UNL1        0.0376
     26 C           5.6865   -2.8978    0.3957 C.ar    1  UNL1       -0.0496
     27 C           6.9773   -2.7988    0.8621 C.ar    1  UNL1       -0.0605
     28 C           7.4815   -1.6001    1.2754 C.ar    1  UNL1       -0.0501
     29 C           6.6832   -0.5010    1.2181 C.ar    1  UNL1        0.0555
     30 C           7.2267    0.8162    1.6687 C.3     1  UNL1        0.4174
     31 F           8.2494    1.2123    0.8247 F       1  UNL1       -0.1659
     32 F           6.2072    1.7429    1.6213 F       1  UNL1       -0.1659
     33 F           7.7572    0.6695    2.9213 F       1  UNL1       -0.1659
     34 C           5.3655   -0.6017    0.7421 C.ar    1  UNL1       -0.0380
     35 H           2.9624    0.0723    0.0453 H       1  UNL1        0.1551
     36 H           1.1044   -2.9918   -1.2092 H       1  UNL1        0.0636
     37 H          -1.1631   -2.9487   -1.9852 H       1  UNL1        0.0618
     38 H          -2.3992   -0.7824   -1.9805 H       1  UNL1        0.0624
     39 H           0.0726    2.8127   -2.0298 H       1  UNL1        0.0654
     40 H          -1.2038    4.9301   -1.9757 H       1  UNL1        0.0831
     41 H          -5.4870    3.2677   -0.0178 H       1  UNL1        0.0677
     42 H          -7.0788    2.2835    0.7840 H       1  UNL1        0.0639
     43 H          -9.0135    1.1156    1.7528 H       1  UNL1        0.0830
     44 H          -6.9485   -2.5629    1.7163 H       1  UNL1        0.0830
     45 H          -4.9855   -1.4460    0.7472 H       1  UNL1        0.0639
     46 H           0.9598    1.1989   -0.4228 H       1  UNL1        0.0643
     47 H           5.2805   -3.8604    0.0634 H       1  UNL1        0.0625
     48 H           7.6014   -3.6753    0.9033 H       1  UNL1        0.0618
     49 H           8.5036   -1.4793    1.6531 H       1  UNL1        0.0623
     50 H           4.7819    0.2992    0.7197 H       1  UNL1        0.0631
@<TRIPOS>BOND
     1     1     2    2
     2     2     3   am
     3     3     4    1
     4     4     5   ar
     5     5     6   ar
     6     6     7   ar
     7     7     8   ar
     8     8     9    1
     9     9    10   ar
    10    10    11   ar
    11    11    12   ar
    12    12    13   ar
    13    13    14   ar
    14    14    15   ar
    15    15    16    1
    16    16    17   ar
    17    17    18   ar
    18    18    19   ar
    19    19    20   ar
    20    20    21   ar
    21    15    22   ar
    22    22    23   ar
    23     8    24   ar
    24     2    25    1
    25    25    26   ar
    26    26    27   ar
    27    27    28   ar
    28    28    29   ar
    29    29    30    1
    30    30    31    1
    31    30    32    1
    32    30    33    1
    33    29    34   ar
    34    24     4   ar
    35    34    25   ar
    36    23     9   ar
    37    23    13   ar
    38    21    16   ar
    39     3    35    1
    40     5    36    1
    41     6    37    1
    42     7    38    1
    43    10    39    1
    44    11    40    1
    45    14    41    1
    46    17    42    1
    47    18    43    1
    48    20    44    1
    49    21    45    1
    50    24    46    1
    51    26    47    1
    52    27    48    1
    53    28    49    1
    54    34    50    1
