
     RDKit          3D

 62 66  0  0  0  0  0  0  0  0999 V2000
   11.6627   -1.2083   -3.0563 C   0  0  0  0  0  0  0  0  0  0  0  0
   10.5516   -0.7387   -2.7967 C   0  0  0  0  0  0  0  0  0  0  0  0
    9.2505   -0.2052   -2.4738 C   0  0  0  0  0  0  0  0  0  0  0  0
    8.6729   -0.9288   -1.3837 O   0  0  0  0  0  0  0  0  0  0  0  0
    7.4102   -0.5498   -0.9305 C   0  0  0  0  0  0  0  0  0  0  0  0
    6.8069   -1.2286    0.1314 C   0  0  0  0  0  0  0  0  0  0  0  0
    5.5932   -0.8263    0.5291 N   0  0  0  0  0  0  0  0  0  0  0  0
    4.9439    0.1738   -0.0294 C   0  0  0  0  0  0  0  0  0  0  0  0
    3.6396    0.6583    0.3727 C   0  0  0  0  0  0  0  0  0  0  0  0
    3.0496    1.6673   -0.3006 F   0  0  0  0  0  0  0  0  0  0  0  0
    2.9937    0.1345    1.4005 C   0  0  0  0  0  0  0  0  0  0  0  0
    1.6787    0.6302    1.8004 C   0  0  0  0  0  0  0  0  0  0  0  0
    1.4259    0.8211    3.1250 C   0  0  0  0  0  0  0  0  0  0  0  0
    0.1984    1.3063    3.5284 C   0  0  0  0  0  0  0  0  0  0  0  0
   -0.7843    1.6014    2.5819 C   0  0  0  0  0  0  0  0  0  0  0  0
   -1.9556    2.0875    3.0524 F   0  0  0  0  0  0  0  0  0  0  0  0
   -0.5397    1.4103    1.2361 C   0  0  0  0  0  0  0  0  0  0  0  0
   -1.5498    1.7117    0.2099 C   0  0  1  0  0  0  0  0  0  0  0  0
   -1.6228    3.2718    0.2024 C   0  0  0  0  0  0  0  0  0  0  0  0
   -1.0324    1.4006   -1.0946 N   0  0  0  0  0  0  0  0  0  0  0  0
   -1.0908    0.2543   -1.6352 C   0  0  0  0  0  0  0  0  0  0  0  0
   -0.5772   -0.0137   -2.9016 N   0  0  0  0  0  0  0  0  0  0  0  0
   -1.8992   -1.0457   -0.6918 S   0  0  0  0  0  0  0  0  0  0  0  0
   -3.2878   -0.1511    0.1325 C   0  0  1  0  0  0  0  0  0  0  0  0
   -4.5707   -0.3540   -0.5735 C   0  0  0  0  0  0  0  0  0  0  0  0
   -4.7474    0.4220   -1.5812 O   0  0  0  0  0  0  0  0  0  0  0  0
   -5.5703   -1.2755   -0.2576 N   0  0  0  0  0  0  0  0  0  0  0  0
   -5.4789   -2.1729    0.8603 C   0  0  0  0  0  0  0  0  0  0  0  0
   -6.8708   -2.8096    1.0142 C   0  0  0  0  0  0  0  0  0  0  0  0
   -7.8810   -1.8825    0.9912 O   0  0  0  0  0  0  0  0  0  0  0  0
   -8.0101   -1.2095   -0.2177 C   0  0  0  0  0  0  0  0  0  0  0  0
   -6.7617   -1.3626   -1.0696 C   0  0  0  0  0  0  0  0  0  0  0  0
   -3.1557    0.1759    1.5453 C   0  0  0  0  0  0  0  0  0  0  0  0
   -2.9013    1.2071    0.5117 C   0  0  1  0  0  0  0  0  0  0  0  0
    0.6844    0.9286    0.8669 C   0  0  0  0  0  0  0  0  0  0  0  0
    5.5660    0.8334   -1.0846 C   0  0  0  0  0  0  0  0  0  0  0  0
    6.7749    0.4622   -1.5095 N   0  0  0  0  0  0  0  0  0  0  0  0
   12.6021   -1.5978   -3.2924 H   0  0  0  0  0  0  0  0  0  0  0  0
    9.2429    0.8691   -2.2260 H   0  0  0  0  0  0  0  0  0  0  0  0
    8.5439   -0.3005   -3.3506 H   0  0  0  0  0  0  0  0  0  0  0  0
    7.3777   -2.0369    0.5537 H   0  0  0  0  0  0  0  0  0  0  0  0
    3.4937   -0.6812    1.9251 H   0  0  0  0  0  0  0  0  0  0  0  0
    2.2095    0.5829    3.8382 H   0  0  0  0  0  0  0  0  0  0  0  0
    0.0011    1.4577    4.5840 H   0  0  0  0  0  0  0  0  0  0  0  0
   -2.5099    3.5476   -0.3658 H   0  0  0  0  0  0  0  0  0  0  0  0
   -1.6242    3.6524    1.2256 H   0  0  0  0  0  0  0  0  0  0  0  0
   -0.6945    3.6075   -0.2949 H   0  0  0  0  0  0  0  0  0  0  0  0
   -0.1085   -0.9267   -3.0834 H   0  0  0  0  0  0  0  0  0  0  0  0
   -0.6552    0.6842   -3.6680 H   0  0  0  0  0  0  0  0  0  0  0  0
   -5.2338   -1.6604    1.8320 H   0  0  0  0  0  0  0  0  0  0  0  0
   -4.7733   -3.0189    0.7184 H   0  0  0  0  0  0  0  0  0  0  0  0
   -6.9389   -3.5855    0.2268 H   0  0  0  0  0  0  0  0  0  0  0  0
   -6.9359   -3.3460    1.9849 H   0  0  0  0  0  0  0  0  0  0  0  0
   -8.2140   -0.1335   -0.0977 H   0  0  0  0  0  0  0  0  0  0  0  0
   -8.8525   -1.6189   -0.8002 H   0  0  0  0  0  0  0  0  0  0  0  0
   -6.7592   -2.4164   -1.4719 H   0  0  0  0  0  0  0  0  0  0  0  0
   -6.7792   -0.6091   -1.8481 H   0  0  0  0  0  0  0  0  0  0  0  0
   -4.0092    0.3289    2.2293 H   0  0  0  0  0  0  0  0  0  0  0  0
   -2.3175   -0.3646    2.0663 H   0  0  0  0  0  0  0  0  0  0  0  0
   -3.7312    1.9695    0.4198 H   0  0  0  0  0  0  0  0  0  0  0  0
    0.9715    0.7422   -0.1762 H   0  0  0  0  0  0  0  0  0  0  0  0
    5.0791    1.6589   -1.5768 H   0  0  0  0  0  0  0  0  0  0  0  0
  1  2  3  0
  2  3  1  0
  3  4  1  0
  4  5  1  0
  5  6  2  0
  6  7  1  0
  7  8  2  0
  8  9  1  0
  9 10  1  0
  9 11  2  0
 11 12  1  0
 12 13  2  0
 13 14  1  0
 14 15  2  0
 15 16  1  0
 15 17  1  0
 17 18  1  0
 18 19  1  6
 18 20  1  0
 20 21  2  0
 21 22  1  0
 21 23  1  0
 23 24  1  0
 24 25  1  1
 25 26  2  0
 25 27  1  0
 27 28  1  0
 28 29  1  0
 29 30  1  0
 30 31  1  0
 31 32  1  0
 24 33  1  0
 33 34  1  0
 17 35  2  0
  8 36  1  0
 36 37  2  0
 37  5  1  0
 35 12  1  0
 34 18  1  0
 34 24  1  0
 32 27  1  0
  1 38  1  0
  3 39  1  0
  3 40  1  0
  6 41  1  0
 11 42  1  0
 13 43  1  0
 14 44  1  0
 19 45  1  0
 19 46  1  0
 19 47  1  0
 22 48  1  0
 22 49  1  0
 28 50  1  0
 28 51  1  0
 29 52  1  0
 29 53  1  0
 31 54  1  0
 31 55  1  0
 32 56  1  0
 32 57  1  0
 33 58  1  0
 33 59  1  0
 34 60  1  1
 35 61  1  0
 36 62  1  0
M  END
$$$$
