@<TRIPOS>MOLECULE
*****
 62 66 0 0 0
SMALL
GASTEIGER

@<TRIPOS>ATOM
      1 C          11.6627   -1.2083   -3.0563 C.1     1  UNL1       -0.1158
      2 C          10.5516   -0.7387   -2.7967 C.1     1  UNL1       -0.0647
      3 C           9.2505   -0.2052   -2.4738 C.3     1  UNL1        0.1513
      4 O           8.6729   -0.9288   -1.3837 O.3     1  UNL1       -0.4624
      5 C           7.4102   -0.5498   -0.9305 C.ar    1  UNL1        0.2344
      6 C           6.8069   -1.2286    0.1314 C.ar    1  UNL1        0.0899
      7 N           5.5932   -0.8263    0.5291 N.ar    1  UNL1       -0.2459
      8 C           4.9439    0.1738   -0.0294 C.ar    1  UNL1        0.1172
      9 C           3.6396    0.6583    0.3727 C.2     1  UNL1        0.1507
     10 F           3.0496    1.6673   -0.3006 F       1  UNL1       -0.2032
     11 C           2.9937    0.1345    1.4005 C.2     1  UNL1       -0.0171
     12 C           1.6787    0.6302    1.8004 C.ar    1  UNL1       -0.0217
     13 C           1.4259    0.8211    3.1250 C.ar    1  UNL1       -0.0518
     14 C           0.1984    1.3063    3.5284 C.ar    1  UNL1       -0.0255
     15 C          -0.7843    1.6014    2.5819 C.ar    1  UNL1        0.1289
     16 F          -1.9556    2.0875    3.0524 F       1  UNL1       -0.2051
     17 C          -0.5397    1.4103    1.2361 C.ar    1  UNL1        0.0158
     18 C          -1.5498    1.7117    0.2099 C.3     1  UNL1        0.0935
     19 C          -1.6228    3.2718    0.2024 C.3     1  UNL1       -0.0351
     20 N          -1.0324    1.4006   -1.0946 N.2     1  UNL1       -0.2521
     21 C          -1.0908    0.2543   -1.6352 C.2     1  UNL1        0.1485
     22 N          -0.5772   -0.0137   -2.9016 N.pl3   1  UNL1       -0.3380
     23 S          -1.8992   -1.0457   -0.6918 S.3     1  UNL1       -0.0746
     24 C          -3.2878   -0.1511    0.1325 C.3     1  UNL1        0.1054
     25 C          -4.5707   -0.3540   -0.5735 C.2     1  UNL1        0.2326
     26 O          -4.7474    0.4220   -1.5812 O.2     1  UNL1       -0.2741
     27 N          -5.5703   -1.2755   -0.2576 N.am    1  UNL1       -0.2960
     28 C          -5.4789   -2.1729    0.8603 C.3     1  UNL1        0.0382
     29 C          -6.8708   -2.8096    1.0142 C.3     1  UNL1        0.0635
     30 O          -7.8810   -1.8825    0.9912 O.3     1  UNL1       -0.3767
     31 C          -8.0101   -1.2095   -0.2177 C.3     1  UNL1        0.0635
     32 C          -6.7617   -1.3626   -1.0696 C.3     1  UNL1        0.0382
     33 C          -3.1557    0.1759    1.5453 C.3     1  UNL1       -0.0220
     34 C          -2.9013    1.2071    0.5117 C.3     1  UNL1        0.0134
     35 C           0.6844    0.9286    0.8669 C.ar    1  UNL1       -0.0463
     36 C           5.5660    0.8334   -1.0846 C.ar    1  UNL1        0.0596
     37 N           6.7749    0.4622   -1.5095 N.ar    1  UNL1       -0.2178
     38 H          12.6021   -1.5978   -3.2924 H       1  UNL1        0.1229
     39 H           9.2429    0.8691   -2.2260 H       1  UNL1        0.0837
     40 H           8.5439   -0.3005   -3.3506 H       1  UNL1        0.0837
     41 H           7.3777   -2.0369    0.5537 H       1  UNL1        0.0884
     42 H           3.4937   -0.6812    1.9251 H       1  UNL1        0.0653
     43 H           2.2095    0.5829    3.8382 H       1  UNL1        0.0624
     44 H           0.0011    1.4577    4.5840 H       1  UNL1        0.0646
     45 H          -2.5099    3.5476   -0.3658 H       1  UNL1        0.0256
     46 H          -1.6242    3.6524    1.2256 H       1  UNL1        0.0256
     47 H          -0.6945    3.6075   -0.2949 H       1  UNL1        0.0256
     48 H          -0.1085   -0.9267   -3.0834 H       1  UNL1        0.1442
     49 H          -0.6552    0.6842   -3.6680 H       1  UNL1        0.1442
     50 H          -5.2338   -1.6604    1.8320 H       1  UNL1        0.0487
     51 H          -4.7733   -3.0189    0.7184 H       1  UNL1        0.0487
     52 H          -6.9389   -3.5855    0.2268 H       1  UNL1        0.0575
     53 H          -6.9359   -3.3460    1.9849 H       1  UNL1        0.0575
     54 H          -8.2140   -0.1335   -0.0977 H       1  UNL1        0.0575
     55 H          -8.8525   -1.6189   -0.8002 H       1  UNL1        0.0575
     56 H          -6.7592   -2.4164   -1.4719 H       1  UNL1        0.0487
     57 H          -6.7792   -0.6091   -1.8481 H       1  UNL1        0.0487
     58 H          -4.0092    0.3289    2.2293 H       1  UNL1        0.0287
     59 H          -2.3175   -0.3646    2.0663 H       1  UNL1        0.0287
     60 H          -3.7312    1.9695    0.4198 H       1  UNL1        0.0346
     61 H           0.9715    0.7422   -0.1762 H       1  UNL1        0.0628
     62 H           5.0791    1.6589   -1.5768 H       1  UNL1        0.0853
@<TRIPOS>BOND
     1     1     2    3
     2     2     3    1
     3     3     4    1
     4     4     5    1
     5     5     6   ar
     6     6     7   ar
     7     7     8   ar
     8     8     9    1
     9     9    10    1
    10     9    11    2
    11    11    12    1
    12    12    13   ar
    13    13    14   ar
    14    14    15   ar
    15    15    16    1
    16    15    17   ar
    17    17    18    1
    18    18    19    1
    19    18    20    1
    20    20    21    2
    21    21    22    1
    22    21    23    1
    23    23    24    1
    24    24    25    1
    25    25    26    2
    26    25    27   am
    27    27    28    1
    28    28    29    1
    29    29    30    1
    30    30    31    1
    31    31    32    1
    32    24    33    1
    33    33    34    1
    34    17    35   ar
    35     8    36   ar
    36    36    37   ar
    37    37     5   ar
    38    35    12   ar
    39    34    18    1
    40    34    24    1
    41    32    27    1
    42     1    38    1
    43     3    39    1
    44     3    40    1
    45     6    41    1
    46    11    42    1
    47    13    43    1
    48    14    44    1
    49    19    45    1
    50    19    46    1
    51    19    47    1
    52    22    48    1
    53    22    49    1
    54    28    50    1
    55    28    51    1
    56    29    52    1
    57    29    53    1
    58    31    54    1
    59    31    55    1
    60    32    56    1
    61    32    57    1
    62    33    58    1
    63    33    59    1
    64    34    60    1
    65    35    61    1
    66    36    62    1
