
     RDKit          3D

 32 34  0  0  0  0  0  0  0  0999 V2000
    5.5096    1.4305    0.1898 C   0  0  0  0  0  0  0  0  0  0  0  0
    4.9607    0.2808   -0.4013 O   0  0  0  0  0  0  0  0  0  0  0  0
    3.6051    0.0639   -0.3893 C   0  0  0  0  0  0  0  0  0  0  0  0
    2.7736    0.9820    0.2080 C   0  0  0  0  0  0  0  0  0  0  0  0
    1.4210    0.7749    0.2252 C   0  0  0  0  0  0  0  0  0  0  0  0
    0.8174   -0.3439   -0.3431 C   0  0  0  0  0  0  0  0  0  0  0  0
   -0.6325   -0.4772   -0.2750 C   0  0  0  0  0  0  0  0  0  0  0  0
   -1.3731    0.4602    0.3239 N   0  0  0  0  0  0  0  0  0  0  0  0
   -2.7137    0.4132    0.4296 C   0  0  0  0  0  0  0  0  0  0  0  0
   -3.4568    1.3946    1.0535 C   0  0  0  0  0  0  0  0  0  0  0  0
   -4.8320    1.3466    1.1621 C   0  0  0  0  0  0  0  0  0  0  0  0
   -5.4838    0.2465    0.6091 C   0  0  0  0  0  0  0  0  0  0  0  0
   -4.7414   -0.7408   -0.0180 C   0  0  0  0  0  0  0  0  0  0  0  0
   -3.3769   -0.6701   -0.1128 C   0  0  0  0  0  0  0  0  0  0  0  0
   -2.6224   -1.6374   -0.7298 C   0  0  0  0  0  0  0  0  0  0  0  0
   -3.2201   -2.6244   -1.2247 O   0  0  0  0  0  0  0  0  0  0  0  0
   -1.2689   -1.5263   -0.8009 N   0  0  0  0  0  0  0  0  0  0  0  0
    1.6380   -1.2507   -0.9331 C   0  0  0  0  0  0  0  0  0  0  0  0
    3.0146   -1.0554   -0.9592 C   0  0  0  0  0  0  0  0  0  0  0  0
    3.8706   -1.9718   -1.5579 O   0  0  0  0  0  0  0  0  0  0  0  0
    4.9909    2.3611   -0.0525 H   0  0  0  0  0  0  0  0  0  0  0  0
    5.5693    1.3488    1.3008 H   0  0  0  0  0  0  0  0  0  0  0  0
    6.5825    1.4763   -0.1571 H   0  0  0  0  0  0  0  0  0  0  0  0
    3.1468    1.8783    0.6742 H   0  0  0  0  0  0  0  0  0  0  0  0
    0.7710    1.4983    0.6953 H   0  0  0  0  0  0  0  0  0  0  0  0
   -2.9605    2.2534    1.4864 H   0  0  0  0  0  0  0  0  0  0  0  0
   -5.4265    2.1049    1.6461 H   0  0  0  0  0  0  0  0  0  0  0  0
   -6.5444    0.1891    0.6814 H   0  0  0  0  0  0  0  0  0  0  0  0
   -5.2306   -1.6012   -0.4525 H   0  0  0  0  0  0  0  0  0  0  0  0
   -0.7811   -2.2973   -1.2815 H   0  0  0  0  0  0  0  0  0  0  0  0
    1.2392   -2.1410   -1.3933 H   0  0  0  0  0  0  0  0  0  0  0  0
    4.7542   -2.1659   -1.1042 H   0  0  0  0  0  0  0  0  0  0  0  0
  1  2  1  0
  2  3  1  0
  3  4  2  0
  4  5  1  0
  5  6  2  0
  6  7  1  0
  7  8  2  0
  8  9  1  0
  9 10  2  0
 10 11  1  0
 11 12  2  0
 12 13  1  0
 13 14  2  0
 14 15  1  0
 15 16  2  0
 15 17  1  0
  6 18  1  0
 18 19  2  0
 19 20  1  0
 19  3  1  0
 17  7  1  0
 14  9  1  0
  1 21  1  0
  1 22  1  0
  1 23  1  0
  4 24  1  0
  5 25  1  0
 10 26  1  0
 11 27  1  0
 12 28  1  0
 13 29  1  0
 17 30  1  0
 18 31  1  0
 20 32  1  0
M  END
$$$$
