@<TRIPOS>MOLECULE
*****
 32 34 0 0 0
SMALL
GASTEIGER

@<TRIPOS>ATOM
      1 C           5.5096    1.4305    0.1898 C.3     1  UNL1        0.0790
      2 O           4.9607    0.2808   -0.4013 O.3     1  UNL1       -0.4915
      3 C           3.6051    0.0639   -0.3893 C.ar    1  UNL1        0.1613
      4 C           2.7736    0.9820    0.2080 C.ar    1  UNL1       -0.0156
      5 C           1.4210    0.7749    0.2252 C.ar    1  UNL1       -0.0474
      6 C           0.8174   -0.3439   -0.3431 C.ar    1  UNL1        0.0210
      7 C          -0.6325   -0.4772   -0.2750 C.ar    1  UNL1        0.1416
      8 N          -1.3731    0.4602    0.3239 N.ar    1  UNL1       -0.2290
      9 C          -2.7137    0.4132    0.4296 C.ar    1  UNL1        0.0785
     10 C          -3.4568    1.3946    1.0535 C.ar    1  UNL1       -0.0355
     11 C          -4.8320    1.3466    1.1621 C.ar    1  UNL1       -0.0597
     12 C          -5.4838    0.2465    0.6091 C.ar    1  UNL1       -0.0609
     13 C          -4.7414   -0.7408   -0.0180 C.ar    1  UNL1       -0.0474
     14 C          -3.3769   -0.6701   -0.1128 C.ar    1  UNL1        0.0647
     15 C          -2.6224   -1.6374   -0.7298 C.ar    1  UNL1        0.2595
     16 O          -3.2201   -2.6244   -1.2247 O.2     1  UNL1       -0.2671
     17 N          -1.2689   -1.5263   -0.8009 N.ar    1  UNL1       -0.3064
     18 C           1.6380   -1.2507   -0.9331 C.ar    1  UNL1       -0.0059
     19 C           3.0146   -1.0554   -0.9592 C.ar    1  UNL1        0.1591
     20 O           3.8706   -1.9718   -1.5579 O.3     1  UNL1       -0.5033
     21 H           4.9909    2.3611   -0.0525 H       1  UNL1        0.0660
     22 H           5.5693    1.3488    1.3008 H       1  UNL1        0.0660
     23 H           6.5825    1.4763   -0.1571 H       1  UNL1        0.0660
     24 H           3.1468    1.8783    0.6742 H       1  UNL1        0.0655
     25 H           0.7710    1.4983    0.6953 H       1  UNL1        0.0626
     26 H          -2.9605    2.2534    1.4864 H       1  UNL1        0.0639
     27 H          -5.4265    2.1049    1.6461 H       1  UNL1        0.0618
     28 H          -6.5444    0.1891    0.6814 H       1  UNL1        0.0618
     29 H          -5.2306   -1.6012   -0.4525 H       1  UNL1        0.0626
     30 H          -0.7811   -2.2973   -1.2815 H       1  UNL1        0.1704
     31 H           1.2392   -2.1410   -1.3933 H       1  UNL1        0.0662
     32 H           4.7542   -2.1659   -1.1042 H       1  UNL1        0.2923
@<TRIPOS>BOND
     1     1     2    1
     2     2     3    1
     3     3     4   ar
     4     4     5   ar
     5     5     6   ar
     6     6     7    1
     7     7     8   ar
     8     8     9   ar
     9     9    10   ar
    10    10    11   ar
    11    11    12   ar
    12    12    13   ar
    13    13    14   ar
    14    14    15   ar
    15    15    16    2
    16    15    17   ar
    17     6    18   ar
    18    18    19   ar
    19    19    20    1
    20    19     3   ar
    21    17     7   ar
    22    14     9   ar
    23     1    21    1
    24     1    22    1
    25     1    23    1
    26     4    24    1
    27     5    25    1
    28    10    26    1
    29    11    27    1
    30    12    28    1
    31    13    29    1
    32    17    30    1
    33    18    31    1
    34    20    32    1
