
     RDKit          3D

 36 38  0  0  0  0  0  0  0  0999 V2000
   -2.2032   -3.3629   -0.0539 C   0  0  0  0  0  0  0  0  0  0  0  0
   -0.8602   -2.9963   -0.5594 C   0  0  0  0  0  0  0  0  0  0  0  0
   -0.2750   -3.8491   -1.2849 O   0  0  0  0  0  0  0  0  0  0  0  0
   -0.2397   -1.7372   -0.2495 N   0  0  0  0  0  0  0  0  0  0  0  0
    0.9856   -1.2482   -0.6346 N   0  0  0  0  0  0  0  0  0  0  0  0
    1.3580   -0.2228    0.0270 C   0  0  0  0  0  0  0  0  0  0  0  0
    2.5919    0.5437   -0.1174 C   0  0  0  0  0  0  0  0  0  0  0  0
    3.5486    0.1859   -1.0750 C   0  0  0  0  0  0  0  0  0  0  0  0
    4.7228    0.8863   -1.2384 C   0  0  0  0  0  0  0  0  0  0  0  0
    4.9812    1.9794   -0.4405 C   0  0  0  0  0  0  0  0  0  0  0  0
    4.0506    2.3467    0.5081 C   0  0  0  0  0  0  0  0  0  0  0  0
    2.8672    1.6342    0.6668 C   0  0  0  0  0  0  0  0  0  0  0  0
    0.3045    0.0975    1.0171 C   0  0  0  0  0  0  0  0  0  0  0  0
   -0.8757   -0.7273    0.5799 C   0  0  0  0  0  0  0  0  0  0  0  0
   -1.9000    0.0309   -0.1269 C   0  0  0  0  0  0  0  0  0  0  0  0
   -3.1106    0.2780    0.4758 C   0  0  0  0  0  0  0  0  0  0  0  0
   -4.1245    0.9887   -0.1358 C   0  0  0  0  0  0  0  0  0  0  0  0
   -3.9004    1.4612   -1.3962 C   0  0  0  0  0  0  0  0  0  0  0  0
   -2.7072    1.2453   -2.0515 C   0  0  0  0  0  0  0  0  0  0  0  0
   -1.7117    0.5226   -1.3958 C   0  0  0  0  0  0  0  0  0  0  0  0
   -3.0153   -3.0328   -0.7290 H   0  0  0  0  0  0  0  0  0  0  0  0
   -2.2418   -4.4642    0.0842 H   0  0  0  0  0  0  0  0  0  0  0  0
   -2.3384   -2.8679    0.9295 H   0  0  0  0  0  0  0  0  0  0  0  0
    3.3435   -0.6717   -1.6993 H   0  0  0  0  0  0  0  0  0  0  0  0
    5.4636    0.5889   -1.9979 H   0  0  0  0  0  0  0  0  0  0  0  0
    5.9081    2.5135   -0.5861 H   0  0  0  0  0  0  0  0  0  0  0  0
    4.2458    3.2036    1.1384 H   0  0  0  0  0  0  0  0  0  0  0  0
    2.1245    1.9192    1.4167 H   0  0  0  0  0  0  0  0  0  0  0  0
    0.0853    1.1780    1.0874 H   0  0  0  0  0  0  0  0  0  0  0  0
    0.6603   -0.2908    1.9913 H   0  0  0  0  0  0  0  0  0  0  0  0
   -1.3232   -1.2038    1.5024 H   0  0  0  0  0  0  0  0  0  0  0  0
   -3.2994   -0.0913    1.4738 H   0  0  0  0  0  0  0  0  0  0  0  0
   -5.0774    1.1742    0.3587 H   0  0  0  0  0  0  0  0  0  0  0  0
   -4.7084    2.0197   -1.8661 H   0  0  0  0  0  0  0  0  0  0  0  0
   -2.5545    1.6300   -3.0495 H   0  0  0  0  0  0  0  0  0  0  0  0
   -0.7749    0.3389   -1.8790 H   0  0  0  0  0  0  0  0  0  0  0  0
  1  2  1  0
  2  3  2  0
  2  4  1  0
  4  5  1  0
  5  6  2  0
  6  7  1  0
  7  8  2  0
  8  9  1  0
  9 10  2  0
 10 11  1  0
 11 12  2  0
  6 13  1  0
 13 14  1  0
 14 15  1  0
 15 16  2  0
 16 17  1  0
 17 18  2  0
 18 19  1  0
 19 20  2  0
 14  4  1  0
 20 15  1  0
 12  7  1  0
  1 21  1  0
  1 22  1  0
  1 23  1  0
  8 24  1  0
  9 25  1  0
 10 26  1  0
 11 27  1  0
 12 28  1  0
 13 29  1  0
 13 30  1  0
 14 31  1  0
 16 32  1  0
 17 33  1  0
 18 34  1  0
 19 35  1  0
 20 36  1  0
M  END
$$$$
