@<TRIPOS>MOLECULE
*****
 36 38 0 0 0
SMALL
GASTEIGER

@<TRIPOS>ATOM
      1 C          -2.2032   -3.3629   -0.0539 C.3     1  UNL1        0.0140
      2 C          -0.8602   -2.9963   -0.5594 C.2     1  UNL1        0.2322
      3 O          -0.2750   -3.8491   -1.2849 O.2     1  UNL1       -0.2741
      4 N          -0.2397   -1.7372   -0.2495 N.am    1  UNL1       -0.1853
      5 N           0.9856   -1.2482   -0.6346 N.2     1  UNL1       -0.1809
      6 C           1.3580   -0.2228    0.0270 C.2     1  UNL1        0.0688
      7 C           2.5919    0.5437   -0.1174 C.ar    1  UNL1       -0.0022
      8 C           3.5486    0.1859   -1.0750 C.ar    1  UNL1       -0.0528
      9 C           4.7228    0.8863   -1.2384 C.ar    1  UNL1       -0.0611
     10 C           4.9812    1.9794   -0.4405 C.ar    1  UNL1       -0.0617
     11 C           4.0506    2.3467    0.5081 C.ar    1  UNL1       -0.0611
     12 C           2.8672    1.6342    0.6668 C.ar    1  UNL1       -0.0528
     13 C           0.3045    0.0975    1.0171 C.3     1  UNL1        0.0164
     14 C          -0.8757   -0.7273    0.5799 C.3     1  UNL1        0.0794
     15 C          -1.9000    0.0309   -0.1269 C.ar    1  UNL1       -0.0247
     16 C          -3.1106    0.2780    0.4758 C.ar    1  UNL1       -0.0567
     17 C          -4.1245    0.9887   -0.1358 C.ar    1  UNL1       -0.0614
     18 C          -3.9004    1.4612   -1.3962 C.ar    1  UNL1       -0.0617
     19 C          -2.7072    1.2453   -2.0515 C.ar    1  UNL1       -0.0614
     20 C          -1.7117    0.5226   -1.3958 C.ar    1  UNL1       -0.0567
     21 H          -3.0153   -3.0328   -0.7290 H       1  UNL1        0.0323
     22 H          -2.2418   -4.4642    0.0842 H       1  UNL1        0.0323
     23 H          -2.3384   -2.8679    0.9295 H       1  UNL1        0.0323
     24 H           3.3435   -0.6717   -1.6993 H       1  UNL1        0.0624
     25 H           5.4636    0.5889   -1.9979 H       1  UNL1        0.0618
     26 H           5.9081    2.5135   -0.5861 H       1  UNL1        0.0618
     27 H           4.2458    3.2036    1.1384 H       1  UNL1        0.0618
     28 H           2.1245    1.9192    1.4167 H       1  UNL1        0.0624
     29 H           0.0853    1.1780    1.0874 H       1  UNL1        0.0351
     30 H           0.6603   -0.2908    1.9913 H       1  UNL1        0.0351
     31 H          -1.3232   -1.2038    1.5024 H       1  UNL1        0.0574
     32 H          -3.2994   -0.0913    1.4738 H       1  UNL1        0.0621
     33 H          -5.0774    1.1742    0.3587 H       1  UNL1        0.0618
     34 H          -4.7084    2.0197   -1.8661 H       1  UNL1        0.0618
     35 H          -2.5545    1.6300   -3.0495 H       1  UNL1        0.0618
     36 H          -0.7749    0.3389   -1.8790 H       1  UNL1        0.0621
@<TRIPOS>BOND
     1     1     2    1
     2     2     3    2
     3     2     4   am
     4     4     5    1
     5     5     6    2
     6     6     7    1
     7     7     8   ar
     8     8     9   ar
     9     9    10   ar
    10    10    11   ar
    11    11    12   ar
    12     6    13    1
    13    13    14    1
    14    14    15    1
    15    15    16   ar
    16    16    17   ar
    17    17    18   ar
    18    18    19   ar
    19    19    20   ar
    20    14     4    1
    21    20    15   ar
    22    12     7   ar
    23     1    21    1
    24     1    22    1
    25     1    23    1
    26     8    24    1
    27     9    25    1
    28    10    26    1
    29    11    27    1
    30    12    28    1
    31    13    29    1
    32    13    30    1
    33    14    31    1
    34    16    32    1
    35    17    33    1
    36    18    34    1
    37    19    35    1
    38    20    36    1
