@<TRIPOS>MOLECULE
*****
 39 40 0 0 0
SMALL
GASTEIGER

@<TRIPOS>ATOM
      1 O          -0.5829   -1.4524    0.3526 O.2     1  UNL1       -0.2751
      2 C          -0.3445   -0.3054   -0.0747 C.2     1  UNL1        0.2214
      3 N          -1.3709    0.5296   -0.5719 N.am    1  UNL1       -0.2852
      4 C          -2.7469    0.0977   -0.6106 C.ar    1  UNL1        0.0352
      5 C          -3.2482   -0.5554   -1.7228 C.ar    1  UNL1       -0.0404
      6 C          -4.5745   -0.9364   -1.6821 C.ar    1  UNL1       -0.0582
      7 C          -5.3445   -0.6574   -0.5507 C.ar    1  UNL1       -0.0377
      8 C          -4.8209   -0.0133    0.5265 C.ar    1  UNL1        0.0784
      9 S          -5.7937    0.3331    1.9426 S.3     1  UNL1       -0.0511
     10 O          -4.8943    0.3513    3.1627 O.2     1  UNL1       -0.1803
     11 O          -6.8136   -0.7371    2.1612 O.2     1  UNL1       -0.1803
     12 O          -6.5079    1.8253    1.7482 O.co2   1  UNL1       -0.7202
     13 C          -3.5056    0.3697    0.4976 C.ar    1  UNL1       -0.0166
     14 C           1.0526    0.1899   -0.0584 C.3     1  UNL1        0.0485
     15 C           1.4547    0.5072   -1.4844 C.3     1  UNL1        0.0021
     16 S           1.3532   -0.9172   -2.5803 S.3     1  UNL1       -0.1775
     17 C           1.9865   -0.7667    0.6318 C.3     1  UNL1       -0.0158
     18 C           3.3540   -0.2021    0.6218 C.ar    1  UNL1       -0.0466
     19 C           3.8029    0.6439    1.6141 C.ar    1  UNL1       -0.0586
     20 C           5.0815    1.1658    1.6126 C.ar    1  UNL1       -0.0615
     21 C           5.9285    0.8249    0.5828 C.ar    1  UNL1       -0.0617
     22 C           5.5230   -0.0177   -0.4309 C.ar    1  UNL1       -0.0615
     23 C           4.2183   -0.5269   -0.3941 C.ar    1  UNL1       -0.0586
     24 H          -1.1026    1.4780   -0.9142 H       1  UNL1        0.1548
     25 H          -2.6029   -0.7466   -2.5766 H       1  UNL1        0.0636
     26 H          -4.9848   -1.4463   -2.5377 H       1  UNL1        0.0619
     27 H          -6.3687   -0.9662   -0.5516 H       1  UNL1        0.0636
     28 H          -3.1130    0.8809    1.3681 H       1  UNL1        0.0655
     29 H           1.0717    1.1942    0.4691 H       1  UNL1        0.0405
     30 H           0.8438    1.3512   -1.8309 H       1  UNL1        0.0381
     31 H           2.5223    0.8645   -1.5181 H       1  UNL1        0.0381
     32 H           1.2401   -2.1246   -1.9042 H       1  UNL1        0.1017
     33 H           1.9531   -1.7673    0.1272 H       1  UNL1        0.0321
     34 H           1.7088   -0.9285    1.6824 H       1  UNL1        0.0321
     35 H           3.1178    0.8935    2.4080 H       1  UNL1        0.0620
     36 H           5.4542    1.8321    2.3825 H       1  UNL1        0.0618
     37 H           6.9400    1.2015    0.5270 H       1  UNL1        0.0618
     38 H           6.1629   -0.2905   -1.2318 H       1  UNL1        0.0618
     39 H           3.9504   -1.1764   -1.1929 H       1  UNL1        0.0620
@<TRIPOS>UNITY_ATOM_ATTR
12 1
charge -1
@<TRIPOS>BOND
     1     1     2    2
     2     2     3   am
     3     3     4    1
     4     4     5   ar
     5     5     6   ar
     6     6     7   ar
     7     7     8   ar
     8     8     9    1
     9     9    10    2
    10     9    11    2
    11     9    12    1
    12     8    13   ar
    13     2    14    1
    14    14    15    1
    15    15    16    1
    16    14    17    1
    17    17    18    1
    18    18    19   ar
    19    19    20   ar
    20    20    21   ar
    21    21    22   ar
    22    22    23   ar
    23    13     4   ar
    24    23    18   ar
    25     3    24    1
    26     5    25    1
    27     6    26    1
    28     7    27    1
    29    13    28    1
    30    14    29    1
    31    15    30    1
    32    15    31    1
    33    16    32    1
    34    17    33    1
    35    17    34    1
    36    19    35    1
    37    20    36    1
    38    21    37    1
    39    22    38    1
    40    23    39    1
