@<TRIPOS>MOLECULE
*****
 33 36 0 0 0
SMALL
GASTEIGER

@<TRIPOS>ATOM
      1 O           0.6003    3.4292   -1.8696 O.2     1  UNL1       -0.2870
      2 C           0.3543    2.3442   -1.2796 C.ar    1  UNL1        0.1931
      3 C          -0.9433    1.9134   -1.0781 C.ar    1  UNL1        0.0287
      4 C          -1.2291    0.7278   -0.4339 C.ar    1  UNL1        0.1392
      5 O          -0.2654   -0.0403    0.0149 O.2     1  UNL1       -0.4540
      6 C           0.9867    0.3686   -0.1758 C.ar    1  UNL1        0.1469
      7 C           1.3674    1.5349   -0.8068 C.ar    1  UNL1        0.0646
      8 C           2.6840    1.8702   -0.9553 C.ar    1  UNL1       -0.0468
      9 C           3.6958    1.0485   -0.4757 C.ar    1  UNL1       -0.0531
     10 C           3.3177   -0.1164    0.1547 C.ar    1  UNL1       -0.0143
     11 C           4.3787   -0.8833    0.6054 C.ar    1  UNL1       -0.0539
     12 C           4.1029   -2.0715    1.2514 C.ar    1  UNL1       -0.0612
     13 C           2.7830   -2.4352    1.4154 C.ar    1  UNL1       -0.0611
     14 C           1.7332   -1.6579    0.9592 C.ar    1  UNL1       -0.0505
     15 C           1.9977   -0.4665    0.3111 C.ar    1  UNL1        0.0251
     16 C          -2.5902    0.2596   -0.2135 C.ar    1  UNL1        0.0174
     17 C          -2.7805   -0.9369    0.4393 C.ar    1  UNL1       -0.0511
     18 C          -4.0617   -1.4443    0.6834 C.ar    1  UNL1       -0.0611
     19 C          -5.1798   -0.7659    0.2797 C.ar    1  UNL1       -0.0617
     20 C          -5.0019    0.4387   -0.3779 C.ar    1  UNL1       -0.0611
     21 C          -3.7320    0.9229   -0.6095 C.ar    1  UNL1       -0.0511
     22 H          -1.7225    2.5390   -1.4435 H       1  UNL1        0.0693
     23 H           2.9108    2.8108   -1.4664 H       1  UNL1        0.0626
     24 H           4.7228    1.3537   -0.6155 H       1  UNL1        0.0624
     25 H           5.4162   -0.6048    0.4806 H       1  UNL1        0.0624
     26 H           4.9379   -2.6750    1.6061 H       1  UNL1        0.0618
     27 H           2.6387   -3.3756    1.9286 H       1  UNL1        0.0618
     28 H           0.7190   -1.9726    1.1045 H       1  UNL1        0.0625
     29 H          -1.9633   -1.5418    0.7943 H       1  UNL1        0.0625
     30 H          -4.2193   -2.4005    1.2049 H       1  UNL1        0.0618
     31 H          -6.2058   -1.0686    0.4182 H       1  UNL1        0.0618
     32 H          -5.8357    1.0340   -0.7281 H       1  UNL1        0.0618
     33 H          -3.6169    1.8615   -1.1225 H       1  UNL1        0.0625
@<TRIPOS>BOND
     1     1     2    2
     2     2     3   ar
     3     3     4   ar
     4     4     5   ar
     5     5     6   ar
     6     6     7   ar
     7     7     8   ar
     8     8     9   ar
     9     9    10   ar
    10    10    11   ar
    11    11    12   ar
    12    12    13   ar
    13    13    14   ar
    14    14    15   ar
    15     4    16    1
    16    16    17   ar
    17    17    18   ar
    18    18    19   ar
    19    19    20   ar
    20    20    21   ar
    21     7     2   ar
    22    15    10   ar
    23    21    16   ar
    24    15     6   ar
    25     3    22    1
    26     8    23    1
    27     9    24    1
    28    11    25    1
    29    12    26    1
    30    13    27    1
    31    14    28    1
    32    17    29    1
    33    18    30    1
    34    19    31    1
    35    20    32    1
    36    21    33    1
