@<TRIPOS>MOLECULE
*****
 104 110 0 0 0
SMALL
GASTEIGER

@<TRIPOS>ATOM
      1 C           7.6382    4.5432   -0.6205 C.3     1  UNL1        0.0788
      2 O           6.3245    4.0369   -0.4896 O.3     1  UNL1       -0.4950
      3 C           6.1494    2.7597    0.0096 C.ar    1  UNL1        0.1226
      4 C           4.8961    2.2251    0.1562 C.ar    1  UNL1        0.0013
      5 C           4.6631    0.9385    0.6567 C.ar    1  UNL1        0.0366
      6 N           3.3265    0.4770    0.7644 N.pl3   1  UNL1       -0.2991
      7 C           2.9164   -0.4697    1.7377 C.ar    1  UNL1        0.1297
      8 C           1.5804   -0.8477    1.7339 C.ar    1  UNL1        0.0405
      9 C           1.0622   -1.7287    2.6465 C.ar    1  UNL1        0.2252
     10 O          -0.2558   -2.1101    2.6513 O.3     1  UNL1       -0.4373
     11 C          -1.1926   -1.6026    1.7838 C.ar    1  UNL1        0.1381
     12 C          -1.7899   -2.4221    0.8178 C.ar    1  UNL1       -0.0169
     13 C          -2.7282   -1.9365   -0.0610 C.ar    1  UNL1       -0.0363
     14 C          -3.1185   -0.6196   -0.0253 C.ar    1  UNL1        0.0427
     15 N          -4.0850   -0.0752   -0.8948 N.am    1  UNL1       -0.2686
     16 C          -5.4723   -0.0003   -0.5100 C.2     1  UNL1        0.3092
     17 O          -5.8627   -0.4123    0.6140 O.2     1  UNL1       -0.2521
     18 N          -6.4542    0.5422   -1.3780 N.am    1  UNL1       -0.2538
     19 C          -7.8141    0.6264   -0.9443 C.ar    1  UNL1        0.1299
     20 C          -8.2430    1.7891   -0.2880 C.ar    1  UNL1        0.0021
     21 C          -9.5744    1.5804    0.0003 C.ar    1  UNL1        0.0706
     22 C         -10.4880    2.5327    0.7012 C.3     1  UNL1        0.0063
     23 C         -11.1118    3.4214   -0.3509 C.3     1  UNL1       -0.0546
     24 C          -9.7314    3.3325    1.7346 C.3     1  UNL1       -0.0546
     25 C         -11.5834    1.7277    1.3437 C.3     1  UNL1       -0.0546
     26 N          -9.8857    0.3632   -0.4675 N.ar    1  UNL1       -0.1691
     27 N          -8.8309   -0.2180   -1.0378 N.ar    1  UNL1       -0.2181
     28 C          -8.7688   -1.5043   -1.6438 C.ar    1  UNL1        0.0674
     29 C          -8.5179   -1.6312   -2.9914 C.ar    1  UNL1       -0.0359
     30 C          -8.4688   -2.9008   -3.5584 C.ar    1  UNL1       -0.0568
     31 C          -8.6661   -4.0382   -2.8002 C.ar    1  UNL1       -0.0503
     32 C          -8.6145   -5.4037   -3.4093 C.3     1  UNL1       -0.0397
     33 C          -8.9170   -3.9114   -1.4522 C.ar    1  UNL1       -0.0568
     34 C          -8.9672   -2.6364   -0.8785 C.ar    1  UNL1       -0.0359
     35 C          -2.5504    0.2297    0.9206 C.ar    1  UNL1        0.0069
     36 C          -2.9550    1.5609    0.9797 C.ar    1  UNL1       -0.0521
     37 C          -2.3949    2.3533    1.9337 C.ar    1  UNL1       -0.0611
     38 C          -1.4596    1.8600    2.8142 C.ar    1  UNL1       -0.0611
     39 C          -1.0541    0.5492    2.7638 C.ar    1  UNL1       -0.0505
     40 C          -1.6053   -0.2797    1.8008 C.ar    1  UNL1        0.0262
     41 N           1.9513   -2.2133    3.5620 N.ar    1  UNL1       -0.2010
     42 C           3.2469   -1.8537    3.5726 C.ar    1  UNL1        0.1219
     43 N           3.7168   -0.9872    2.6628 N.ar    1  UNL1       -0.2204
     44 C           5.7633    0.2238    0.9989 C.ar    1  UNL1       -0.0282
     45 C           7.0765    0.7037    0.8775 C.ar    1  UNL1        0.0419
     46 C           8.1498   -0.1765    1.2702 C.2     1  UNL1        0.2443
     47 O           7.9187   -1.3656    1.5928 O.2     1  UNL1       -0.2702
     48 N           9.5128    0.2729    1.3070 N.am    1  UNL1       -0.3101
     49 C          10.5920   -0.5878    1.6896 C.3     1  UNL1        0.0247
     50 C          10.8091   -1.7879    0.8480 C.3     1  UNL1        0.0146
     51 N          11.1423   -1.4774   -0.4874 N.3     1  UNL1       -0.2965
     52 C          10.1877   -0.9061   -1.3458 C.3     1  UNL1        0.0225
     53 C          10.7983   -0.7398   -2.7329 C.3     1  UNL1        0.0604
     54 O          11.8757   -1.5737   -2.9083 O.3     1  UNL1       -0.3772
     55 C          12.9572   -1.2161   -2.0879 C.3     1  UNL1        0.0604
     56 C          12.4601   -0.9173   -0.6817 C.3     1  UNL1        0.0225
     57 C           7.2447    1.9744    0.3803 C.ar    1  UNL1       -0.0077
     58 H           8.1555    4.5733    0.3787 H       1  UNL1        0.0660
     59 H           7.6172    5.5745   -1.0659 H       1  UNL1        0.0660
     60 H           8.2299    3.8367   -1.2362 H       1  UNL1        0.0660
     61 H           4.0246    2.8251   -0.1293 H       1  UNL1        0.0673
     62 H           2.6319    0.8805    0.0686 H       1  UNL1        0.1536
     63 H           0.9041   -0.4429    0.9722 H       1  UNL1        0.0706
     64 H          -1.4906   -3.4777    0.7750 H       1  UNL1        0.0655
     65 H          -3.1581   -2.6116   -0.7864 H       1  UNL1        0.0637
     66 H          -3.7785    0.2734   -1.8261 H       1  UNL1        0.1564
     67 H          -6.1976    0.8979   -2.3276 H       1  UNL1        0.1578
     68 H          -7.6797    2.6778   -0.0431 H       1  UNL1        0.0671
     69 H         -11.9044    2.8516   -0.8375 H       1  UNL1        0.0239
     70 H         -10.2781    3.6652   -1.0688 H       1  UNL1        0.0239
     71 H         -11.4444    4.3818    0.0772 H       1  UNL1        0.0239
     72 H         -10.4286    3.9688    2.2884 H       1  UNL1        0.0239
     73 H          -8.9976    3.9747    1.2052 H       1  UNL1        0.0239
     74 H          -9.1918    2.5927    2.3812 H       1  UNL1        0.0239
     75 H         -11.1932    1.3535    2.3286 H       1  UNL1        0.0239
     76 H         -11.7591    0.8422    0.7149 H       1  UNL1        0.0239
     77 H         -12.5036    2.3246    1.5140 H       1  UNL1        0.0239
     78 H          -8.3675   -0.7236   -3.5570 H       1  UNL1        0.0639
     79 H          -8.2689   -2.9921   -4.6308 H       1  UNL1        0.0621
     80 H          -9.6459   -5.7777   -3.6198 H       1  UNL1        0.0278
     81 H          -8.1827   -6.0920   -2.6474 H       1  UNL1        0.0278
     82 H          -8.0540   -5.4368   -4.3428 H       1  UNL1        0.0278
     83 H          -9.0705   -4.8072   -0.8679 H       1  UNL1        0.0621
     84 H          -9.1654   -2.5675    0.1819 H       1  UNL1        0.0639
     85 H          -3.6916    1.8866    0.2625 H       1  UNL1        0.0624
     86 H          -2.7046    3.3876    1.9819 H       1  UNL1        0.0618
     87 H          -1.0115    2.5069    3.5838 H       1  UNL1        0.0618
     88 H          -0.3407    0.1302    3.4543 H       1  UNL1        0.0625
     89 H           3.9515   -2.2485    4.3084 H       1  UNL1        0.1049
     90 H           5.6296   -0.7870    1.3846 H       1  UNL1        0.0644
     91 H           9.6694    1.2718    1.0436 H       1  UNL1        0.1490
     92 H          10.5331   -0.8661    2.7858 H       1  UNL1        0.0475
     93 H          11.5374    0.0309    1.6524 H       1  UNL1        0.0475
     94 H          11.6636   -2.3570    1.3202 H       1  UNL1        0.0442
     95 H           9.8936   -2.4568    0.8965 H       1  UNL1        0.0442
     96 H           9.8616    0.0825   -0.9977 H       1  UNL1        0.0449
     97 H           9.2954   -1.5732   -1.3991 H       1  UNL1        0.0449
     98 H          11.1257    0.3401   -2.7995 H       1  UNL1        0.0572
     99 H          10.0412   -0.8505   -3.5359 H       1  UNL1        0.0572
    100 H          13.4012   -0.3043   -2.5027 H       1  UNL1        0.0572
    101 H          13.7022   -2.0167   -2.0234 H       1  UNL1        0.0572
    102 H          13.1501   -1.4011    0.0309 H       1  UNL1        0.0449
    103 H          12.4555    0.1959   -0.5561 H       1  UNL1        0.0449
    104 H           8.2357    2.3904    0.2652 H       1  UNL1        0.0662
@<TRIPOS>BOND
     1     1     2    1
     2     2     3    1
     3     3     4   ar
     4     4     5   ar
     5     5     6    1
     6     6     7    1
     7     7     8   ar
     8     8     9   ar
     9     9    10    1
    10    10    11    1
    11    11    12   ar
    12    12    13   ar
    13    13    14   ar
    14    14    15    1
    15    15    16   am
    16    16    17    2
    17    16    18   am
    18    18    19    1
    19    19    20   ar
    20    20    21   ar
    21    21    22    1
    22    22    23    1
    23    22    24    1
    24    22    25    1
    25    21    26   ar
    26    26    27   ar
    27    27    28    1
    28    28    29   ar
    29    29    30   ar
    30    30    31   ar
    31    31    32    1
    32    31    33   ar
    33    33    34   ar
    34    14    35   ar
    35    35    36   ar
    36    36    37   ar
    37    37    38   ar
    38    38    39   ar
    39    39    40   ar
    40     9    41   ar
    41    41    42   ar
    42    42    43   ar
    43     5    44   ar
    44    44    45   ar
    45    45    46    1
    46    46    47    2
    47    46    48   am
    48    48    49    1
    49    49    50    1
    50    50    51    1
    51    51    52    1
    52    52    53    1
    53    53    54    1
    54    54    55    1
    55    55    56    1
    56    45    57   ar
    57    57     3   ar
    58    43     7   ar
    59    56    51    1
    60    40    11   ar
    61    27    19   ar
    62    34    28   ar
    63    40    35   ar
    64     1    58    1
    65     1    59    1
    66     1    60    1
    67     4    61    1
    68     6    62    1
    69     8    63    1
    70    12    64    1
    71    13    65    1
    72    15    66    1
    73    18    67    1
    74    20    68    1
    75    23    69    1
    76    23    70    1
    77    23    71    1
    78    24    72    1
    79    24    73    1
    80    24    74    1
    81    25    75    1
    82    25    76    1
    83    25    77    1
    84    29    78    1
    85    30    79    1
    86    32    80    1
    87    32    81    1
    88    32    82    1
    89    33    83    1
    90    34    84    1
    91    36    85    1
    92    37    86    1
    93    38    87    1
    94    39    88    1
    95    42    89    1
    96    44    90    1
    97    48    91    1
    98    49    92    1
    99    49    93    1
   100    50    94    1
   101    50    95    1
   102    52    96    1
   103    52    97    1
   104    53    98    1
   105    53    99    1
   106    55   100    1
   107    55   101    1
   108    56   102    1
   109    56   103    1
   110    57   104    1
