@<TRIPOS>MOLECULE
*****
 59 62 0 0 0
SMALL
GASTEIGER

@<TRIPOS>ATOM
      1 C           5.3829   -1.1231    0.8495 C.3     1  UNL1        0.1013
      2 C           5.1662   -0.5595    2.2142 C.3     1  UNL1       -0.0378
      3 N           4.2437   -1.0146   -0.0313 N.am    1  UNL1       -0.2894
      4 C           3.5624   -2.1004   -0.7291 C.3     1  UNL1        0.0167
      5 C           2.7718   -1.3712   -1.8280 C.3     1  UNL1       -0.0193
      6 C           2.4037   -0.0503   -1.2454 C.3     1  UNL1        0.0706
      7 C           2.4252    1.0784   -2.2769 C.3     1  UNL1       -0.0471
      8 C           3.6006    0.2235   -0.3587 C.2     1  UNL1        0.2265
      9 O           3.9972    1.3577    0.0475 O.2     1  UNL1       -0.2746
     10 C           1.1576   -0.0079   -0.4782 C.ar    1  UNL1       -0.0324
     11 C           0.9754    1.0469    0.4221 C.ar    1  UNL1       -0.0541
     12 C          -0.2011    1.1053    1.1619 C.ar    1  UNL1       -0.0196
     13 C          -1.2227    0.1527    1.0500 C.ar    1  UNL1        0.1210
     14 O          -2.2405    0.4563    1.8812 O.3     1  UNL1       -0.4874
     15 C          -3.4437   -0.1849    2.1024 C.3     1  UNL1        0.1153
     16 C          -4.3342   -0.2874    0.9230 C.ar    1  UNL1        0.0004
     17 C          -4.6660   -1.3455    0.1038 C.ar    1  UNL1       -0.0337
     18 C          -5.5446   -1.2022   -0.9463 C.ar    1  UNL1        0.0393
     19 C          -5.7325   -2.5010   -1.6770 C.3     1  UNL1       -0.0223
     20 N          -6.1180   -0.0164   -1.2166 N.ar    1  UNL1       -0.2519
     21 C          -5.8214    1.0367   -0.4435 C.ar    1  UNL1        0.0716
     22 C          -6.4625    2.2022   -0.8071 C.ar    1  UNL1       -0.0357
     23 C          -6.2251    3.3472   -0.0743 C.ar    1  UNL1       -0.0597
     24 C          -5.3570    3.2916    0.9956 C.ar    1  UNL1       -0.0611
     25 C          -4.7301    2.1128    1.3363 C.ar    1  UNL1       -0.0522
     26 C          -4.9359    0.9443    0.6345 C.ar    1  UNL1        0.0068
     27 C          -1.0129   -0.8721    0.1560 C.ar    1  UNL1       -0.0196
     28 C           0.1481   -0.9349   -0.5779 C.ar    1  UNL1       -0.0541
     29 C           6.5807   -0.4406    0.2550 C.2     1  UNL1        0.2557
     30 O           7.5487   -0.5154    1.0762 O.2     1  UNL1       -0.2717
     31 N           6.7453    0.2137   -0.9930 N.am    1  UNL1       -0.1960
     32 O           7.9533    0.7452   -1.2649 O.3     1  UNL1       -0.2951
     33 H           5.6523   -2.2111    0.9175 H       1  UNL1        0.0594
     34 H           4.3409   -1.0333    2.7677 H       1  UNL1        0.0252
     35 H           6.0916   -0.8188    2.8056 H       1  UNL1        0.0252
     36 H           5.1470    0.5460    2.2096 H       1  UNL1        0.0252
     37 H           2.8932   -2.6156   -0.0128 H       1  UNL1        0.0465
     38 H           4.2641   -2.8205   -1.1472 H       1  UNL1        0.0465
     39 H           3.5595   -1.1788   -2.6177 H       1  UNL1        0.0293
     40 H           1.9417   -1.9533   -2.2068 H       1  UNL1        0.0293
     41 H           2.6543    2.0100   -1.7051 H       1  UNL1        0.0243
     42 H           3.2073    0.9143   -3.0505 H       1  UNL1        0.0243
     43 H           1.4193    1.1655   -2.7580 H       1  UNL1        0.0243
     44 H           1.7634    1.7862    0.5104 H       1  UNL1        0.0622
     45 H          -0.2124    1.9850    1.8301 H       1  UNL1        0.0654
     46 H          -3.1950   -1.2470    2.4136 H       1  UNL1        0.0748
     47 H          -3.9883    0.2140    2.9930 H       1  UNL1        0.0748
     48 H          -4.1467   -2.2448    0.4148 H       1  UNL1        0.0639
     49 H          -6.1082   -3.2719   -0.9558 H       1  UNL1        0.0292
     50 H          -6.4658   -2.3763   -2.4745 H       1  UNL1        0.0292
     51 H          -4.7501   -2.8340   -2.0784 H       1  UNL1        0.0292
     52 H          -7.1407    2.2750   -1.6322 H       1  UNL1        0.0639
     53 H          -6.7217    4.2660   -0.3498 H       1  UNL1        0.0618
     54 H          -5.1559    4.1751    1.5836 H       1  UNL1        0.0618
     55 H          -4.0513    2.0757    2.1744 H       1  UNL1        0.0624
     56 H          -1.8271   -1.5736    0.1170 H       1  UNL1        0.0654
     57 H           0.2058   -1.7734   -1.2432 H       1  UNL1        0.0622
     58 H           5.8876    0.1952   -1.5508 H       1  UNL1        0.1823
     59 H           8.1206    1.5568   -0.7196 H       1  UNL1        0.2414
@<TRIPOS>BOND
     1     1     2    1
     2     1     3    1
     3     3     4    1
     4     4     5    1
     5     5     6    1
     6     6     7    1
     7     6     8    1
     8     8     9    2
     9     6    10    1
    10    10    11   ar
    11    11    12   ar
    12    12    13   ar
    13    13    14    1
    14    14    15    1
    15    15    16    1
    16    16    17   ar
    17    17    18   ar
    18    18    19    1
    19    18    20   ar
    20    20    21   ar
    21    21    22   ar
    22    22    23   ar
    23    23    24   ar
    24    24    25   ar
    25    25    26   ar
    26    13    27   ar
    27    27    28   ar
    28     1    29    1
    29    29    30    2
    30    29    31   am
    31    31    32    1
    32     8     3   am
    33    28    10   ar
    34    26    16   ar
    35    26    21   ar
    36     1    33    1
    37     2    34    1
    38     2    35    1
    39     2    36    1
    40     4    37    1
    41     4    38    1
    42     5    39    1
    43     5    40    1
    44     7    41    1
    45     7    42    1
    46     7    43    1
    47    11    44    1
    48    12    45    1
    49    15    46    1
    50    15    47    1
    51    17    48    1
    52    19    49    1
    53    19    50    1
    54    19    51    1
    55    22    52    1
    56    23    53    1
    57    24    54    1
    58    25    55    1
    59    27    56    1
    60    28    57    1
    61    31    58    1
    62    32    59    1
