
     RDKit          3D

 59 62  0  0  0  0  0  0  0  0999 V2000
    5.3829   -1.1231    0.8495 C   0  0  1  0  0  0  0  0  0  0  0  0
    5.1662   -0.5595    2.2142 C   0  0  0  0  0  0  0  0  0  0  0  0
    4.2437   -1.0146   -0.0313 N   0  0  0  0  0  0  0  0  0  0  0  0
    3.5624   -2.1004   -0.7291 C   0  0  0  0  0  0  0  0  0  0  0  0
    2.7718   -1.3712   -1.8280 C   0  0  0  0  0  0  0  0  0  0  0  0
    2.4037   -0.0503   -1.2454 C   0  0  2  0  0  0  0  0  0  0  0  0
    2.4252    1.0784   -2.2769 C   0  0  0  0  0  0  0  0  0  0  0  0
    3.6006    0.2235   -0.3587 C   0  0  0  0  0  0  0  0  0  0  0  0
    3.9972    1.3577    0.0475 O   0  0  0  0  0  0  0  0  0  0  0  0
    1.1576   -0.0079   -0.4782 C   0  0  0  0  0  0  0  0  0  0  0  0
    0.9754    1.0469    0.4221 C   0  0  0  0  0  0  0  0  0  0  0  0
   -0.2011    1.1053    1.1619 C   0  0  0  0  0  0  0  0  0  0  0  0
   -1.2227    0.1527    1.0500 C   0  0  0  0  0  0  0  0  0  0  0  0
   -2.2405    0.4563    1.8812 O   0  0  0  0  0  0  0  0  0  0  0  0
   -3.4437   -0.1849    2.1024 C   0  0  0  0  0  0  0  0  0  0  0  0
   -4.3342   -0.2874    0.9230 C   0  0  0  0  0  0  0  0  0  0  0  0
   -4.6660   -1.3455    0.1038 C   0  0  0  0  0  0  0  0  0  0  0  0
   -5.5446   -1.2022   -0.9463 C   0  0  0  0  0  0  0  0  0  0  0  0
   -5.7325   -2.5010   -1.6770 C   0  0  0  0  0  0  0  0  0  0  0  0
   -6.1180   -0.0164   -1.2166 N   0  0  0  0  0  0  0  0  0  0  0  0
   -5.8214    1.0367   -0.4435 C   0  0  0  0  0  0  0  0  0  0  0  0
   -6.4625    2.2022   -0.8071 C   0  0  0  0  0  0  0  0  0  0  0  0
   -6.2251    3.3472   -0.0743 C   0  0  0  0  0  0  0  0  0  0  0  0
   -5.3570    3.2916    0.9956 C   0  0  0  0  0  0  0  0  0  0  0  0
   -4.7301    2.1128    1.3363 C   0  0  0  0  0  0  0  0  0  0  0  0
   -4.9359    0.9443    0.6345 C   0  0  0  0  0  0  0  0  0  0  0  0
   -1.0129   -0.8721    0.1560 C   0  0  0  0  0  0  0  0  0  0  0  0
    0.1481   -0.9349   -0.5779 C   0  0  0  0  0  0  0  0  0  0  0  0
    6.5807   -0.4406    0.2550 C   0  0  0  0  0  0  0  0  0  0  0  0
    7.5487   -0.5154    1.0762 O   0  0  0  0  0  0  0  0  0  0  0  0
    6.7453    0.2137   -0.9930 N   0  0  0  0  0  0  0  0  0  0  0  0
    7.9533    0.7452   -1.2649 O   0  0  0  0  0  0  0  0  0  0  0  0
    5.6523   -2.2111    0.9175 H   0  0  0  0  0  0  0  0  0  0  0  0
    4.3409   -1.0333    2.7677 H   0  0  0  0  0  0  0  0  0  0  0  0
    6.0916   -0.8188    2.8056 H   0  0  0  0  0  0  0  0  0  0  0  0
    5.1470    0.5460    2.2096 H   0  0  0  0  0  0  0  0  0  0  0  0
    2.8932   -2.6156   -0.0128 H   0  0  0  0  0  0  0  0  0  0  0  0
    4.2641   -2.8205   -1.1472 H   0  0  0  0  0  0  0  0  0  0  0  0
    3.5595   -1.1788   -2.6177 H   0  0  0  0  0  0  0  0  0  0  0  0
    1.9417   -1.9533   -2.2068 H   0  0  0  0  0  0  0  0  0  0  0  0
    2.6543    2.0100   -1.7051 H   0  0  0  0  0  0  0  0  0  0  0  0
    3.2073    0.9143   -3.0505 H   0  0  0  0  0  0  0  0  0  0  0  0
    1.4193    1.1655   -2.7580 H   0  0  0  0  0  0  0  0  0  0  0  0
    1.7634    1.7862    0.5104 H   0  0  0  0  0  0  0  0  0  0  0  0
   -0.2124    1.9850    1.8301 H   0  0  0  0  0  0  0  0  0  0  0  0
   -3.1950   -1.2470    2.4136 H   0  0  0  0  0  0  0  0  0  0  0  0
   -3.9883    0.2140    2.9930 H   0  0  0  0  0  0  0  0  0  0  0  0
   -4.1467   -2.2448    0.4148 H   0  0  0  0  0  0  0  0  0  0  0  0
   -6.1082   -3.2719   -0.9558 H   0  0  0  0  0  0  0  0  0  0  0  0
   -6.4658   -2.3763   -2.4745 H   0  0  0  0  0  0  0  0  0  0  0  0
   -4.7501   -2.8340   -2.0784 H   0  0  0  0  0  0  0  0  0  0  0  0
   -7.1407    2.2750   -1.6322 H   0  0  0  0  0  0  0  0  0  0  0  0
   -6.7217    4.2660   -0.3498 H   0  0  0  0  0  0  0  0  0  0  0  0
   -5.1559    4.1751    1.5836 H   0  0  0  0  0  0  0  0  0  0  0  0
   -4.0513    2.0757    2.1744 H   0  0  0  0  0  0  0  0  0  0  0  0
   -1.8271   -1.5736    0.1170 H   0  0  0  0  0  0  0  0  0  0  0  0
    0.2058   -1.7734   -1.2432 H   0  0  0  0  0  0  0  0  0  0  0  0
    5.8876    0.1952   -1.5508 H   0  0  0  0  0  0  0  0  0  0  0  0
    8.1206    1.5568   -0.7196 H   0  0  0  0  0  0  0  0  0  0  0  0
  1  2  1  0
  1  3  1  0
  3  4  1  0
  4  5  1  0
  5  6  1  0
  6  7  1  6
  6  8  1  0
  8  9  2  0
  6 10  1  0
 10 11  2  0
 11 12  1  0
 12 13  2  0
 13 14  1  0
 14 15  1  0
 15 16  1  0
 16 17  2  0
 17 18  1  0
 18 19  1  0
 18 20  2  0
 20 21  1  0
 21 22  2  0
 22 23  1  0
 23 24  2  0
 24 25  1  0
 25 26  2  0
 13 27  1  0
 27 28  2  0
  1 29  1  0
 29 30  2  0
 29 31  1  0
 31 32  1  0
  8  3  1  0
 28 10  1  0
 26 16  1  0
 26 21  1  0
  1 33  1  1
  2 34  1  0
  2 35  1  0
  2 36  1  0
  4 37  1  0
  4 38  1  0
  5 39  1  0
  5 40  1  0
  7 41  1  0
  7 42  1  0
  7 43  1  0
 11 44  1  0
 12 45  1  0
 15 46  1  0
 15 47  1  0
 17 48  1  0
 19 49  1  0
 19 50  1  0
 19 51  1  0
 22 52  1  0
 23 53  1  0
 24 54  1  0
 25 55  1  0
 27 56  1  0
 28 57  1  0
 31 58  1  0
 32 59  1  0
M  END
$$$$
