@<TRIPOS>MOLECULE
*****
 44 46 0 0 0
SMALL
GASTEIGER

@<TRIPOS>ATOM
      1 C          -0.3570    1.7359    0.0529 C.3     1  UNL1       -0.0381
      2 C          -0.2567    2.9683   -0.8602 C.3     1  UNL1       -0.0621
      3 C          -1.7412    1.8674    0.6768 C.3     1  UNL1       -0.0495
      4 C          -2.2096    0.6045    1.3064 C.3     1  UNL1       -0.0427
      5 C          -2.1185   -0.5794    0.3775 C.3     1  UNL1        0.0201
      6 C          -3.4768   -1.2245    0.1983 C.3     1  UNL1        0.0522
      7 O          -3.9545   -1.6569    1.4230 O.3     1  UNL1       -0.3944
      8 C          -1.1692   -1.5710    0.9848 C.3     1  UNL1        0.0564
      9 O           0.1334   -1.1152    1.0406 O.3     1  UNL1       -0.3710
     10 C           0.5907   -0.6086   -0.1632 C.3     1  UNL1        0.0869
     11 C           2.0521   -0.3667   -0.0840 C.ar    1  UNL1       -0.0184
     12 C           2.8168    0.7050   -0.4960 C.ar    1  UNL1       -0.0527
     13 C           4.1806    0.6691   -0.2956 C.ar    1  UNL1       -0.0198
     14 C           4.8302   -0.3764    0.2938 C.ar    1  UNL1        0.1169
     15 O           6.2130   -0.3448    0.4644 O.3     1  UNL1       -0.5068
     16 C           4.0753   -1.4326    0.6997 C.ar    1  UNL1       -0.0198
     17 C           2.7039   -1.4491    0.5234 C.ar    1  UNL1       -0.0527
     18 C          -0.2234    0.4824   -0.7292 C.3     1  UNL1       -0.0048
     19 C          -1.6251   -0.0833   -0.9634 C.3     1  UNL1       -0.0283
     20 C          -1.6160   -1.1642   -2.0122 C.3     1  UNL1       -0.0614
     21 H           0.4072    1.8951    0.8277 H       1  UNL1        0.0302
     22 H          -0.8973    3.8013   -0.5019 H       1  UNL1        0.0233
     23 H           0.7726    3.3823   -0.8538 H       1  UNL1        0.0233
     24 H          -0.5868    2.7414   -1.8976 H       1  UNL1        0.0233
     25 H          -1.6194    2.6215    1.4973 H       1  UNL1        0.0268
     26 H          -2.4458    2.2991   -0.0424 H       1  UNL1        0.0268
     27 H          -3.2540    0.7683    1.6555 H       1  UNL1        0.0272
     28 H          -1.6084    0.4470    2.2349 H       1  UNL1        0.0272
     29 H          -4.2116   -0.5520   -0.2440 H       1  UNL1        0.0563
     30 H          -3.3171   -2.1337   -0.4340 H       1  UNL1        0.0563
     31 H          -3.4244   -1.2935    2.1811 H       1  UNL1        0.2094
     32 H          -1.1732   -2.4953    0.3707 H       1  UNL1        0.0566
     33 H          -1.4717   -1.8957    1.9956 H       1  UNL1        0.0566
     34 H           0.4912   -1.4748   -0.8777 H       1  UNL1        0.0649
     35 H           2.2174    1.4692   -0.9441 H       1  UNL1        0.0622
     36 H           4.6930    1.5572   -0.6533 H       1  UNL1        0.0654
     37 H           6.6366   -0.9151    1.1662 H       1  UNL1        0.2921
     38 H           4.6159   -2.2645    1.1718 H       1  UNL1        0.0654
     39 H           2.2319   -2.3621    0.8984 H       1  UNL1        0.0622
     40 H           0.1759    0.7352   -1.7432 H       1  UNL1        0.0334
     41 H          -2.2580    0.7418   -1.3472 H       1  UNL1        0.0309
     42 H          -2.6389   -1.1945   -2.4626 H       1  UNL1        0.0233
     43 H          -0.8964   -0.8083   -2.8051 H       1  UNL1        0.0233
     44 H          -1.2871   -2.1299   -1.6302 H       1  UNL1        0.0233
@<TRIPOS>BOND
     1     1     2    1
     2     1     3    1
     3     3     4    1
     4     4     5    1
     5     5     6    1
     6     6     7    1
     7     5     8    1
     8     8     9    1
     9     9    10    1
    10    10    11    1
    11    11    12   ar
    12    12    13   ar
    13    13    14   ar
    14    14    15    1
    15    14    16   ar
    16    16    17   ar
    17    10    18    1
    18    18    19    1
    19    19    20    1
    20    18     1    1
    21    19     5    1
    22    17    11   ar
    23     1    21    1
    24     2    22    1
    25     2    23    1
    26     2    24    1
    27     3    25    1
    28     3    26    1
    29     4    27    1
    30     4    28    1
    31     6    29    1
    32     6    30    1
    33     7    31    1
    34     8    32    1
    35     8    33    1
    36    10    34    1
    37    12    35    1
    38    13    36    1
    39    15    37    1
    40    16    38    1
    41    17    39    1
    42    18    40    1
    43    19    41    1
    44    20    42    1
    45    20    43    1
    46    20    44    1
