
     RDKit          3D

 44 46  0  0  0  0  0  0  0  0999 V2000
   -0.3570    1.7359    0.0529 C   0  0  1  0  0  0  0  0  0  0  0  0
   -0.2567    2.9683   -0.8602 C   0  0  0  0  0  0  0  0  0  0  0  0
   -1.7412    1.8674    0.6768 C   0  0  0  0  0  0  0  0  0  0  0  0
   -2.2096    0.6045    1.3064 C   0  0  0  0  0  0  0  0  0  0  0  0
   -2.1185   -0.5794    0.3775 C   0  0  2  0  0  0  0  0  0  0  0  0
   -3.4768   -1.2245    0.1983 C   0  0  0  0  0  0  0  0  0  0  0  0
   -3.9545   -1.6569    1.4230 O   0  0  0  0  0  0  0  0  0  0  0  0
   -1.1692   -1.5710    0.9848 C   0  0  0  0  0  0  0  0  0  0  0  0
    0.1334   -1.1152    1.0406 O   0  0  0  0  0  0  0  0  0  0  0  0
    0.5907   -0.6086   -0.1632 C   0  0  2  0  0  0  0  0  0  0  0  0
    2.0521   -0.3667   -0.0840 C   0  0  0  0  0  0  0  0  0  0  0  0
    2.8168    0.7050   -0.4960 C   0  0  0  0  0  0  0  0  0  0  0  0
    4.1806    0.6691   -0.2956 C   0  0  0  0  0  0  0  0  0  0  0  0
    4.8302   -0.3764    0.2938 C   0  0  0  0  0  0  0  0  0  0  0  0
    6.2130   -0.3448    0.4644 O   0  0  0  0  0  0  0  0  0  0  0  0
    4.0753   -1.4326    0.6997 C   0  0  0  0  0  0  0  0  0  0  0  0
    2.7039   -1.4491    0.5234 C   0  0  0  0  0  0  0  0  0  0  0  0
   -0.2234    0.4824   -0.7292 C   0  0  1  0  0  0  0  0  0  0  0  0
   -1.6251   -0.0833   -0.9634 C   0  0  1  0  0  0  0  0  0  0  0  0
   -1.6160   -1.1642   -2.0122 C   0  0  0  0  0  0  0  0  0  0  0  0
    0.4072    1.8951    0.8277 H   0  0  0  0  0  0  0  0  0  0  0  0
   -0.8973    3.8013   -0.5019 H   0  0  0  0  0  0  0  0  0  0  0  0
    0.7726    3.3823   -0.8538 H   0  0  0  0  0  0  0  0  0  0  0  0
   -0.5868    2.7414   -1.8976 H   0  0  0  0  0  0  0  0  0  0  0  0
   -1.6194    2.6215    1.4973 H   0  0  0  0  0  0  0  0  0  0  0  0
   -2.4458    2.2991   -0.0424 H   0  0  0  0  0  0  0  0  0  0  0  0
   -3.2540    0.7683    1.6555 H   0  0  0  0  0  0  0  0  0  0  0  0
   -1.6084    0.4470    2.2349 H   0  0  0  0  0  0  0  0  0  0  0  0
   -4.2116   -0.5520   -0.2440 H   0  0  0  0  0  0  0  0  0  0  0  0
   -3.3171   -2.1337   -0.4340 H   0  0  0  0  0  0  0  0  0  0  0  0
   -3.4244   -1.2935    2.1811 H   0  0  0  0  0  0  0  0  0  0  0  0
   -1.1732   -2.4953    0.3707 H   0  0  0  0  0  0  0  0  0  0  0  0
   -1.4717   -1.8957    1.9956 H   0  0  0  0  0  0  0  0  0  0  0  0
    0.4912   -1.4748   -0.8777 H   0  0  0  0  0  0  0  0  0  0  0  0
    2.2174    1.4692   -0.9441 H   0  0  0  0  0  0  0  0  0  0  0  0
    4.6930    1.5572   -0.6533 H   0  0  0  0  0  0  0  0  0  0  0  0
    6.6366   -0.9151    1.1662 H   0  0  0  0  0  0  0  0  0  0  0  0
    4.6159   -2.2645    1.1718 H   0  0  0  0  0  0  0  0  0  0  0  0
    2.2319   -2.3621    0.8984 H   0  0  0  0  0  0  0  0  0  0  0  0
    0.1759    0.7352   -1.7432 H   0  0  0  0  0  0  0  0  0  0  0  0
   -2.2580    0.7418   -1.3472 H   0  0  0  0  0  0  0  0  0  0  0  0
   -2.6389   -1.1945   -2.4626 H   0  0  0  0  0  0  0  0  0  0  0  0
   -0.8964   -0.8083   -2.8051 H   0  0  0  0  0  0  0  0  0  0  0  0
   -1.2871   -2.1299   -1.6302 H   0  0  0  0  0  0  0  0  0  0  0  0
  1  2  1  0
  1  3  1  0
  3  4  1  0
  4  5  1  0
  5  6  1  6
  6  7  1  0
  5  8  1  0
  8  9  1  0
  9 10  1  0
 10 11  1  0
 11 12  2  0
 12 13  1  0
 13 14  2  0
 14 15  1  0
 14 16  1  0
 16 17  2  0
 10 18  1  0
 18 19  1  0
 19 20  1  0
 18  1  1  0
 19  5  1  0
 17 11  1  0
  1 21  1  1
  2 22  1  0
  2 23  1  0
  2 24  1  0
  3 25  1  0
  3 26  1  0
  4 27  1  0
  4 28  1  0
  6 29  1  0
  6 30  1  0
  7 31  1  0
  8 32  1  0
  8 33  1  0
 10 34  1  6
 12 35  1  0
 13 36  1  0
 15 37  1  0
 16 38  1  0
 17 39  1  0
 18 40  1  6
 19 41  1  6
 20 42  1  0
 20 43  1  0
 20 44  1  0
M  END
$$$$
