@<TRIPOS>MOLECULE
*****
 40 43 0 0 0
SMALL
GASTEIGER

@<TRIPOS>ATOM
      1 N          -4.3278   -1.9237    0.2488 N.3     1  UNL1       -0.3235
      2 C          -3.4729   -0.9831    0.9480 C.3     1  UNL1        0.0324
      3 C          -2.0352   -1.4882    0.8604 C.3     1  UNL1       -0.0140
      4 C          -1.5585   -0.9440   -0.4548 C.3     1  UNL1        0.0351
      5 N          -0.1915   -0.9803   -0.7240 N.3     1  UNL1       -0.3059
      6 C           0.7446   -0.3305    0.0955 C.3     1  UNL1        0.0156
      7 C           1.0909   -0.6294    1.4774 C.3     1  UNL1       -0.0287
      8 C           2.0394   -1.0983    0.3606 C.3     1  UNL1        0.0010
      9 C           3.3305   -0.3733    0.3446 C.ar    1  UNL1       -0.0428
     10 C           3.4304    0.9635    0.6441 C.ar    1  UNL1       -0.0583
     11 C           4.6668    1.5655    0.6072 C.ar    1  UNL1       -0.0615
     12 C           5.8320    0.8980    0.2824 C.ar    1  UNL1       -0.0617
     13 C           5.6930   -0.4418   -0.0122 C.ar    1  UNL1       -0.0615
     14 C           4.4679   -1.0703    0.0169 C.ar    1  UNL1       -0.0583
     15 C          -2.2454    0.3478   -0.5860 C.ar    1  UNL1       -0.0258
     16 C          -2.0420    1.5142   -1.2996 C.ar    1  UNL1       -0.0568
     17 C          -2.8992    2.5916   -1.2114 C.ar    1  UNL1       -0.0614
     18 C          -4.0089    2.5470   -0.3959 C.ar    1  UNL1       -0.0614
     19 C          -4.2298    1.4003    0.3208 C.ar    1  UNL1       -0.0568
     20 C          -3.3585    0.3175    0.2252 C.ar    1  UNL1       -0.0260
     21 H          -4.3362   -1.6324   -0.7678 H       1  UNL1        0.1188
     22 H          -3.8645   -2.8672    0.3492 H       1  UNL1        0.1188
     23 H          -3.7763   -0.7778    1.9722 H       1  UNL1        0.0508
     24 H          -1.5299   -1.1043    1.7461 H       1  UNL1        0.0302
     25 H          -2.0103   -2.5952    0.8972 H       1  UNL1        0.0302
     26 H          -2.0610   -1.6175   -1.2280 H       1  UNL1        0.0511
     27 H           0.0324   -0.8596   -1.7230 H       1  UNL1        0.1228
     28 H           0.9798    0.7189   -0.2377 H       1  UNL1        0.0467
     29 H           0.7606   -1.4724    2.0821 H       1  UNL1        0.0287
     30 H           1.4500    0.2206    2.1315 H       1  UNL1        0.0287
     31 H           2.0741   -2.1646    0.1051 H       1  UNL1        0.0364
     32 H           2.5257    1.5182    0.9049 H       1  UNL1        0.0620
     33 H           4.7510    2.6366    0.8466 H       1  UNL1        0.0618
     34 H           6.8042    1.3993    0.2599 H       1  UNL1        0.0618
     35 H           6.5956   -1.0131   -0.2765 H       1  UNL1        0.0618
     36 H           4.4053   -2.1483   -0.2272 H       1  UNL1        0.0620
     37 H          -1.1836    1.6031   -1.9570 H       1  UNL1        0.0621
     38 H          -2.7335    3.4991   -1.7719 H       1  UNL1        0.0618
     39 H          -4.7002    3.4004   -0.3172 H       1  UNL1        0.0618
     40 H          -5.1092    1.3733    0.9630 H       1  UNL1        0.0621
@<TRIPOS>BOND
     1     1     2    1
     2     2     3    1
     3     3     4    1
     4     4     5    1
     5     5     6    1
     6     6     7    1
     7     7     8    1
     8     8     9    1
     9     9    10   ar
    10    10    11   ar
    11    11    12   ar
    12    12    13   ar
    13    13    14   ar
    14     4    15    1
    15    15    16   ar
    16    16    17   ar
    17    17    18   ar
    18    18    19   ar
    19    19    20   ar
    20    20     2    1
    21     8     6    1
    22    14     9   ar
    23    20    15   ar
    24     1    21    1
    25     1    22    1
    26     2    23    1
    27     3    24    1
    28     3    25    1
    29     4    26    1
    30     5    27    1
    31     6    28    1
    32     7    29    1
    33     7    30    1
    34     8    31    1
    35    10    32    1
    36    11    33    1
    37    12    34    1
    38    13    35    1
    39    14    36    1
    40    16    37    1
    41    17    38    1
    42    18    39    1
    43    19    40    1
