@<TRIPOS>MOLECULE
*****
 59 63 0 0 0
SMALL
GASTEIGER

@<TRIPOS>ATOM
      1 C          -2.4159   -0.2422   -3.7309 C.ar    1  UNL1        0.1204
      2 N          -1.5340   -0.4630   -2.7562 N.ar    1  UNL1       -0.2202
      3 C          -1.8395   -0.1904   -1.4429 C.ar    1  UNL1        0.1317
      4 N          -0.8777   -0.4420   -0.4475 N.pl3   1  UNL1       -0.3256
      5 C           0.4387   -0.9634   -0.8617 C.3     1  UNL1        0.0221
      6 C           1.0968    0.0928   -1.6809 C.3     1  UNL1       -0.0331
      7 C           2.5929   -0.2125   -1.8426 C.3     1  UNL1       -0.0357
      8 C           3.1621   -0.2424   -0.4549 C.3     1  UNL1        0.0107
      9 N           4.5917   -0.0939   -0.4247 N.3     1  UNL1       -0.2951
     10 C           4.9307    1.1623   -1.0153 C.3     1  UNL1        0.0227
     11 C           6.2052    1.7646   -0.5412 C.3     1  UNL1        0.0604
     12 O           6.4035    1.6360    0.8300 O.3     1  UNL1       -0.3772
     13 C           6.4722    0.2702    1.0989 C.3     1  UNL1        0.0604
     14 C           5.0439   -0.2629    0.9286 C.3     1  UNL1        0.0227
     15 C           2.6750   -1.5252    0.1747 C.3     1  UNL1       -0.0357
     16 C           1.1886   -1.3905    0.3496 C.3     1  UNL1       -0.0331
     17 C          -3.0872    0.3207   -1.1534 C.ar    1  UNL1        0.0618
     18 C          -3.7322    0.7050   -0.0073 C.ar    1  UNL1       -0.0143
     19 C          -3.1894    0.6784    1.3766 C.3     1  UNL1       -0.0096
     20 C          -3.3233   -0.6729    2.0324 C.3     1  UNL1       -0.0225
     21 C          -4.7550   -1.1332    1.7750 C.3     1  UNL1        0.0482
     22 O          -5.6672   -0.2784    2.3597 O.3     1  UNL1       -0.3797
     23 C          -5.0988    0.7885    3.0008 C.3     1  UNL1        0.0482
     24 C          -4.1103    1.5922    2.2406 C.3     1  UNL1       -0.0225
     25 C          -5.0107    1.1510   -0.3659 C.ar    1  UNL1        0.0077
     26 N          -5.1320    1.0388   -1.6880 N.ar    1  UNL1       -0.3454
     27 C          -3.9771    0.5355   -2.2039 C.ar    1  UNL1        0.1434
     28 N          -3.6313    0.2533   -3.4660 N.ar    1  UNL1       -0.2178
     29 H          -2.1994   -0.4500   -4.7837 H       1  UNL1        0.1048
     30 H          -0.9995   -0.3039    0.5292 H       1  UNL1        0.1478
     31 H           0.1835   -1.8746   -1.4536 H       1  UNL1        0.0498
     32 H           0.7093    0.1607   -2.6906 H       1  UNL1        0.0284
     33 H           1.0472    1.0453   -1.1099 H       1  UNL1        0.0284
     34 H           3.0088    0.5987   -2.4689 H       1  UNL1        0.0281
     35 H           2.6524   -1.2088   -2.2991 H       1  UNL1        0.0281
     36 H           2.7187    0.5956    0.1145 H       1  UNL1        0.0462
     37 H           4.1034    1.8817   -0.7438 H       1  UNL1        0.0449
     38 H           4.9941    1.0607   -2.1309 H       1  UNL1        0.0449
     39 H           7.0745    1.3293   -1.0756 H       1  UNL1        0.0572
     40 H           6.1942    2.8506   -0.7684 H       1  UNL1        0.0572
     41 H           6.7911    0.0497    2.1304 H       1  UNL1        0.0572
     42 H           7.1395   -0.2551    0.3716 H       1  UNL1        0.0572
     43 H           5.1098   -1.3418    1.1739 H       1  UNL1        0.0449
     44 H           4.4055    0.3039    1.6105 H       1  UNL1        0.0449
     45 H           2.8855   -2.3537   -0.5283 H       1  UNL1        0.0281
     46 H           3.1045   -1.7057    1.1813 H       1  UNL1        0.0281
     47 H           0.9944   -0.7286    1.2268 H       1  UNL1        0.0284
     48 H           0.8097   -2.3980    0.6631 H       1  UNL1        0.0284
     49 H          -2.1893    1.0892    1.4369 H       1  UNL1        0.0351
     50 H          -2.6553   -1.4482    1.6721 H       1  UNL1        0.0293
     51 H          -3.2203   -0.5070    3.1440 H       1  UNL1        0.0293
     52 H          -4.9174   -1.0964    0.6747 H       1  UNL1        0.0560
     53 H          -4.8615   -2.1750    2.0903 H       1  UNL1        0.0560
     54 H          -4.7510    0.4911    4.0268 H       1  UNL1        0.0560
     55 H          -5.9572    1.4933    3.2269 H       1  UNL1        0.0560
     56 H          -4.4919    2.4190    1.6445 H       1  UNL1        0.0293
     57 H          -3.4033    2.0323    3.0064 H       1  UNL1        0.0293
     58 H          -5.7368    1.5159    0.3355 H       1  UNL1        0.0810
     59 H          -5.9629    1.2843   -2.2904 H       1  UNL1        0.1668
@<TRIPOS>BOND
     1     1     2   ar
     2     2     3   ar
     3     3     4    1
     4     4     5    1
     5     5     6    1
     6     6     7    1
     7     7     8    1
     8     8     9    1
     9     9    10    1
    10    10    11    1
    11    11    12    1
    12    12    13    1
    13    13    14    1
    14     8    15    1
    15    15    16    1
    16     3    17   ar
    17    17    18   ar
    18    18    19    1
    19    19    20    1
    20    20    21    1
    21    21    22    1
    22    22    23    1
    23    23    24    1
    24    18    25   ar
    25    25    26   ar
    26    26    27   ar
    27    27    28   ar
    28    28     1   ar
    29    16     5    1
    30    27    17   ar
    31    14     9    1
    32    24    19    1
    33     1    29    1
    34     4    30    1
    35     5    31    1
    36     6    32    1
    37     6    33    1
    38     7    34    1
    39     7    35    1
    40     8    36    1
    41    10    37    1
    42    10    38    1
    43    11    39    1
    44    11    40    1
    45    13    41    1
    46    13    42    1
    47    14    43    1
    48    14    44    1
    49    15    45    1
    50    15    46    1
    51    16    47    1
    52    16    48    1
    53    19    49    1
    54    20    50    1
    55    20    51    1
    56    21    52    1
    57    21    53    1
    58    23    54    1
    59    23    55    1
    60    24    56    1
    61    24    57    1
    62    25    58    1
    63    26    59    1
