
     RDKit          3D

 59 63  0  0  0  0  0  0  0  0999 V2000
   -2.4159   -0.2422   -3.7309 C   0  0  0  0  0  0  0  0  0  0  0  0
   -1.5340   -0.4630   -2.7562 N   0  0  0  0  0  0  0  0  0  0  0  0
   -1.8395   -0.1904   -1.4429 C   0  0  0  0  0  0  0  0  0  0  0  0
   -0.8777   -0.4420   -0.4475 N   0  0  0  0  0  0  0  0  0  0  0  0
    0.4387   -0.9634   -0.8617 C   0  0  1  0  0  0  0  0  0  0  0  0
    1.0968    0.0928   -1.6809 C   0  0  0  0  0  0  0  0  0  0  0  0
    2.5929   -0.2125   -1.8426 C   0  0  0  0  0  0  0  0  0  0  0  0
    3.1621   -0.2424   -0.4549 C   0  0  2  0  0  0  0  0  0  0  0  0
    4.5917   -0.0939   -0.4247 N   0  0  0  0  0  0  0  0  0  0  0  0
    4.9307    1.1623   -1.0153 C   0  0  0  0  0  0  0  0  0  0  0  0
    6.2052    1.7646   -0.5412 C   0  0  0  0  0  0  0  0  0  0  0  0
    6.4035    1.6360    0.8300 O   0  0  0  0  0  0  0  0  0  0  0  0
    6.4722    0.2702    1.0989 C   0  0  0  0  0  0  0  0  0  0  0  0
    5.0439   -0.2629    0.9286 C   0  0  0  0  0  0  0  0  0  0  0  0
    2.6750   -1.5252    0.1747 C   0  0  0  0  0  0  0  0  0  0  0  0
    1.1886   -1.3905    0.3496 C   0  0  0  0  0  0  0  0  0  0  0  0
   -3.0872    0.3207   -1.1534 C   0  0  0  0  0  0  0  0  0  0  0  0
   -3.7322    0.7050   -0.0073 C   0  0  0  0  0  0  0  0  0  0  0  0
   -3.1894    0.6784    1.3766 C   0  0  0  0  0  0  0  0  0  0  0  0
   -3.3233   -0.6729    2.0324 C   0  0  0  0  0  0  0  0  0  0  0  0
   -4.7550   -1.1332    1.7750 C   0  0  0  0  0  0  0  0  0  0  0  0
   -5.6672   -0.2784    2.3597 O   0  0  0  0  0  0  0  0  0  0  0  0
   -5.0988    0.7885    3.0008 C   0  0  0  0  0  0  0  0  0  0  0  0
   -4.1103    1.5922    2.2406 C   0  0  0  0  0  0  0  0  0  0  0  0
   -5.0107    1.1510   -0.3659 C   0  0  0  0  0  0  0  0  0  0  0  0
   -5.1320    1.0388   -1.6880 N   0  0  0  0  0  0  0  0  0  0  0  0
   -3.9771    0.5355   -2.2039 C   0  0  0  0  0  0  0  0  0  0  0  0
   -3.6313    0.2533   -3.4660 N   0  0  0  0  0  0  0  0  0  0  0  0
   -2.1994   -0.4500   -4.7837 H   0  0  0  0  0  0  0  0  0  0  0  0
   -0.9995   -0.3039    0.5292 H   0  0  0  0  0  0  0  0  0  0  0  0
    0.1835   -1.8746   -1.4536 H   0  0  0  0  0  0  0  0  0  0  0  0
    0.7093    0.1607   -2.6906 H   0  0  0  0  0  0  0  0  0  0  0  0
    1.0472    1.0453   -1.1099 H   0  0  0  0  0  0  0  0  0  0  0  0
    3.0088    0.5987   -2.4689 H   0  0  0  0  0  0  0  0  0  0  0  0
    2.6524   -1.2088   -2.2991 H   0  0  0  0  0  0  0  0  0  0  0  0
    2.7187    0.5956    0.1145 H   0  0  0  0  0  0  0  0  0  0  0  0
    4.1034    1.8817   -0.7438 H   0  0  0  0  0  0  0  0  0  0  0  0
    4.9941    1.0607   -2.1309 H   0  0  0  0  0  0  0  0  0  0  0  0
    7.0745    1.3293   -1.0756 H   0  0  0  0  0  0  0  0  0  0  0  0
    6.1942    2.8506   -0.7684 H   0  0  0  0  0  0  0  0  0  0  0  0
    6.7911    0.0497    2.1304 H   0  0  0  0  0  0  0  0  0  0  0  0
    7.1395   -0.2551    0.3716 H   0  0  0  0  0  0  0  0  0  0  0  0
    5.1098   -1.3418    1.1739 H   0  0  0  0  0  0  0  0  0  0  0  0
    4.4055    0.3039    1.6105 H   0  0  0  0  0  0  0  0  0  0  0  0
    2.8855   -2.3537   -0.5283 H   0  0  0  0  0  0  0  0  0  0  0  0
    3.1045   -1.7057    1.1813 H   0  0  0  0  0  0  0  0  0  0  0  0
    0.9944   -0.7286    1.2268 H   0  0  0  0  0  0  0  0  0  0  0  0
    0.8097   -2.3980    0.6631 H   0  0  0  0  0  0  0  0  0  0  0  0
   -2.1893    1.0892    1.4369 H   0  0  0  0  0  0  0  0  0  0  0  0
   -2.6553   -1.4482    1.6721 H   0  0  0  0  0  0  0  0  0  0  0  0
   -3.2203   -0.5070    3.1440 H   0  0  0  0  0  0  0  0  0  0  0  0
   -4.9174   -1.0964    0.6747 H   0  0  0  0  0  0  0  0  0  0  0  0
   -4.8615   -2.1750    2.0903 H   0  0  0  0  0  0  0  0  0  0  0  0
   -4.7510    0.4911    4.0268 H   0  0  0  0  0  0  0  0  0  0  0  0
   -5.9572    1.4933    3.2269 H   0  0  0  0  0  0  0  0  0  0  0  0
   -4.4919    2.4190    1.6445 H   0  0  0  0  0  0  0  0  0  0  0  0
   -3.4033    2.0323    3.0064 H   0  0  0  0  0  0  0  0  0  0  0  0
   -5.7368    1.5159    0.3355 H   0  0  0  0  0  0  0  0  0  0  0  0
   -5.9629    1.2843   -2.2904 H   0  0  0  0  0  0  0  0  0  0  0  0
  1  2  2  0
  2  3  1  0
  3  4  1  0
  4  5  1  0
  5  6  1  0
  6  7  1  0
  7  8  1  0
  8  9  1  0
  9 10  1  0
 10 11  1  0
 11 12  1  0
 12 13  1  0
 13 14  1  0
  8 15  1  0
 15 16  1  0
  3 17  2  0
 17 18  1  0
 18 19  1  0
 19 20  1  0
 20 21  1  0
 21 22  1  0
 22 23  1  0
 23 24  1  0
 18 25  2  0
 25 26  1  0
 26 27  1  0
 27 28  2  0
 28  1  1  0
 16  5  1  0
 27 17  1  0
 14  9  1  0
 24 19  1  0
  1 29  1  0
  4 30  1  0
  5 31  1  6
  6 32  1  0
  6 33  1  0
  7 34  1  0
  7 35  1  0
  8 36  1  1
 10 37  1  0
 10 38  1  0
 11 39  1  0
 11 40  1  0
 13 41  1  0
 13 42  1  0
 14 43  1  0
 14 44  1  0
 15 45  1  0
 15 46  1  0
 16 47  1  0
 16 48  1  0
 19 49  1  0
 20 50  1  0
 20 51  1  0
 21 52  1  0
 21 53  1  0
 23 54  1  0
 23 55  1  0
 24 56  1  0
 24 57  1  0
 25 58  1  0
 26 59  1  0
M  END
$$$$
