@<TRIPOS>MOLECULE
*****
 58 62 0 0 0
SMALL
GASTEIGER

@<TRIPOS>ATOM
      1 O          11.0263    0.6679    0.1833 O.2     1  UNL1       -0.2679
      2 C           9.9338    0.0960   -0.0207 C.ar    1  UNL1        0.2492
      3 N           8.7827    0.7899    0.1598 N.ar    1  UNL1       -0.3220
      4 C           7.5755    0.2380   -0.0412 C.ar    1  UNL1        0.0526
      5 C           6.3744    0.8912    0.1254 C.ar    1  UNL1        0.0040
      6 C           5.1520    0.2705   -0.0970 C.ar    1  UNL1        0.1225
      7 O           4.0000    1.0025    0.0950 O.3     1  UNL1       -0.4919
      8 C           2.7484    0.3424   -0.1402 C.3     1  UNL1        0.0896
      9 C           1.6044    1.3179    0.1263 C.3     1  UNL1       -0.0175
     10 C           0.2578    0.6734   -0.1067 C.3     1  UNL1       -0.0371
     11 C          -0.8671    1.6384    0.1572 C.3     1  UNL1       -0.0009
     12 N          -2.1753    1.0250   -0.0648 N.3     1  UNL1       -0.2994
     13 C          -3.1264    2.0729    0.2291 C.3     1  UNL1        0.0147
     14 C          -4.5568    1.6563    0.1996 C.3     1  UNL1        0.0250
     15 N          -4.6893    0.2314    0.2746 N.pl3   1  UNL1       -0.3270
     16 C          -3.7647   -0.3697    1.1873 C.3     1  UNL1        0.0250
     17 C          -2.3577   -0.1643    0.6954 C.3     1  UNL1        0.0147
     18 C          -5.5827   -0.6347   -0.4104 C.ar    1  UNL1        0.0381
     19 C          -6.9479   -0.5265   -0.2940 C.ar    1  UNL1        0.0102
     20 C          -7.6497    0.3763    0.4541 C.ar    1  UNL1       -0.0452
     21 C          -9.0215    0.3903    0.4941 C.ar    1  UNL1       -0.0231
     22 S          -9.4503   -1.0106   -0.6351 S.2     1  UNL1       -0.0966
     23 C          -7.7217   -1.4586   -1.0351 C.ar    1  UNL1        0.0211
     24 C          -7.2101   -2.4484   -1.8498 C.ar    1  UNL1       -0.0473
     25 C          -5.8426   -2.5433   -1.9555 C.ar    1  UNL1       -0.0589
     26 C          -5.1087   -1.6317   -1.2302 C.ar    1  UNL1       -0.0400
     27 C           5.1707   -1.0484   -0.4987 C.ar    1  UNL1       -0.0193
     28 C           6.3609   -1.7186   -0.6709 C.ar    1  UNL1       -0.0492
     29 C           7.5657   -1.0755   -0.4421 C.ar    1  UNL1       -0.0012
     30 C           8.7025   -1.8472   -0.6466 C.ar    1  UNL1       -0.0475
     31 C           9.9207   -1.2340   -0.4266 C.ar    1  UNL1        0.0034
     32 H           8.8217    1.7826    0.4636 H       1  UNL1        0.1689
     33 H           6.4446    1.9206    0.4413 H       1  UNL1        0.0675
     34 H           2.6225   -0.5353    0.5011 H       1  UNL1        0.0696
     35 H           2.7768    0.0783   -1.2168 H       1  UNL1        0.0696
     36 H           1.7481    2.1363   -0.6206 H       1  UNL1        0.0298
     37 H           1.7202    1.7638    1.1329 H       1  UNL1        0.0298
     38 H           0.2212    0.4799   -1.2182 H       1  UNL1        0.0279
     39 H           0.1379   -0.2915    0.3771 H       1  UNL1        0.0279
     40 H          -0.8148    2.5191   -0.4912 H       1  UNL1        0.0427
     41 H          -0.8145    1.9868    1.2092 H       1  UNL1        0.0427
     42 H          -2.8297    2.6316    1.1550 H       1  UNL1        0.0442
     43 H          -2.9931    2.8361   -0.5848 H       1  UNL1        0.0442
     44 H          -5.1433    2.1174   -0.6118 H       1  UNL1        0.0476
     45 H          -5.0163    2.0662    1.1468 H       1  UNL1        0.0476
     46 H          -3.8401    0.1836    2.1610 H       1  UNL1        0.0476
     47 H          -3.9841   -1.4218    1.4063 H       1  UNL1        0.0476
     48 H          -1.7002   -0.2388    1.5873 H       1  UNL1        0.0442
     49 H          -2.1136   -1.0345    0.0478 H       1  UNL1        0.0442
     50 H          -7.2352    1.1521    1.0757 H       1  UNL1        0.0629
     51 H          -9.7823    0.8985    0.9228 H       1  UNL1        0.0694
     52 H          -7.9183   -3.0743   -2.3435 H       1  UNL1        0.0629
     53 H          -5.4177   -3.3070   -2.5847 H       1  UNL1        0.0618
     54 H          -4.0096   -1.6988   -1.3076 H       1  UNL1        0.0636
     55 H           4.2262   -1.5260   -0.6700 H       1  UNL1        0.0654
     56 H           6.3153   -2.7470   -0.9858 H       1  UNL1        0.0625
     57 H           8.6310   -2.8748   -0.9620 H       1  UNL1        0.0626
     58 H          10.8440   -1.7719   -0.5657 H       1  UNL1        0.0672
@<TRIPOS>BOND
     1     1     2    2
     2     2     3   ar
     3     3     4   ar
     4     4     5   ar
     5     5     6   ar
     6     6     7    1
     7     7     8    1
     8     8     9    1
     9     9    10    1
    10    10    11    1
    11    11    12    1
    12    12    13    1
    13    13    14    1
    14    14    15    1
    15    15    16    1
    16    16    17    1
    17    15    18    1
    18    18    19   ar
    19    19    20   ar
    20    20    21   ar
    21    21    22   ar
    22    22    23   ar
    23    23    24   ar
    24    24    25   ar
    25    25    26   ar
    26     6    27   ar
    27    27    28   ar
    28    28    29   ar
    29    29    30   ar
    30    30    31   ar
    31    31     2   ar
    32    29     4   ar
    33    17    12    1
    34    26    18   ar
    35    23    19   ar
    36     3    32    1
    37     5    33    1
    38     8    34    1
    39     8    35    1
    40     9    36    1
    41     9    37    1
    42    10    38    1
    43    10    39    1
    44    11    40    1
    45    11    41    1
    46    13    42    1
    47    13    43    1
    48    14    44    1
    49    14    45    1
    50    16    46    1
    51    16    47    1
    52    17    48    1
    53    17    49    1
    54    20    50    1
    55    21    51    1
    56    24    52    1
    57    25    53    1
    58    26    54    1
    59    27    55    1
    60    28    56    1
    61    30    57    1
    62    31    58    1
