
     RDKit          3D

 58 62  0  0  0  0  0  0  0  0999 V2000
   11.0263    0.6679    0.1833 O   0  0  0  0  0  0  0  0  0  0  0  0
    9.9338    0.0960   -0.0207 C   0  0  0  0  0  0  0  0  0  0  0  0
    8.7827    0.7899    0.1598 N   0  0  0  0  0  0  0  0  0  0  0  0
    7.5755    0.2380   -0.0412 C   0  0  0  0  0  0  0  0  0  0  0  0
    6.3744    0.8912    0.1254 C   0  0  0  0  0  0  0  0  0  0  0  0
    5.1520    0.2705   -0.0970 C   0  0  0  0  0  0  0  0  0  0  0  0
    4.0000    1.0025    0.0950 O   0  0  0  0  0  0  0  0  0  0  0  0
    2.7484    0.3424   -0.1402 C   0  0  0  0  0  0  0  0  0  0  0  0
    1.6044    1.3179    0.1263 C   0  0  0  0  0  0  0  0  0  0  0  0
    0.2578    0.6734   -0.1067 C   0  0  0  0  0  0  0  0  0  0  0  0
   -0.8671    1.6384    0.1572 C   0  0  0  0  0  0  0  0  0  0  0  0
   -2.1753    1.0250   -0.0648 N   0  0  0  0  0  0  0  0  0  0  0  0
   -3.1264    2.0729    0.2291 C   0  0  0  0  0  0  0  0  0  0  0  0
   -4.5568    1.6563    0.1996 C   0  0  0  0  0  0  0  0  0  0  0  0
   -4.6893    0.2314    0.2746 N   0  0  0  0  0  0  0  0  0  0  0  0
   -3.7647   -0.3697    1.1873 C   0  0  0  0  0  0  0  0  0  0  0  0
   -2.3577   -0.1643    0.6954 C   0  0  0  0  0  0  0  0  0  0  0  0
   -5.5827   -0.6347   -0.4104 C   0  0  0  0  0  0  0  0  0  0  0  0
   -6.9479   -0.5265   -0.2940 C   0  0  0  0  0  0  0  0  0  0  0  0
   -7.6497    0.3763    0.4541 C   0  0  0  0  0  0  0  0  0  0  0  0
   -9.0215    0.3903    0.4941 C   0  0  0  0  0  0  0  0  0  0  0  0
   -9.4503   -1.0106   -0.6351 S   0  0  0  0  0  0  0  0  0  0  0  0
   -7.7217   -1.4586   -1.0351 C   0  0  0  0  0  0  0  0  0  0  0  0
   -7.2101   -2.4484   -1.8498 C   0  0  0  0  0  0  0  0  0  0  0  0
   -5.8426   -2.5433   -1.9555 C   0  0  0  0  0  0  0  0  0  0  0  0
   -5.1087   -1.6317   -1.2302 C   0  0  0  0  0  0  0  0  0  0  0  0
    5.1707   -1.0484   -0.4987 C   0  0  0  0  0  0  0  0  0  0  0  0
    6.3609   -1.7186   -0.6709 C   0  0  0  0  0  0  0  0  0  0  0  0
    7.5657   -1.0755   -0.4421 C   0  0  0  0  0  0  0  0  0  0  0  0
    8.7025   -1.8472   -0.6466 C   0  0  0  0  0  0  0  0  0  0  0  0
    9.9207   -1.2340   -0.4266 C   0  0  0  0  0  0  0  0  0  0  0  0
    8.8217    1.7826    0.4636 H   0  0  0  0  0  0  0  0  0  0  0  0
    6.4446    1.9206    0.4413 H   0  0  0  0  0  0  0  0  0  0  0  0
    2.6225   -0.5353    0.5011 H   0  0  0  0  0  0  0  0  0  0  0  0
    2.7768    0.0783   -1.2168 H   0  0  0  0  0  0  0  0  0  0  0  0
    1.7481    2.1363   -0.6206 H   0  0  0  0  0  0  0  0  0  0  0  0
    1.7202    1.7638    1.1329 H   0  0  0  0  0  0  0  0  0  0  0  0
    0.2212    0.4799   -1.2182 H   0  0  0  0  0  0  0  0  0  0  0  0
    0.1379   -0.2915    0.3771 H   0  0  0  0  0  0  0  0  0  0  0  0
   -0.8148    2.5191   -0.4912 H   0  0  0  0  0  0  0  0  0  0  0  0
   -0.8145    1.9868    1.2092 H   0  0  0  0  0  0  0  0  0  0  0  0
   -2.8297    2.6316    1.1550 H   0  0  0  0  0  0  0  0  0  0  0  0
   -2.9931    2.8361   -0.5848 H   0  0  0  0  0  0  0  0  0  0  0  0
   -5.1433    2.1174   -0.6118 H   0  0  0  0  0  0  0  0  0  0  0  0
   -5.0163    2.0662    1.1468 H   0  0  0  0  0  0  0  0  0  0  0  0
   -3.8401    0.1836    2.1610 H   0  0  0  0  0  0  0  0  0  0  0  0
   -3.9841   -1.4218    1.4063 H   0  0  0  0  0  0  0  0  0  0  0  0
   -1.7002   -0.2388    1.5873 H   0  0  0  0  0  0  0  0  0  0  0  0
   -2.1136   -1.0345    0.0478 H   0  0  0  0  0  0  0  0  0  0  0  0
   -7.2352    1.1521    1.0757 H   0  0  0  0  0  0  0  0  0  0  0  0
   -9.7823    0.8985    0.9228 H   0  0  0  0  0  0  0  0  0  0  0  0
   -7.9183   -3.0743   -2.3435 H   0  0  0  0  0  0  0  0  0  0  0  0
   -5.4177   -3.3070   -2.5847 H   0  0  0  0  0  0  0  0  0  0  0  0
   -4.0096   -1.6988   -1.3076 H   0  0  0  0  0  0  0  0  0  0  0  0
    4.2262   -1.5260   -0.6700 H   0  0  0  0  0  0  0  0  0  0  0  0
    6.3153   -2.7470   -0.9858 H   0  0  0  0  0  0  0  0  0  0  0  0
    8.6310   -2.8748   -0.9620 H   0  0  0  0  0  0  0  0  0  0  0  0
   10.8440   -1.7719   -0.5657 H   0  0  0  0  0  0  0  0  0  0  0  0
  1  2  2  0
  2  3  1  0
  3  4  1  0
  4  5  2  0
  5  6  1  0
  6  7  1  0
  7  8  1  0
  8  9  1  0
  9 10  1  0
 10 11  1  0
 11 12  1  0
 12 13  1  0
 13 14  1  0
 14 15  1  0
 15 16  1  0
 16 17  1  0
 15 18  1  0
 18 19  2  0
 19 20  1  0
 20 21  2  0
 21 22  1  0
 22 23  1  0
 23 24  2  0
 24 25  1  0
 25 26  2  0
  6 27  2  0
 27 28  1  0
 28 29  2  0
 29 30  1  0
 30 31  2  0
 31  2  1  0
 29  4  1  0
 17 12  1  0
 26 18  1  0
 23 19  1  0
  3 32  1  0
  5 33  1  0
  8 34  1  0
  8 35  1  0
  9 36  1  0
  9 37  1  0
 10 38  1  0
 10 39  1  0
 11 40  1  0
 11 41  1  0
 13 42  1  0
 13 43  1  0
 14 44  1  0
 14 45  1  0
 16 46  1  0
 16 47  1  0
 17 48  1  0
 17 49  1  0
 20 50  1  0
 21 51  1  0
 24 52  1  0
 25 53  1  0
 26 54  1  0
 27 55  1  0
 28 56  1  0
 30 57  1  0
 31 58  1  0
M  END
$$$$
