@<TRIPOS>MOLECULE
*****
 44 46 0 0 0
SMALL
GASTEIGER

@<TRIPOS>ATOM
      1 C          -1.9396   -1.2444    0.9749 C.3     1  UNL1       -0.0352
      2 C          -2.3345    0.1580    0.5053 C.3     1  UNL1        0.0952
      3 C          -1.0925    0.9772    0.3374 C.ar    1  UNL1        0.0197
      4 C           0.1634    0.3963    0.4971 C.ar    1  UNL1       -0.0321
      5 C           1.3192    1.1240    0.3440 C.ar    1  UNL1        0.0369
      6 N           2.6245    0.5616    0.5003 N.am    1  UNL1       -0.2802
      7 C           3.3406   -0.0145   -0.5772 C.2     1  UNL1        0.2666
      8 O           2.7850   -0.0187   -1.7034 O.2     1  UNL1       -0.2682
      9 C           4.6726   -0.5888   -0.4196 C.ar    1  UNL1        0.1257
     10 C           5.3571   -1.1457   -1.4760 C.ar    1  UNL1       -0.0298
     11 C           6.6345   -1.6931   -1.3102 C.ar    1  UNL1       -0.0397
     12 C           7.2363   -1.6831   -0.0678 C.ar    1  UNL1        0.0591
     13 CL          8.8381   -2.3620    0.1737 Cl      1  UNL1       -0.0820
     14 C           6.5127   -1.1147    0.9612 C.ar    1  UNL1        0.0467
     15 N           5.2760   -0.5892    0.7807 N.ar    1  UNL1       -0.2489
     16 C           1.2520    2.4649    0.0242 C.ar    1  UNL1       -0.0023
     17 C           0.0251    3.0639   -0.1393 C.ar    1  UNL1        0.1605
     18 F          -0.0155    4.3771   -0.4521 F       1  UNL1       -0.2024
     19 C          -1.1204    2.3163    0.0188 C.ar    1  UNL1        0.1640
     20 F          -2.3239    2.9151   -0.1394 F       1  UNL1       -0.2021
     21 C          -3.0592    0.1009   -0.8038 C.3     1  UNL1        0.0223
     22 C          -4.5126   -0.2524   -0.7007 C.3     1  UNL1        0.1997
     23 C          -4.8312   -1.5463   -1.4326 C.3     1  UNL1        0.4266
     24 F          -6.1677   -1.8608   -1.3313 F       1  UNL1       -0.1669
     25 F          -4.5468   -1.3452   -2.7785 F       1  UNL1       -0.1669
     26 F          -4.1139   -2.6111   -0.9677 F       1  UNL1       -0.1669
     27 O          -4.8819   -0.3285    0.6563 O.2     1  UNL1       -0.4534
     28 C          -4.3607    0.5109    1.6297 C.2     1  UNL1        0.2765
     29 N          -5.1234    1.0960    2.6667 N.pl3   1  UNL1       -0.3134
     30 N          -3.0904    0.7597    1.5627 N.2     1  UNL1       -0.2257
     31 H          -2.8513   -1.7992    1.2755 H       1  UNL1        0.0256
     32 H          -1.3397   -1.1197    1.8990 H       1  UNL1        0.0256
     33 H          -1.3384   -1.7831    0.2333 H       1  UNL1        0.0256
     34 H           0.2641   -0.6347    0.7437 H       1  UNL1        0.0640
     35 H           3.0911    0.5634    1.4383 H       1  UNL1        0.1552
     36 H           4.8711   -1.1456   -2.4441 H       1  UNL1        0.0641
     37 H           7.1669   -2.1295   -2.1458 H       1  UNL1        0.0633
     38 H           6.9818   -1.1037    1.9433 H       1  UNL1        0.0844
     39 H           2.1328    3.0752   -0.1058 H       1  UNL1        0.0666
     40 H          -2.9816    1.0755   -1.3042 H       1  UNL1        0.0330
     41 H          -2.5380   -0.6443   -1.4466 H       1  UNL1        0.0330
     42 H          -5.1600    0.5242   -1.1626 H       1  UNL1        0.0826
     43 H          -5.2613    2.1276    2.6594 H       1  UNL1        0.1466
     44 H          -5.5604    0.5707    3.4419 H       1  UNL1        0.1466
@<TRIPOS>BOND
     1     2     1    1
     2     2     3    1
     3     3     4   ar
     4     4     5   ar
     5     5     6    1
     6     6     7   am
     7     7     8    2
     8     7     9    1
     9     9    10   ar
    10    10    11   ar
    11    11    12   ar
    12    12    13    1
    13    12    14   ar
    14    14    15   ar
    15     5    16   ar
    16    16    17   ar
    17    17    18    1
    18    17    19   ar
    19    19    20    1
    20     2    21    1
    21    21    22    1
    22    22    23    1
    23    23    24    1
    24    23    25    1
    25    23    26    1
    26    22    27    1
    27    27    28    1
    28    28    29    1
    29    28    30    2
    30    30     2    1
    31    19     3   ar
    32    15     9   ar
    33     1    31    1
    34     1    32    1
    35     1    33    1
    36     4    34    1
    37     6    35    1
    38    10    36    1
    39    11    37    1
    40    14    38    1
    41    16    39    1
    42    21    40    1
    43    21    41    1
    44    22    42    1
    45    29    43    1
    46    29    44    1
