
     RDKit          3D

 67 71  0  0  0  0  0  0  0  0999 V2000
    6.7753    0.0512    2.5710 C   0  0  0  0  0  0  0  0  0  0  0  0
    7.6107   -0.8471    1.7173 C   0  0  0  0  0  0  0  0  0  0  0  0
    6.8882   -1.2548    0.4400 C   0  0  0  0  0  0  0  0  0  0  0  0
    7.0229   -1.8896   -0.5313 N   0  0  0  0  0  0  0  0  0  0  0  0
    6.1826   -2.0722   -1.5217 C   0  0  0  0  0  0  0  0  0  0  0  0
    4.9817   -1.4320   -1.4035 C   0  0  0  0  0  0  0  0  0  0  0  0
    3.7894   -1.3965   -2.3126 C   0  0  1  0  0  0  0  0  0  0  0  0
    2.6783   -2.1119   -1.6087 C   0  0  0  0  0  0  0  0  0  0  0  0
    1.9856   -1.2091   -0.6149 C   0  0  0  0  0  0  0  0  0  0  0  0
    1.4023   -0.0628   -1.4141 C   0  0  1  0  0  0  0  0  0  0  0  0
    0.4230    0.6365   -0.6589 N   0  0  0  0  0  0  0  0  0  0  0  0
   -0.2378    1.7466   -1.2637 C   0  0  0  0  0  0  0  0  0  0  0  0
   -0.2263    2.4271    0.0895 C   0  0  0  0  0  0  0  0  0  0  0  0
   -1.4940    2.1806    0.7720 N   0  0  0  0  0  0  0  0  0  0  0  0
   -2.1694    3.2558    1.4024 C   0  0  0  0  0  0  0  0  0  0  0  0
   -1.6076    4.4005    1.3338 O   0  0  0  0  0  0  0  0  0  0  0  0
   -3.4486    3.1456    2.1186 C   0  0  0  0  0  0  0  0  0  0  0  0
   -3.9493    1.7944    2.0728 N   0  0  0  0  0  0  0  0  0  0  0  0
   -4.3306    1.2803    0.8028 C   0  0  0  0  0  0  0  0  0  0  0  0
   -4.3056    1.8796   -0.3944 N   0  0  0  0  0  0  0  0  0  0  0  0
   -4.7448    1.0806   -1.3364 N   0  0  0  0  0  0  0  0  0  0  0  0
   -4.8397    1.4390   -2.7407 C   0  0  0  0  0  0  0  0  0  0  0  0
   -5.0838   -0.1046   -0.7786 C   0  0  0  0  0  0  0  0  0  0  0  0
   -5.5867   -1.2642   -1.3005 C   0  0  0  0  0  0  0  0  0  0  0  0
   -5.8487   -2.3424   -0.5000 C   0  0  0  0  0  0  0  0  0  0  0  0
   -5.6019   -2.2590    0.8536 C   0  0  0  0  0  0  0  0  0  0  0  0
   -5.8974   -3.4474    1.6920 C   0  0  0  0  0  0  0  0  0  0  0  0
   -4.8048   -3.7848    2.4912 F   0  0  0  0  0  0  0  0  0  0  0  0
   -6.2715   -4.5308    0.9249 F   0  0  0  0  0  0  0  0  0  0  0  0
   -6.9406   -3.1818    2.5769 F   0  0  0  0  0  0  0  0  0  0  0  0
   -5.0965   -1.0867    1.3630 C   0  0  0  0  0  0  0  0  0  0  0  0
   -4.8184    0.0239    0.5903 C   0  0  0  0  0  0  0  0  0  0  0  0
    0.8457    1.4175    0.4601 C   0  0  0  0  0  0  0  0  0  0  0  0
    2.5376    0.7677   -1.9346 C   0  0  0  0  0  0  0  0  0  0  0  0
    3.5232   -0.0141   -2.7459 C   0  0  0  0  0  0  0  0  0  0  0  0
    5.1395   -0.5841    0.1668 S   0  0  0  0  0  0  0  0  0  0  0  0
    6.8837    1.1239    2.2993 H   0  0  0  0  0  0  0  0  0  0  0  0
    6.9515   -0.1159    3.6589 H   0  0  0  0  0  0  0  0  0  0  0  0
    5.6975   -0.2190    2.3849 H   0  0  0  0  0  0  0  0  0  0  0  0
    7.9336   -1.7353    2.2774 H   0  0  0  0  0  0  0  0  0  0  0  0
    8.4866   -0.2481    1.3405 H   0  0  0  0  0  0  0  0  0  0  0  0
    6.4139   -2.6976   -2.3984 H   0  0  0  0  0  0  0  0  0  0  0  0
    4.0587   -2.0224   -3.2188 H   0  0  0  0  0  0  0  0  0  0  0  0
    1.8932   -2.3890   -2.3654 H   0  0  0  0  0  0  0  0  0  0  0  0
    3.0037   -3.0626   -1.1478 H   0  0  0  0  0  0  0  0  0  0  0  0
    2.6181   -0.8835    0.2163 H   0  0  0  0  0  0  0  0  0  0  0  0
    1.0997   -1.8029   -0.2441 H   0  0  0  0  0  0  0  0  0  0  0  0
    0.8941   -0.5089   -2.3002 H   0  0  0  0  0  0  0  0  0  0  0  0
    0.2586    2.2953   -2.0612 H   0  0  0  0  0  0  0  0  0  0  0  0
   -1.2653    1.4592   -1.6069 H   0  0  0  0  0  0  0  0  0  0  0  0
    0.0945    3.4728    0.1106 H   0  0  0  0  0  0  0  0  0  0  0  0
   -1.8915    1.2183    0.7977 H   0  0  0  0  0  0  0  0  0  0  0  0
   -3.2727    3.4175    3.2004 H   0  0  0  0  0  0  0  0  0  0  0  0
   -4.2065    3.8556    1.7028 H   0  0  0  0  0  0  0  0  0  0  0  0
   -4.0288    1.2176    2.9355 H   0  0  0  0  0  0  0  0  0  0  0  0
   -4.0985    0.8580   -3.3505 H   0  0  0  0  0  0  0  0  0  0  0  0
   -4.5757    2.5045   -2.8877 H   0  0  0  0  0  0  0  0  0  0  0  0
   -5.8626    1.2451   -3.1401 H   0  0  0  0  0  0  0  0  0  0  0  0
   -5.7800   -1.3328   -2.3537 H   0  0  0  0  0  0  0  0  0  0  0  0
   -6.2536   -3.2728   -0.9281 H   0  0  0  0  0  0  0  0  0  0  0  0
   -4.8962   -1.0047    2.4276 H   0  0  0  0  0  0  0  0  0  0  0  0
    1.8653    1.8009    0.4394 H   0  0  0  0  0  0  0  0  0  0  0  0
    0.6652    0.8812    1.4142 H   0  0  0  0  0  0  0  0  0  0  0  0
    3.0956    1.1614   -1.0489 H   0  0  0  0  0  0  0  0  0  0  0  0
    2.1400    1.6511   -2.4694 H   0  0  0  0  0  0  0  0  0  0  0  0
    4.4854    0.5322   -2.8461 H   0  0  0  0  0  0  0  0  0  0  0  0
    3.1107   -0.0499   -3.7975 H   0  0  0  0  0  0  0  0  0  0  0  0
  1  2  1  0
  2  3  1  0
  3  4  2  0
  4  5  1  0
  5  6  2  0
  6  7  1  0
  7  8  1  0
  8  9  1  0
  9 10  1  0
 10 11  1  0
 11 12  1  0
 12 13  1  0
 13 14  1  0
 14 15  1  0
 15 16  2  0
 15 17  1  0
 17 18  1  0
 18 19  1  0
 19 20  2  0
 20 21  1  0
 21 22  1  0
 21 23  1  0
 23 24  2  0
 24 25  1  0
 25 26  2  0
 26 27  1  0
 27 28  1  0
 27 29  1  0
 27 30  1  0
 26 31  1  0
 31 32  2  0
 13 33  1  0
 10 34  1  0
 34 35  1  0
  6 36  1  0
 36  3  1  0
 35  7  1  0
 33 11  1  0
 32 19  1  0
 32 23  1  0
  1 37  1  0
  1 38  1  0
  1 39  1  0
  2 40  1  0
  2 41  1  0
  5 42  1  0
  7 43  1  6
  8 44  1  0
  8 45  1  0
  9 46  1  0
  9 47  1  0
 10 48  1  6
 12 49  1  0
 12 50  1  0
 13 51  1  0
 14 52  1  0
 17 53  1  0
 17 54  1  0
 18 55  1  0
 22 56  1  0
 22 57  1  0
 22 58  1  0
 24 59  1  0
 25 60  1  0
 31 61  1  0
 33 62  1  0
 33 63  1  0
 34 64  1  0
 34 65  1  0
 35 66  1  0
 35 67  1  0
M  END
$$$$
