@<TRIPOS>MOLECULE
*****
 67 71 0 0 0
SMALL
GASTEIGER

@<TRIPOS>ATOM
      1 C           6.7753    0.0512    2.5710 C.3     1  UNL1       -0.0593
      2 C           7.6107   -0.8471    1.7173 C.3     1  UNL1       -0.0068
      3 C           6.8882   -1.2548    0.4400 C.ar    1  UNL1        0.0783
      4 N           7.0229   -1.8896   -0.5313 N.ar    1  UNL1       -0.2520
      5 C           6.1826   -2.0722   -1.5217 C.ar    1  UNL1        0.0385
      6 C           4.9817   -1.4320   -1.4035 C.ar    1  UNL1        0.0126
      7 C           3.7894   -1.3965   -2.3126 C.3     1  UNL1       -0.0080
      8 C           2.6783   -2.1119   -1.6087 C.3     1  UNL1       -0.0443
      9 C           1.9856   -1.2091   -0.6149 C.3     1  UNL1       -0.0368
     10 C           1.4023   -0.0628   -1.4141 C.3     1  UNL1        0.0106
     11 N           0.4230    0.6365   -0.6589 N.3     1  UNL1       -0.2958
     12 C          -0.2378    1.7466   -1.2637 C.3     1  UNL1        0.0189
     13 C          -0.2263    2.4271    0.0895 C.3     1  UNL1        0.0486
     14 N          -1.4940    2.1806    0.7720 N.am    1  UNL1       -0.3087
     15 C          -2.1694    3.2558    1.4024 C.2     1  UNL1        0.2305
     16 O          -1.6076    4.4005    1.3338 O.2     1  UNL1       -0.2741
     17 C          -3.4486    3.1456    2.1186 C.3     1  UNL1        0.0870
     18 N          -3.9493    1.7944    2.0728 N.pl3   1  UNL1       -0.3186
     19 C          -4.3306    1.2803    0.8028 C.ar    1  UNL1        0.1488
     20 N          -4.3056    1.8796   -0.3944 N.ar    1  UNL1       -0.1554
     21 N          -4.7448    1.0806   -1.3364 N.ar    1  UNL1       -0.2650
     22 C          -4.8397    1.4390   -2.7407 C.3     1  UNL1        0.0309
     23 C          -5.0838   -0.1046   -0.7786 C.ar    1  UNL1        0.0705
     24 C          -5.5867   -1.2642   -1.3005 C.ar    1  UNL1       -0.0355
     25 C          -5.8487   -2.3424   -0.5000 C.ar    1  UNL1       -0.0481
     26 C          -5.6019   -2.2590    0.8536 C.ar    1  UNL1        0.0556
     27 C          -5.8974   -3.4474    1.6920 C.3     1  UNL1        0.4174
     28 F          -4.8048   -3.7848    2.4912 F       1  UNL1       -0.1659
     29 F          -6.2715   -4.5308    0.9249 F       1  UNL1       -0.1659
     30 F          -6.9406   -3.1818    2.5769 F       1  UNL1       -0.1659
     31 C          -5.0965   -1.0867    1.3630 C.ar    1  UNL1       -0.0376
     32 C          -4.8184    0.0239    0.5903 C.ar    1  UNL1        0.0419
     33 C           0.8457    1.4175    0.4601 C.3     1  UNL1        0.0189
     34 C           2.5376    0.7677   -1.9346 C.3     1  UNL1       -0.0368
     35 C           3.5232   -0.0141   -2.7459 C.3     1  UNL1       -0.0443
     36 S           5.1395   -0.5841    0.1668 S.2     1  UNL1       -0.0768
     37 H           6.8837    1.1239    2.2993 H       1  UNL1        0.0233
     38 H           6.9515   -0.1159    3.6589 H       1  UNL1        0.0233
     39 H           5.6975   -0.2190    2.3849 H       1  UNL1        0.0233
     40 H           7.9336   -1.7353    2.2774 H       1  UNL1        0.0331
     41 H           8.4866   -0.2481    1.3405 H       1  UNL1        0.0331
     42 H           6.4139   -2.6976   -2.3984 H       1  UNL1        0.0838
     43 H           4.0587   -2.0224   -3.2188 H       1  UNL1        0.0354
     44 H           1.8932   -2.3890   -2.3654 H       1  UNL1        0.0272
     45 H           3.0037   -3.0626   -1.1478 H       1  UNL1        0.0272
     46 H           2.6181   -0.8835    0.2163 H       1  UNL1        0.0280
     47 H           1.0997   -1.8029   -0.2441 H       1  UNL1        0.0280
     48 H           0.8941   -0.5089   -2.3002 H       1  UNL1        0.0462
     49 H           0.2586    2.2953   -2.0612 H       1  UNL1        0.0445
     50 H          -1.2653    1.4592   -1.6069 H       1  UNL1        0.0445
     51 H           0.0945    3.4728    0.1106 H       1  UNL1        0.0523
     52 H          -1.8915    1.2183    0.7977 H       1  UNL1        0.1491
     53 H          -3.2727    3.4175    3.2004 H       1  UNL1        0.0557
     54 H          -4.2065    3.8556    1.7028 H       1  UNL1        0.0557
     55 H          -4.0288    1.2176    2.9355 H       1  UNL1        0.1480
     56 H          -4.0985    0.8580   -3.3505 H       1  UNL1        0.0473
     57 H          -4.5757    2.5045   -2.8877 H       1  UNL1        0.0473
     58 H          -5.8626    1.2451   -3.1401 H       1  UNL1        0.0473
     59 H          -5.7800   -1.3328   -2.3537 H       1  UNL1        0.0639
     60 H          -6.2536   -3.2728   -0.9281 H       1  UNL1        0.0624
     61 H          -4.8962   -1.0047    2.4276 H       1  UNL1        0.0631
     62 H           1.8653    1.8009    0.4394 H       1  UNL1        0.0445
     63 H           0.6652    0.8812    1.4142 H       1  UNL1        0.0445
     64 H           3.0956    1.1614   -1.0489 H       1  UNL1        0.0280
     65 H           2.1400    1.6511   -2.4694 H       1  UNL1        0.0280
     66 H           4.4854    0.5322   -2.8461 H       1  UNL1        0.0272
     67 H           3.1107   -0.0499   -3.7975 H       1  UNL1        0.0272
@<TRIPOS>BOND
     1     1     2    1
     2     2     3    1
     3     3     4   ar
     4     4     5   ar
     5     5     6   ar
     6     6     7    1
     7     7     8    1
     8     8     9    1
     9     9    10    1
    10    10    11    1
    11    11    12    1
    12    12    13    1
    13    13    14    1
    14    14    15   am
    15    15    16    2
    16    15    17    1
    17    17    18    1
    18    18    19    1
    19    19    20   ar
    20    20    21   ar
    21    21    22    1
    22    21    23   ar
    23    23    24   ar
    24    24    25   ar
    25    25    26   ar
    26    26    27    1
    27    27    28    1
    28    27    29    1
    29    27    30    1
    30    26    31   ar
    31    31    32   ar
    32    13    33    1
    33    10    34    1
    34    34    35    1
    35     6    36   ar
    36    36     3   ar
    37    35     7    1
    38    33    11    1
    39    32    19   ar
    40    32    23   ar
    41     1    37    1
    42     1    38    1
    43     1    39    1
    44     2    40    1
    45     2    41    1
    46     5    42    1
    47     7    43    1
    48     8    44    1
    49     8    45    1
    50     9    46    1
    51     9    47    1
    52    10    48    1
    53    12    49    1
    54    12    50    1
    55    13    51    1
    56    14    52    1
    57    17    53    1
    58    17    54    1
    59    18    55    1
    60    22    56    1
    61    22    57    1
    62    22    58    1
    63    24    59    1
    64    25    60    1
    65    31    61    1
    66    33    62    1
    67    33    63    1
    68    34    64    1
    69    34    65    1
    70    35    66    1
    71    35    67    1
