
     RDKit          3D

 48 51  0  0  0  0  0  0  0  0999 V2000
   -3.0155   -1.5834   -0.8771 C   0  0  0  0  0  0  0  0  0  0  0  0
   -2.0282   -1.0049    0.1129 C   0  0  1  0  0  0  0  0  0  0  0  0
   -0.6916   -1.5283   -0.2641 C   0  0  0  0  0  0  0  0  0  0  0  0
    0.4066   -0.7866   -0.5392 C   0  0  0  0  0  0  0  0  0  0  0  0
    1.6205   -1.3350   -0.8876 C   0  0  0  0  0  0  0  0  0  0  0  0
    2.7606   -0.4916   -1.1709 N   0  0  0  0  0  0  0  0  0  0  0  0
    3.6643   -0.1005   -0.1290 C   0  0  0  0  0  0  0  0  0  0  0  0
    3.3908   -0.5391    1.0175 O   0  0  0  0  0  0  0  0  0  0  0  0
    4.8171    0.7473   -0.3929 C   0  0  0  0  0  0  0  0  0  0  0  0
    5.6488    1.0896    0.6467 C   0  0  0  0  0  0  0  0  0  0  0  0
    6.7566    1.8909    0.4540 C   0  0  0  0  0  0  0  0  0  0  0  0
    7.0491    2.3676   -0.8066 C   0  0  0  0  0  0  0  0  0  0  0  0
    8.1287    3.1597   -1.0452 F   0  0  0  0  0  0  0  0  0  0  0  0
    6.1990    2.0096   -1.8318 C   0  0  0  0  0  0  0  0  0  0  0  0
    5.1183    1.2208   -1.6119 N   0  0  0  0  0  0  0  0  0  0  0  0
    1.7256   -2.6999   -0.9604 C   0  0  0  0  0  0  0  0  0  0  0  0
    0.6363   -3.4784   -0.6888 C   0  0  0  0  0  0  0  0  0  0  0  0
   -0.5681   -2.9051   -0.3421 C   0  0  0  0  0  0  0  0  0  0  0  0
   -1.6000   -3.7604   -0.0846 F   0  0  0  0  0  0  0  0  0  0  0  0
   -2.1004    0.4838    0.0357 C   0  0  0  0  0  0  0  0  0  0  0  0
   -3.3732    1.0828    0.4794 C   0  0  0  0  0  0  0  0  0  0  0  0
   -4.5052    1.1977   -0.5104 C   0  0  0  0  0  0  0  0  0  0  0  0
   -4.8358    2.5357    0.1787 C   0  0  0  0  0  0  0  0  0  0  0  0
   -3.3289    2.6085    0.4778 C   0  0  0  0  0  0  0  0  0  0  0  0
   -3.8531    0.4647    2.1071 S   0  0  0  0  0  0  0  0  0  0  0  0
   -3.0324   -1.0917    2.3278 C   0  0  0  0  0  0  0  0  0  0  0  0
   -3.2152   -1.7727    3.5613 N   0  0  0  0  0  0  0  0  0  0  0  0
   -2.3191   -1.5469    1.3997 N   0  0  0  0  0  0  0  0  0  0  0  0
   -3.4205   -0.8011   -1.5204 H   0  0  0  0  0  0  0  0  0  0  0  0
   -2.5142   -2.3041   -1.5807 H   0  0  0  0  0  0  0  0  0  0  0  0
   -3.7949   -2.1841   -0.3632 H   0  0  0  0  0  0  0  0  0  0  0  0
    0.3099    0.2883   -0.4782 H   0  0  0  0  0  0  0  0  0  0  0  0
    2.9497   -0.1501   -2.1383 H   0  0  0  0  0  0  0  0  0  0  0  0
    5.4766    0.7497    1.6596 H   0  0  0  0  0  0  0  0  0  0  0  0
    7.4167    2.1671    1.2585 H   0  0  0  0  0  0  0  0  0  0  0  0
    6.4332    2.3878   -2.8257 H   0  0  0  0  0  0  0  0  0  0  0  0
    2.6814   -3.1627   -1.2358 H   0  0  0  0  0  0  0  0  0  0  0  0
    0.7495   -4.5642   -0.7548 H   0  0  0  0  0  0  0  0  0  0  0  0
   -1.9572    0.7538   -1.0528 H   0  0  0  0  0  0  0  0  0  0  0  0
   -1.2701    0.9872    0.6028 H   0  0  0  0  0  0  0  0  0  0  0  0
   -4.1605    1.4513   -1.5266 H   0  0  0  0  0  0  0  0  0  0  0  0
   -5.3420    0.5058   -0.3994 H   0  0  0  0  0  0  0  0  0  0  0  0
   -5.3884    2.4159    1.1309 H   0  0  0  0  0  0  0  0  0  0  0  0
   -5.1758    3.3182   -0.5017 H   0  0  0  0  0  0  0  0  0  0  0  0
   -3.1072    3.0485    1.4658 H   0  0  0  0  0  0  0  0  0  0  0  0
   -2.7951    3.0572   -0.3699 H   0  0  0  0  0  0  0  0  0  0  0  0
   -4.1400   -2.2003    3.7620 H   0  0  0  0  0  0  0  0  0  0  0  0
   -2.4067   -1.8117    4.2121 H   0  0  0  0  0  0  0  0  0  0  0  0
  2  1  1  6
  2  3  1  0
  3  4  2  0
  4  5  1  0
  5  6  1  0
  6  7  1  0
  7  8  2  0
  7  9  1  0
  9 10  2  0
 10 11  1  0
 11 12  2  0
 12 13  1  0
 12 14  1  0
 14 15  2  0
  5 16  2  0
 16 17  1  0
 17 18  2  0
 18 19  1  0
  2 20  1  0
 20 21  1  0
 21 22  1  0
 22 23  1  0
 23 24  1  0
 21 25  1  0
 25 26  1  0
 26 27  1  0
 26 28  2  0
 28  2  1  0
 18  3  1  0
 24 21  1  0
 15  9  1  0
  1 29  1  0
  1 30  1  0
  1 31  1  0
  4 32  1  0
  6 33  1  0
 10 34  1  0
 11 35  1  0
 14 36  1  0
 16 37  1  0
 17 38  1  0
 20 39  1  0
 20 40  1  0
 22 41  1  0
 22 42  1  0
 23 43  1  0
 23 44  1  0
 24 45  1  0
 24 46  1  0
 27 47  1  0
 27 48  1  0
M  END
$$$$
