@<TRIPOS>MOLECULE
*****
 48 51 0 0 0
SMALL
GASTEIGER

@<TRIPOS>ATOM
      1 C          -3.0155   -1.5834   -0.8771 C.3     1  UNL1       -0.0354
      2 C          -2.0282   -1.0049    0.1129 C.3     1  UNL1        0.0903
      3 C          -0.6916   -1.5283   -0.2641 C.ar    1  UNL1        0.0167
      4 C           0.4066   -0.7866   -0.5392 C.ar    1  UNL1       -0.0323
      5 C           1.6205   -1.3350   -0.8876 C.ar    1  UNL1        0.0342
      6 N           2.7606   -0.4916   -1.1709 N.am    1  UNL1       -0.2802
      7 C           3.6643   -0.1005   -0.1290 C.2     1  UNL1        0.2666
      8 O           3.3908   -0.5391    1.0175 O.2     1  UNL1       -0.2682
      9 C           4.8171    0.7473   -0.3929 C.ar    1  UNL1        0.1258
     10 C           5.6488    1.0896    0.6467 C.ar    1  UNL1       -0.0285
     11 C           6.7566    1.8909    0.4540 C.ar    1  UNL1       -0.0228
     12 C           7.0491    2.3676   -0.8066 C.ar    1  UNL1        0.1414
     13 F           8.1287    3.1597   -1.0452 F       1  UNL1       -0.2039
     14 C           6.1990    2.0096   -1.8318 C.ar    1  UNL1        0.0636
     15 N           5.1183    1.2208   -1.6119 N.ar    1  UNL1       -0.2475
     16 C           1.7256   -2.6999   -0.9604 C.ar    1  UNL1       -0.0377
     17 C           0.6363   -3.4784   -0.6888 C.ar    1  UNL1       -0.0243
     18 C          -0.5681   -2.9051   -0.3421 C.ar    1  UNL1        0.1290
     19 F          -1.6000   -3.7604   -0.0846 F       1  UNL1       -0.2051
     20 C          -2.1004    0.4838    0.0357 C.3     1  UNL1       -0.0085
     21 C          -3.3732    1.0828    0.4794 C.3     1  UNL1        0.0263
     22 C          -4.5052    1.1977   -0.5104 C.3     1  UNL1       -0.0378
     23 C          -4.8358    2.5357    0.1787 C.3     1  UNL1       -0.0505
     24 C          -3.3289    2.6085    0.4778 C.3     1  UNL1       -0.0378
     25 S          -3.8531    0.4647    2.1071 S.3     1  UNL1       -0.0842
     26 C          -3.0324   -1.0917    2.3278 C.2     1  UNL1        0.1480
     27 N          -3.2152   -1.7727    3.5613 N.pl3   1  UNL1       -0.3380
     28 N          -2.3191   -1.5469    1.3997 N.2     1  UNL1       -0.2524
     29 H          -3.4205   -0.8011   -1.5204 H       1  UNL1        0.0256
     30 H          -2.5142   -2.3041   -1.5807 H       1  UNL1        0.0256
     31 H          -3.7949   -2.1841   -0.3632 H       1  UNL1        0.0256
     32 H           0.3099    0.2883   -0.4782 H       1  UNL1        0.0640
     33 H           2.9497   -0.1501   -2.1383 H       1  UNL1        0.1552
     34 H           5.4766    0.7497    1.6596 H       1  UNL1        0.0641
     35 H           7.4167    2.1671    1.2585 H       1  UNL1        0.0647
     36 H           6.4332    2.3878   -2.8257 H       1  UNL1        0.0859
     37 H           2.6814   -3.1627   -1.2358 H       1  UNL1        0.0637
     38 H           0.7495   -4.5642   -0.7548 H       1  UNL1        0.0647
     39 H          -1.9572    0.7538   -1.0528 H       1  UNL1        0.0305
     40 H          -1.2701    0.9872    0.6028 H       1  UNL1        0.0305
     41 H          -4.1605    1.4513   -1.5266 H       1  UNL1        0.0279
     42 H          -5.3420    0.5058   -0.3994 H       1  UNL1        0.0279
     43 H          -5.3884    2.4159    1.1309 H       1  UNL1        0.0266
     44 H          -5.1758    3.3182   -0.5017 H       1  UNL1        0.0266
     45 H          -3.1072    3.0485    1.4658 H       1  UNL1        0.0279
     46 H          -2.7951    3.0572   -0.3699 H       1  UNL1        0.0279
     47 H          -4.1400   -2.2003    3.7620 H       1  UNL1        0.1442
     48 H          -2.4067   -1.8117    4.2121 H       1  UNL1        0.1442
@<TRIPOS>BOND
     1     2     1    1
     2     2     3    1
     3     3     4   ar
     4     4     5   ar
     5     5     6    1
     6     6     7   am
     7     7     8    2
     8     7     9    1
     9     9    10   ar
    10    10    11   ar
    11    11    12   ar
    12    12    13    1
    13    12    14   ar
    14    14    15   ar
    15     5    16   ar
    16    16    17   ar
    17    17    18   ar
    18    18    19    1
    19     2    20    1
    20    20    21    1
    21    21    22    1
    22    22    23    1
    23    23    24    1
    24    21    25    1
    25    25    26    1
    26    26    27    1
    27    26    28    2
    28    28     2    1
    29    18     3   ar
    30    24    21    1
    31    15     9   ar
    32     1    29    1
    33     1    30    1
    34     1    31    1
    35     4    32    1
    36     6    33    1
    37    10    34    1
    38    11    35    1
    39    14    36    1
    40    16    37    1
    41    17    38    1
    42    20    39    1
    43    20    40    1
    44    22    41    1
    45    22    42    1
    46    23    43    1
    47    23    44    1
    48    24    45    1
    49    24    46    1
    50    27    47    1
    51    27    48    1
