
     RDKit          3D

 41 43  0  0  0  0  0  0  0  0999 V2000
    0.8290    4.1470    1.4614 C   0  0  0  0  0  0  0  0  0  0  0  0
    0.3754    3.8117    0.0763 C   0  0  0  0  0  0  0  0  0  0  0  0
   -0.3222    2.5510    0.0232 N   0  0  0  0  0  0  0  0  0  0  0  0
   -1.6432    2.4138    0.2111 C   0  0  0  0  0  0  0  0  0  0  0  0
   -1.9387    1.0933    0.0881 N   0  0  0  0  0  0  0  0  0  0  0  0
   -0.8387    0.3782   -0.1751 C   0  0  0  0  0  0  0  0  0  0  0  0
   -0.6111   -0.9611   -0.3784 C   0  0  0  0  0  0  0  0  0  0  0  0
   -1.6409   -1.9371   -0.3520 N   0  0  0  0  0  0  0  0  0  0  0  0
   -3.0157   -1.7185   -0.2435 C   0  0  0  0  0  0  0  0  0  0  0  0
   -3.7005   -2.4472    0.7111 C   0  0  0  0  0  0  0  0  0  0  0  0
   -5.0596   -2.3151    0.8805 C   0  0  0  0  0  0  0  0  0  0  0  0
   -5.7353   -1.4285    0.0674 C   0  0  0  0  0  0  0  0  0  0  0  0
   -5.0971   -0.6784   -0.9007 C   0  0  0  0  0  0  0  0  0  0  0  0
   -6.0316    0.4242   -1.8842 Cl  0  0  0  0  0  0  0  0  0  0  0  0
   -3.7241   -0.8508   -1.0300 C   0  0  0  0  0  0  0  0  0  0  0  0
    0.6766   -1.3175   -0.6190 N   0  0  0  0  0  0  0  0  0  0  0  0
    1.6962   -0.4474   -0.6643 C   0  0  0  0  0  0  0  0  0  0  0  0
    3.0213   -0.8651   -0.9104 N   0  0  0  0  0  0  0  0  0  0  0  0
    3.8446   -1.2786    0.1925 C   0  0  0  0  0  0  0  0  0  0  0  0
    5.2343   -1.6719   -0.1954 C   0  0  0  0  0  0  0  0  0  0  0  0
    5.9777   -2.0775    1.0049 N   0  0  0  0  0  0  0  0  0  0  0  0
    1.4349    0.8746   -0.4587 N   0  0  0  0  0  0  0  0  0  0  0  0
    0.1940    1.3279   -0.2134 C   0  0  0  0  0  0  0  0  0  0  0  0
    0.0527    4.1278    2.2338 H   0  0  0  0  0  0  0  0  0  0  0  0
    1.6355    3.4401    1.7300 H   0  0  0  0  0  0  0  0  0  0  0  0
    1.2654    5.1674    1.4567 H   0  0  0  0  0  0  0  0  0  0  0  0
    1.2998    3.6848   -0.5465 H   0  0  0  0  0  0  0  0  0  0  0  0
   -0.2021    4.6403   -0.3861 H   0  0  0  0  0  0  0  0  0  0  0  0
   -2.4039    3.1571    0.4253 H   0  0  0  0  0  0  0  0  0  0  0  0
   -1.3332   -2.9577   -0.4224 H   0  0  0  0  0  0  0  0  0  0  0  0
   -3.1901   -3.1578    1.3703 H   0  0  0  0  0  0  0  0  0  0  0  0
   -5.5997   -2.8960    1.6407 H   0  0  0  0  0  0  0  0  0  0  0  0
   -6.8058   -1.3095    0.1873 H   0  0  0  0  0  0  0  0  0  0  0  0
   -3.2690   -0.2527   -1.8221 H   0  0  0  0  0  0  0  0  0  0  0  0
    3.3910   -0.8723   -1.8679 H   0  0  0  0  0  0  0  0  0  0  0  0
    3.3330   -2.0822    0.7546 H   0  0  0  0  0  0  0  0  0  0  0  0
    3.9204   -0.4156    0.8963 H   0  0  0  0  0  0  0  0  0  0  0  0
    5.7627   -0.8872   -0.7596 H   0  0  0  0  0  0  0  0  0  0  0  0
    5.2061   -2.5600   -0.8681 H   0  0  0  0  0  0  0  0  0  0  0  0
    6.8258   -2.6250    0.7271 H   0  0  0  0  0  0  0  0  0  0  0  0
    6.1862   -1.2287    1.5651 H   0  0  0  0  0  0  0  0  0  0  0  0
  1  2  1  0
  2  3  1  0
  3  4  1  0
  4  5  2  0
  5  6  1  0
  6  7  2  0
  7  8  1  0
  8  9  1  0
  9 10  2  0
 10 11  1  0
 11 12  2  0
 12 13  1  0
 13 14  1  0
 13 15  2  0
  7 16  1  0
 16 17  2  0
 17 18  1  0
 18 19  1  0
 19 20  1  0
 20 21  1  0
 17 22  1  0
 22 23  2  0
 23  3  1  0
 23  6  1  0
 15  9  1  0
  1 24  1  0
  1 25  1  0
  1 26  1  0
  2 27  1  0
  2 28  1  0
  4 29  1  0
  8 30  1  0
 10 31  1  0
 11 32  1  0
 12 33  1  0
 15 34  1  0
 18 35  1  0
 19 36  1  0
 19 37  1  0
 20 38  1  0
 20 39  1  0
 21 40  1  0
 21 41  1  0
M  END
$$$$
