@<TRIPOS>MOLECULE
*****
 41 43 0 0 0
SMALL
GASTEIGER

@<TRIPOS>ATOM
      1 C           0.8290    4.1470    1.4614 C.3     1  UNL1       -0.0470
      2 C           0.3754    3.8117    0.0763 C.3     1  UNL1        0.0232
      3 N          -0.3222    2.5510    0.0232 N.ar    1  UNL1       -0.3151
      4 C          -1.6432    2.4138    0.2111 C.ar    1  UNL1        0.0983
      5 N          -1.9387    1.0933    0.0881 N.ar    1  UNL1       -0.2306
      6 C          -0.8387    0.3782   -0.1751 C.ar    1  UNL1        0.1479
      7 C          -0.6111   -0.9611   -0.3784 C.ar    1  UNL1        0.1558
      8 N          -1.6409   -1.9371   -0.3520 N.pl3   1  UNL1       -0.2975
      9 C          -3.0157   -1.7185   -0.2435 C.ar    1  UNL1        0.0338
     10 C          -3.7005   -2.4472    0.7111 C.ar    1  UNL1       -0.0404
     11 C          -5.0596   -2.3151    0.8805 C.ar    1  UNL1       -0.0586
     12 C          -5.7353   -1.4285    0.0674 C.ar    1  UNL1       -0.0433
     13 C          -5.0971   -0.6784   -0.9007 C.ar    1  UNL1        0.0427
     14 CL         -6.0316    0.4242   -1.8842 Cl      1  UNL1       -0.0835
     15 C          -3.7241   -0.8508   -1.0300 C.ar    1  UNL1       -0.0222
     16 N           0.6766   -1.3175   -0.6190 N.ar    1  UNL1       -0.1971
     17 C           1.6962   -0.4474   -0.6643 C.ar    1  UNL1        0.2189
     18 N           3.0213   -0.8651   -0.9104 N.pl3   1  UNL1       -0.3122
     19 C           3.8446   -1.2786    0.1925 C.3     1  UNL1        0.0241
     20 C           5.2343   -1.6719   -0.1954 C.3     1  UNL1        0.0087
     21 N           5.9777   -2.0775    1.0049 N.3     1  UNL1       -0.3285
     22 N           1.4349    0.8746   -0.4587 N.ar    1  UNL1       -0.1947
     23 C           0.1940    1.3279   -0.2134 C.ar    1  UNL1        0.1672
     24 H           0.0527    4.1278    2.2338 H       1  UNL1        0.0247
     25 H           1.6355    3.4401    1.7300 H       1  UNL1        0.0247
     26 H           1.2654    5.1674    1.4567 H       1  UNL1        0.0247
     27 H           1.2998    3.6848   -0.5465 H       1  UNL1        0.0490
     28 H          -0.2021    4.6403   -0.3861 H       1  UNL1        0.0490
     29 H          -2.4039    3.1571    0.4253 H       1  UNL1        0.1029
     30 H          -1.3332   -2.9577   -0.4224 H       1  UNL1        0.1536
     31 H          -3.1901   -3.1578    1.3703 H       1  UNL1        0.0636
     32 H          -5.5997   -2.8960    1.6407 H       1  UNL1        0.0619
     33 H          -6.8058   -1.3095    0.1873 H       1  UNL1        0.0632
     34 H          -3.2690   -0.2527   -1.8221 H       1  UNL1        0.0651
     35 H           3.3910   -0.8723   -1.8679 H       1  UNL1        0.1489
     36 H           3.3330   -2.0822    0.7546 H       1  UNL1        0.0474
     37 H           3.9204   -0.4156    0.8963 H       1  UNL1        0.0474
     38 H           5.7627   -0.8872   -0.7596 H       1  UNL1        0.0437
     39 H           5.2061   -2.5600   -0.8681 H       1  UNL1        0.0437
     40 H           6.8258   -2.6250    0.7271 H       1  UNL1        0.1183
     41 H           6.1862   -1.2287    1.5651 H       1  UNL1        0.1183
@<TRIPOS>BOND
     1     1     2    1
     2     2     3    1
     3     3     4   ar
     4     4     5   ar
     5     5     6   ar
     6     6     7   ar
     7     7     8    1
     8     8     9    1
     9     9    10   ar
    10    10    11   ar
    11    11    12   ar
    12    12    13   ar
    13    13    14    1
    14    13    15   ar
    15     7    16   ar
    16    16    17   ar
    17    17    18    1
    18    18    19    1
    19    19    20    1
    20    20    21    1
    21    17    22   ar
    22    22    23   ar
    23    23     3   ar
    24    23     6   ar
    25    15     9   ar
    26     1    24    1
    27     1    25    1
    28     1    26    1
    29     2    27    1
    30     2    28    1
    31     4    29    1
    32     8    30    1
    33    10    31    1
    34    11    32    1
    35    12    33    1
    36    15    34    1
    37    18    35    1
    38    19    36    1
    39    19    37    1
    40    20    38    1
    41    20    39    1
    42    21    40    1
    43    21    41    1
