
     RDKit          3D

 72 79  0  0  0  0  0  0  0  0999 V2000
   -4.9064   -2.8374   -3.1514 C   0  0  0  0  0  0  0  0  0  0  0  0
   -4.7321   -1.4772   -3.2931 C   0  0  0  0  0  0  0  0  0  0  0  0
   -4.8859   -0.6275   -2.2159 C   0  0  0  0  0  0  0  0  0  0  0  0
   -5.2167   -1.1014   -0.9684 C   0  0  0  0  0  0  0  0  0  0  0  0
   -5.3877   -0.2338    0.1879 C   0  0  0  0  0  0  0  0  0  0  0  0
   -6.5770   -0.1214    0.8688 C   0  0  0  0  0  0  0  0  0  0  0  0
   -6.7223    0.7082    1.9696 C   0  0  0  0  0  0  0  0  0  0  0  0
   -5.6237    1.4481    2.3927 C   0  0  0  0  0  0  0  0  0  0  0  0
   -5.7528    2.2753    3.4809 C   0  0  0  0  0  0  0  0  0  0  0  0
   -6.9520    2.3817    4.1569 C   0  0  0  0  0  0  0  0  0  0  0  0
   -8.0058    1.6530    3.7275 N   0  0  0  0  0  0  0  0  0  0  0  0
   -9.2509    1.6018    4.2278 C   0  0  0  0  0  0  0  0  0  0  0  0
   -9.9293    0.7335    3.4542 N   0  0  0  0  0  0  0  0  0  0  0  0
   -9.0959    0.2791    2.5109 N   0  0  0  0  0  0  0  0  0  0  0  0
   -7.8933    0.8455    2.6714 C   0  0  0  0  0  0  0  0  0  0  0  0
   -4.4639    1.3339    1.7229 N   0  0  0  0  0  0  0  0  0  0  0  0
   -4.3268    0.5181    0.6430 C   0  0  0  0  0  0  0  0  0  0  0  0
   -3.0673    0.4087   -0.0769 C   0  0  0  0  0  0  0  0  0  0  0  0
   -2.4453   -0.8181   -0.1188 C   0  0  0  0  0  0  0  0  0  0  0  0
   -1.2544   -0.9246   -0.8028 C   0  0  0  0  0  0  0  0  0  0  0  0
   -0.6742    0.1464   -1.4383 C   0  0  0  0  0  0  0  0  0  0  0  0
    0.6058    0.0878   -2.1907 C   0  0  0  0  0  0  0  0  0  0  0  0
    1.6813    0.3898   -1.3332 N   0  0  0  0  0  0  0  0  0  0  0  0
    1.9430   -0.4361   -0.2310 C   0  0  0  0  0  0  0  0  0  0  0  0
    3.4341   -0.5118    0.1366 C   0  0  0  0  0  0  0  0  0  0  0  0
    4.1936   -0.5089   -1.1593 C   0  0  0  0  0  0  0  0  0  0  0  0
    5.6241   -0.8051   -0.9206 C   0  0  0  0  0  0  0  0  0  0  0  0
    6.2699   -1.8431   -1.4884 N   0  0  0  0  0  0  0  0  0  0  0  0
    7.5322   -1.8235   -1.0726 N   0  0  0  0  0  0  0  0  0  0  0  0
    7.7010   -0.7914   -0.2505 C   0  0  0  0  0  0  0  0  0  0  0  0
    8.9455   -0.4381    0.4064 C   0  0  0  0  0  0  0  0  0  0  0  0
   10.0839   -1.1860    0.2085 C   0  0  0  0  0  0  0  0  0  0  0  0
   11.2757   -0.8780    0.8129 C   0  0  0  0  0  0  0  0  0  0  0  0
   11.3270    0.2056    1.6353 C   0  0  0  0  0  0  0  0  0  0  0  0
   10.1965    0.9429    1.8278 C   0  0  0  0  0  0  0  0  0  0  0  0
    9.0370    0.6293    1.2294 N   0  0  0  0  0  0  0  0  0  0  0  0
    6.5181   -0.1648   -0.1596 N   0  0  0  0  0  0  0  0  0  0  0  0
    4.0540    0.8839   -1.7384 C   0  0  0  0  0  0  0  0  0  0  0  0
    2.6208    1.3515   -1.7309 C   0  0  0  0  0  0  0  0  0  0  0  0
   -1.3385    1.3668   -1.3692 C   0  0  0  0  0  0  0  0  0  0  0  0
   -2.5238    1.5147   -0.6998 C   0  0  0  0  0  0  0  0  0  0  0  0
   -5.3902   -2.4757   -0.8367 C   0  0  0  0  0  0  0  0  0  0  0  0
   -5.2373   -3.3352   -1.9143 C   0  0  0  0  0  0  0  0  0  0  0  0
   -4.7752   -3.4578   -4.0236 H   0  0  0  0  0  0  0  0  0  0  0  0
   -4.4683   -1.0618   -4.2689 H   0  0  0  0  0  0  0  0  0  0  0  0
   -4.7519    0.4414   -2.3116 H   0  0  0  0  0  0  0  0  0  0  0  0
   -7.4293   -0.6948    0.5407 H   0  0  0  0  0  0  0  0  0  0  0  0
   -4.8823    2.8422    3.7916 H   0  0  0  0  0  0  0  0  0  0  0  0
   -7.0104    3.0398    5.0027 H   0  0  0  0  0  0  0  0  0  0  0  0
   -9.6899    2.1147    5.0653 H   0  0  0  0  0  0  0  0  0  0  0  0
   -2.8810   -1.6522    0.3662 H   0  0  0  0  0  0  0  0  0  0  0  0
   -0.7505   -1.8762   -0.8503 H   0  0  0  0  0  0  0  0  0  0  0  0
    0.5515    0.8673   -2.9803 H   0  0  0  0  0  0  0  0  0  0  0  0
    0.6772   -0.9022   -2.6955 H   0  0  0  0  0  0  0  0  0  0  0  0
    1.5466   -1.4882   -0.3410 H   0  0  0  0  0  0  0  0  0  0  0  0
    1.4456   -0.0262    0.6729 H   0  0  0  0  0  0  0  0  0  0  0  0
    3.5784   -1.4360    0.7252 H   0  0  0  0  0  0  0  0  0  0  0  0
    3.6612    0.4144    0.6775 H   0  0  0  0  0  0  0  0  0  0  0  0
    3.7360   -1.2146   -1.8515 H   0  0  0  0  0  0  0  0  0  0  0  0
   10.0441   -2.0459   -0.4443 H   0  0  0  0  0  0  0  0  0  0  0  0
   12.1564   -1.4922    0.6331 H   0  0  0  0  0  0  0  0  0  0  0  0
   12.2717    0.4592    2.1216 H   0  0  0  0  0  0  0  0  0  0  0  0
   10.2428    1.7973    2.4773 H   0  0  0  0  0  0  0  0  0  0  0  0
    6.2829    0.6881    0.4007 H   0  0  0  0  0  0  0  0  0  0  0  0
    4.6547    1.5515   -1.0856 H   0  0  0  0  0  0  0  0  0  0  0  0
    4.5054    0.9245   -2.7431 H   0  0  0  0  0  0  0  0  0  0  0  0
    2.5168    2.2536   -1.0740 H   0  0  0  0  0  0  0  0  0  0  0  0
    2.3791    1.7073   -2.7541 H   0  0  0  0  0  0  0  0  0  0  0  0
   -0.9103    2.2186   -1.8548 H   0  0  0  0  0  0  0  0  0  0  0  0
   -3.0691    2.4407   -0.6223 H   0  0  0  0  0  0  0  0  0  0  0  0
   -5.6501   -2.8768    0.1274 H   0  0  0  0  0  0  0  0  0  0  0  0
   -5.3721   -4.4027   -1.8122 H   0  0  0  0  0  0  0  0  0  0  0  0
  1  2  2  0
  2  3  1  0
  3  4  2  0
  4  5  1  0
  5  6  2  0
  6  7  1  0
  7  8  2  0
  8  9  1  0
  9 10  2  0
 10 11  1  0
 11 12  1  0
 12 13  2  0
 13 14  1  0
 14 15  2  0
  8 16  1  0
 16 17  2  0
 17 18  1  0
 18 19  2  0
 19 20  1  0
 20 21  2  0
 21 22  1  0
 22 23  1  0
 23 24  1  0
 24 25  1  0
 25 26  1  0
 26 27  1  0
 27 28  2  0
 28 29  1  0
 29 30  2  0
 30 31  1  0
 31 32  2  0
 32 33  1  0
 33 34  2  0
 34 35  1  0
 35 36  2  0
 30 37  1  0
 26 38  1  0
 38 39  1  0
 21 40  1  0
 40 41  2  0
  4 42  1  0
 42 43  2  0
 43  1  1  0
 17  5  1  0
 41 18  1  0
 15  7  1  0
 39 23  1  0
 15 11  1  0
 37 27  1  0
 36 31  1  0
  1 44  1  0
  2 45  1  0
  3 46  1  0
  6 47  1  0
  9 48  1  0
 10 49  1  0
 12 50  1  0
 19 51  1  0
 20 52  1  0
 22 53  1  0
 22 54  1  0
 24 55  1  0
 24 56  1  0
 25 57  1  0
 25 58  1  0
 26 59  1  0
 32 60  1  0
 33 61  1  0
 34 62  1  0
 35 63  1  0
 37 64  1  0
 38 65  1  0
 38 66  1  0
 39 67  1  0
 39 68  1  0
 40 69  1  0
 41 70  1  0
 42 71  1  0
 43 72  1  0
M  END
$$$$
