@<TRIPOS>MOLECULE
*****
 72 79 0 0 0
SMALL
GASTEIGER

@<TRIPOS>ATOM
      1 C          -4.9064   -2.8374   -3.1514 C.ar    1  UNL1       -0.0617
      2 C          -4.7321   -1.4772   -3.2931 C.ar    1  UNL1       -0.0612
      3 C          -4.8859   -0.6275   -2.2159 C.ar    1  UNL1       -0.0540
      4 C          -5.2167   -1.1014   -0.9684 C.ar    1  UNL1       -0.0158
      5 C          -5.3877   -0.2338    0.1879 C.ar    1  UNL1        0.0088
      6 C          -6.5770   -0.1214    0.8688 C.ar    1  UNL1       -0.0392
      7 C          -6.7223    0.7082    1.9696 C.ar    1  UNL1        0.0456
      8 C          -5.6237    1.4481    2.3927 C.ar    1  UNL1        0.0766
      9 C          -5.7528    2.2753    3.4809 C.ar    1  UNL1       -0.0190
     10 C          -6.9520    2.3817    4.1569 C.ar    1  UNL1        0.0147
     11 N          -8.0058    1.6530    3.7275 N.ar    1  UNL1       -0.2884
     12 C          -9.2509    1.6018    4.2278 C.ar    1  UNL1        0.1241
     13 N          -9.9293    0.7335    3.4542 N.ar    1  UNL1       -0.1372
     14 N          -9.0959    0.2791    2.5109 N.ar    1  UNL1       -0.1290
     15 C          -7.8933    0.8455    2.6714 C.ar    1  UNL1        0.1701
     16 N          -4.4639    1.3339    1.7229 N.ar    1  UNL1       -0.2459
     17 C          -4.3268    0.5181    0.6430 C.ar    1  UNL1        0.0794
     18 C          -3.0673    0.4087   -0.0769 C.ar    1  UNL1        0.0010
     19 C          -2.4453   -0.8181   -0.1188 C.ar    1  UNL1       -0.0522
     20 C          -1.2544   -0.9246   -0.8028 C.ar    1  UNL1       -0.0567
     21 C          -0.6742    0.1464   -1.4383 C.ar    1  UNL1       -0.0333
     22 C           0.6058    0.0878   -2.1907 C.3     1  UNL1        0.0240
     23 N           1.6813    0.3898   -1.3332 N.3     1  UNL1       -0.2981
     24 C           1.9430   -0.4361   -0.2310 C.3     1  UNL1       -0.0001
     25 C           3.4341   -0.5118    0.1366 C.3     1  UNL1       -0.0304
     26 C           4.1936   -0.5089   -1.1593 C.3     1  UNL1        0.0212
     27 C           5.6241   -0.8051   -0.9206 C.ar    1  UNL1        0.1344
     28 N           6.2699   -1.8431   -1.4884 N.ar    1  UNL1       -0.1339
     29 N           7.5322   -1.8235   -1.0726 N.ar    1  UNL1       -0.1278
     30 C           7.7010   -0.7914   -0.2505 C.ar    1  UNL1        0.1800
     31 C           8.9455   -0.4381    0.4064 C.ar    1  UNL1        0.1077
     32 C          10.0839   -1.1860    0.2085 C.ar    1  UNL1       -0.0326
     33 C          11.2757   -0.8780    0.8129 C.ar    1  UNL1       -0.0582
     34 C          11.3270    0.2056    1.6353 C.ar    1  UNL1       -0.0436
     35 C          10.1965    0.9429    1.8278 C.ar    1  UNL1        0.0284
     36 N           9.0370    0.6293    1.2294 N.ar    1  UNL1       -0.2519
     37 N           6.5181   -0.1648   -0.1596 N.ar    1  UNL1       -0.3237
     38 C           4.0540    0.8839   -1.7384 C.3     1  UNL1       -0.0304
     39 C           2.6208    1.3515   -1.7309 C.3     1  UNL1       -0.0001
     40 C          -1.3385    1.3668   -1.3692 C.ar    1  UNL1       -0.0567
     41 C          -2.5238    1.5147   -0.6998 C.ar    1  UNL1       -0.0522
     42 C          -5.3902   -2.4757   -0.8367 C.ar    1  UNL1       -0.0540
     43 C          -5.2373   -3.3352   -1.9143 C.ar    1  UNL1       -0.0612
     44 H          -4.7752   -3.4578   -4.0236 H       1  UNL1        0.0618
     45 H          -4.4683   -1.0618   -4.2689 H       1  UNL1        0.0618
     46 H          -4.7519    0.4414   -2.3116 H       1  UNL1        0.0624
     47 H          -7.4293   -0.6948    0.5407 H       1  UNL1        0.0632
     48 H          -4.8823    2.8422    3.7916 H       1  UNL1        0.0654
     49 H          -7.0104    3.0398    5.0027 H       1  UNL1        0.0814
     50 H          -9.6899    2.1147    5.0653 H       1  UNL1        0.1051
     51 H          -2.8810   -1.6522    0.3662 H       1  UNL1        0.0624
     52 H          -0.7505   -1.8762   -0.8503 H       1  UNL1        0.0621
     53 H           0.5515    0.8673   -2.9803 H       1  UNL1        0.0476
     54 H           0.6772   -0.9022   -2.6955 H       1  UNL1        0.0476
     55 H           1.5466   -1.4882   -0.3410 H       1  UNL1        0.0427
     56 H           1.4456   -0.0262    0.6729 H       1  UNL1        0.0427
     57 H           3.5784   -1.4360    0.7252 H       1  UNL1        0.0284
     58 H           3.6612    0.4144    0.6775 H       1  UNL1        0.0284
     59 H           3.7360   -1.2146   -1.8515 H       1  UNL1        0.0380
     60 H          10.0441   -2.0459   -0.4443 H       1  UNL1        0.0640
     61 H          12.1564   -1.4922    0.6331 H       1  UNL1        0.0619
     62 H          12.2717    0.4592    2.1216 H       1  UNL1        0.0633
     63 H          10.2428    1.7973    2.4773 H       1  UNL1        0.0830
     64 H           6.2829    0.6881    0.4007 H       1  UNL1        0.1686
     65 H           4.6547    1.5515   -1.0856 H       1  UNL1        0.0284
     66 H           4.5054    0.9245   -2.7431 H       1  UNL1        0.0284
     67 H           2.5168    2.2536   -1.0740 H       1  UNL1        0.0427
     68 H           2.3791    1.7073   -2.7541 H       1  UNL1        0.0427
     69 H          -0.9103    2.2186   -1.8548 H       1  UNL1        0.0621
     70 H          -3.0691    2.4407   -0.6223 H       1  UNL1        0.0624
     71 H          -5.6501   -2.8768    0.1274 H       1  UNL1        0.0624
     72 H          -5.3721   -4.4027   -1.8122 H       1  UNL1        0.0618
@<TRIPOS>BOND
     1     1     2   ar
     2     2     3   ar
     3     3     4   ar
     4     4     5    1
     5     5     6   ar
     6     6     7   ar
     7     7     8   ar
     8     8     9   ar
     9     9    10   ar
    10    10    11   ar
    11    11    12   ar
    12    12    13   ar
    13    13    14   ar
    14    14    15   ar
    15     8    16   ar
    16    16    17   ar
    17    17    18    1
    18    18    19   ar
    19    19    20   ar
    20    20    21   ar
    21    21    22    1
    22    22    23    1
    23    23    24    1
    24    24    25    1
    25    25    26    1
    26    26    27    1
    27    27    28   ar
    28    28    29   ar
    29    29    30   ar
    30    30    31    1
    31    31    32   ar
    32    32    33   ar
    33    33    34   ar
    34    34    35   ar
    35    35    36   ar
    36    30    37   ar
    37    26    38    1
    38    38    39    1
    39    21    40   ar
    40    40    41   ar
    41     4    42   ar
    42    42    43   ar
    43    43     1   ar
    44    17     5   ar
    45    41    18   ar
    46    15     7   ar
    47    39    23    1
    48    15    11   ar
    49    37    27   ar
    50    36    31   ar
    51     1    44    1
    52     2    45    1
    53     3    46    1
    54     6    47    1
    55     9    48    1
    56    10    49    1
    57    12    50    1
    58    19    51    1
    59    20    52    1
    60    22    53    1
    61    22    54    1
    62    24    55    1
    63    24    56    1
    64    25    57    1
    65    25    58    1
    66    26    59    1
    67    32    60    1
    68    33    61    1
    69    34    62    1
    70    35    63    1
    71    37    64    1
    72    38    65    1
    73    38    66    1
    74    39    67    1
    75    39    68    1
    76    40    69    1
    77    41    70    1
    78    42    71    1
    79    43    72    1
