
     RDKit          3D

 58 63  0  0  0  0  0  0  0  0999 V2000
    5.1980    0.0265    1.4052 C   0  0  0  0  0  0  0  0  0  0  0  0
    4.5377   -1.2061    1.0184 N   0  0  0  0  0  0  0  0  0  0  0  0
    5.5669   -2.1250    0.5708 C   0  0  0  0  0  0  0  0  0  0  0  0
    3.6348   -0.9990   -0.0964 C   0  0  0  0  0  0  0  0  0  0  0  0
    2.4458   -0.1630    0.2687 C   0  0  0  0  0  0  0  0  0  0  0  0
    1.7381   -0.7769    1.2626 O   0  0  0  0  0  0  0  0  0  0  0  0
    1.6552    0.1345   -0.9934 C   0  0  0  0  0  0  0  0  0  0  0  0
    0.4953    0.8964   -0.6856 N   0  0  0  0  0  0  0  0  0  0  0  0
    0.6311    2.2654   -0.5644 C   0  0  0  0  0  0  0  0  0  0  0  0
    1.7005    3.1423   -0.7204 C   0  0  0  0  0  0  0  0  0  0  0  0
    1.5828    4.4984   -0.5389 C   0  0  0  0  0  0  0  0  0  0  0  0
    0.3790    5.0502   -0.1891 C   0  0  0  0  0  0  0  0  0  0  0  0
   -0.7016    4.1774   -0.0297 C   0  0  0  0  0  0  0  0  0  0  0  0
   -0.5503    2.8256   -0.2185 C   0  0  0  0  0  0  0  0  0  0  0  0
   -1.4611    1.7915   -0.1174 C   0  0  0  0  0  0  0  0  0  0  0  0
   -2.8004    1.8152    0.2279 C   0  0  0  0  0  0  0  0  0  0  0  0
   -3.5190    0.6506    0.2867 C   0  0  0  0  0  0  0  0  0  0  0  0
   -2.8750   -0.5329   -0.0079 C   0  0  0  0  0  0  0  0  0  0  0  0
   -3.3216   -1.8423   -0.0608 C   0  0  0  0  0  0  0  0  0  0  0  0
   -4.5422   -2.4329    0.1876 C   0  0  0  0  0  0  0  0  0  0  0  0
   -4.6817   -3.8042    0.0538 C   0  0  0  0  0  0  0  0  0  0  0  0
   -3.6185   -4.5824   -0.3230 C   0  0  0  0  0  0  0  0  0  0  0  0
   -2.4164   -3.9371   -0.5595 C   0  0  0  0  0  0  0  0  0  0  0  0
   -2.2414   -2.5789   -0.4372 C   0  0  0  0  0  0  0  0  0  0  0  0
   -1.1466   -1.8000   -0.6239 N   0  0  0  0  0  0  0  0  0  0  0  0
    0.0676   -2.3632   -1.1120 C   0  0  0  0  0  0  0  0  0  0  0  0
   -1.5057   -0.5549   -0.3646 C   0  0  0  0  0  0  0  0  0  0  0  0
   -0.7773    0.6344   -0.4150 C   0  0  0  0  0  0  0  0  0  0  0  0
   -4.8763    0.9578    0.6607 C   0  0  0  0  0  0  0  0  0  0  0  0
   -5.8879    0.2775    0.8446 O   0  0  0  0  0  0  0  0  0  0  0  0
   -4.9443    2.3936    0.8277 N   0  0  0  0  0  0  0  0  0  0  0  0
   -3.6715    2.9768    0.5856 C   0  0  0  0  0  0  0  0  0  0  0  0
    6.0481   -0.2536    2.0591 H   0  0  0  0  0  0  0  0  0  0  0  0
    5.6150    0.5147    0.5009 H   0  0  0  0  0  0  0  0  0  0  0  0
    4.4858    0.7002    1.9257 H   0  0  0  0  0  0  0  0  0  0  0  0
    6.0154   -2.6821    1.4181 H   0  0  0  0  0  0  0  0  0  0  0  0
    6.4141   -1.5774    0.0887 H   0  0  0  0  0  0  0  0  0  0  0  0
    5.1911   -2.8292   -0.1959 H   0  0  0  0  0  0  0  0  0  0  0  0
    4.1877   -0.6176   -0.9761 H   0  0  0  0  0  0  0  0  0  0  0  0
    3.2604   -2.0060   -0.3829 H   0  0  0  0  0  0  0  0  0  0  0  0
    2.7840    0.8242    0.7276 H   0  0  0  0  0  0  0  0  0  0  0  0
    2.2107   -1.5224    1.7071 H   0  0  0  0  0  0  0  0  0  0  0  0
    1.6913   -0.6607   -1.6881 H   0  0  0  0  0  0  0  0  0  0  0  0
    2.3839    0.8640   -1.5989 H   0  0  0  0  0  0  0  0  0  0  0  0
    2.6551    2.7619   -0.9902 H   0  0  0  0  0  0  0  0  0  0  0  0
    2.4380    5.1428   -0.6703 H   0  0  0  0  0  0  0  0  0  0  0  0
    0.2824    6.1089   -0.0465 H   0  0  0  0  0  0  0  0  0  0  0  0
   -1.6252    4.6403    0.2416 H   0  0  0  0  0  0  0  0  0  0  0  0
   -5.4111   -1.9175    0.4822 H   0  0  0  0  0  0  0  0  0  0  0  0
   -5.6479   -4.2521    0.2524 H   0  0  0  0  0  0  0  0  0  0  0  0
   -3.7382   -5.6642   -0.4257 H   0  0  0  0  0  0  0  0  0  0  0  0
   -1.5791   -4.5615   -0.8525 H   0  0  0  0  0  0  0  0  0  0  0  0
   -0.1060   -3.4771   -1.4181 H   0  0  0  0  0  0  0  0  0  0  0  0
    0.9106   -2.4450   -0.4741 H   0  0  0  0  0  0  0  0  0  0  0  0
    0.2170   -1.9704   -2.1730 H   0  0  0  0  0  0  0  0  0  0  0  0
   -5.7932    2.9624    1.0897 H   0  0  0  0  0  0  0  0  0  0  0  0
   -3.2229    3.4234    1.5088 H   0  0  0  0  0  0  0  0  0  0  0  0
   -3.7610    3.6786   -0.2521 H   0  0  0  0  0  0  0  0  0  0  0  0
  1  2  1  0
  2  3  1  0
  2  4  1  0
  4  5  1  0
  5  6  1  0
  5  7  1  0
  7  8  1  0
  8  9  1  0
  9 10  2  0
 10 11  1  0
 11 12  2  0
 12 13  1  0
 13 14  2  0
 14 15  1  0
 15 16  2  0
 16 17  1  0
 17 18  2  0
 18 19  1  0
 19 20  2  0
 20 21  1  0
 21 22  2  0
 22 23  1  0
 23 24  2  0
 24 25  1  0
 25 26  1  0
 25 27  1  0
 27 28  2  0
 17 29  1  0
 29 30  2  0
 29 31  1  0
 31 32  1  0
 28  8  1  0
 14  9  1  0
 28 15  1  0
 32 16  1  0
 27 18  1  0
 24 19  1  0
  1 33  1  0
  1 34  1  0
  1 35  1  0
  3 36  1  0
  3 37  1  0
  3 38  1  0
  4 39  1  0
  4 40  1  0
  5 41  1  0
  6 42  1  0
  7 43  1  0
  7 44  1  0
 10 45  1  0
 11 46  1  0
 12 47  1  0
 13 48  1  0
 20 49  1  0
 21 50  1  0
 22 51  1  0
 23 52  1  0
 26 53  1  0
 26 54  1  0
 26 55  1  0
 31 56  1  0
 32 57  1  0
 32 58  1  0
M  END
$$$$
