@<TRIPOS>MOLECULE
*****
 58 63 0 0 0
SMALL
GASTEIGER

@<TRIPOS>ATOM
      1 C           5.1980    0.0265    1.4052 C.3     1  UNL1       -0.0130
      2 N           4.5377   -1.2061    1.0184 N.3     1  UNL1       -0.3059
      3 C           5.5669   -2.1250    0.5708 C.3     1  UNL1       -0.0130
      4 C           3.6348   -0.9990   -0.0964 C.3     1  UNL1        0.0260
      5 C           2.4458   -0.1630    0.2687 C.3     1  UNL1        0.0857
      6 O           1.7381   -0.7769    1.2626 O.3     1  UNL1       -0.3888
      7 C           1.6552    0.1345   -0.9934 C.3     1  UNL1        0.0511
      8 N           0.4953    0.8964   -0.6856 N.ar    1  UNL1       -0.3356
      9 C           0.6311    2.2654   -0.5644 C.ar    1  UNL1        0.0502
     10 C           1.7005    3.1423   -0.7204 C.ar    1  UNL1       -0.0376
     11 C           1.5828    4.4984   -0.5389 C.ar    1  UNL1       -0.0598
     12 C           0.3790    5.0502   -0.1891 C.ar    1  UNL1       -0.0611
     13 C          -0.7016    4.1774   -0.0297 C.ar    1  UNL1       -0.0520
     14 C          -0.5503    2.8256   -0.2185 C.ar    1  UNL1        0.0080
     15 C          -1.4611    1.7915   -0.1174 C.ar    1  UNL1        0.0150
     16 C          -2.8004    1.8152    0.2279 C.ar    1  UNL1       -0.0078
     17 C          -3.5190    0.6506    0.2867 C.ar    1  UNL1        0.0518
     18 C          -2.8750   -0.5329   -0.0079 C.ar    1  UNL1        0.0220
     19 C          -3.3216   -1.8423   -0.0608 C.ar    1  UNL1        0.0084
     20 C          -4.5422   -2.4329    0.1876 C.ar    1  UNL1       -0.0520
     21 C          -4.6817   -3.8042    0.0538 C.ar    1  UNL1       -0.0611
     22 C          -3.6185   -4.5824   -0.3230 C.ar    1  UNL1       -0.0598
     23 C          -2.4164   -3.9371   -0.5595 C.ar    1  UNL1       -0.0376
     24 C          -2.2414   -2.5789   -0.4372 C.ar    1  UNL1        0.0499
     25 N          -1.1466   -1.8000   -0.6239 N.ar    1  UNL1       -0.3413
     26 C           0.0676   -2.3632   -1.1120 C.3     1  UNL1        0.0125
     27 C          -1.5057   -0.5549   -0.3646 C.ar    1  UNL1        0.0750
     28 C          -0.7773    0.6344   -0.4150 C.ar    1  UNL1        0.0750
     29 C          -4.8763    0.9578    0.6607 C.2     1  UNL1        0.2453
     30 O          -5.8879    0.2775    0.8446 O.2     1  UNL1       -0.2702
     31 N          -4.9443    2.3936    0.8277 N.am    1  UNL1       -0.3072
     32 C          -3.6715    2.9768    0.5856 C.3     1  UNL1        0.0385
     33 H           6.0481   -0.2536    2.0591 H       1  UNL1        0.0391
     34 H           5.6150    0.5147    0.5009 H       1  UNL1        0.0391
     35 H           4.4858    0.7002    1.9257 H       1  UNL1        0.0391
     36 H           6.0154   -2.6821    1.4181 H       1  UNL1        0.0391
     37 H           6.4141   -1.5774    0.0887 H       1  UNL1        0.0391
     38 H           5.1911   -2.8292   -0.1959 H       1  UNL1        0.0391
     39 H           4.1877   -0.6176   -0.9761 H       1  UNL1        0.0452
     40 H           3.2604   -2.0060   -0.3829 H       1  UNL1        0.0452
     41 H           2.7840    0.8242    0.7276 H       1  UNL1        0.0624
     42 H           2.2107   -1.5224    1.7071 H       1  UNL1        0.2099
     43 H           1.6913   -0.6607   -1.6881 H       1  UNL1        0.0518
     44 H           2.3839    0.8640   -1.5989 H       1  UNL1        0.0518
     45 H           2.6551    2.7619   -0.9902 H       1  UNL1        0.0638
     46 H           2.4380    5.1428   -0.6703 H       1  UNL1        0.0618
     47 H           0.2824    6.1089   -0.0465 H       1  UNL1        0.0618
     48 H          -1.6252    4.6403    0.2416 H       1  UNL1        0.0624
     49 H          -5.4111   -1.9175    0.4822 H       1  UNL1        0.0624
     50 H          -5.6479   -4.2521    0.2524 H       1  UNL1        0.0618
     51 H          -3.7382   -5.6642   -0.4257 H       1  UNL1        0.0618
     52 H          -1.5791   -4.5615   -0.8525 H       1  UNL1        0.0638
     53 H          -0.1060   -3.4771   -1.4181 H       1  UNL1        0.0456
     54 H           0.9106   -2.4450   -0.4741 H       1  UNL1        0.0456
     55 H           0.2170   -1.9704   -2.1730 H       1  UNL1        0.0456
     56 H          -5.7932    2.9624    1.0897 H       1  UNL1        0.1493
     57 H          -3.2229    3.4234    1.5088 H       1  UNL1        0.0512
     58 H          -3.7610    3.6786   -0.2521 H       1  UNL1        0.0512
@<TRIPOS>BOND
     1     1     2    1
     2     2     3    1
     3     2     4    1
     4     4     5    1
     5     5     6    1
     6     5     7    1
     7     7     8    1
     8     8     9   ar
     9     9    10   ar
    10    10    11   ar
    11    11    12   ar
    12    12    13   ar
    13    13    14   ar
    14    14    15   ar
    15    15    16   ar
    16    16    17   ar
    17    17    18   ar
    18    18    19   ar
    19    19    20   ar
    20    20    21   ar
    21    21    22   ar
    22    22    23   ar
    23    23    24   ar
    24    24    25   ar
    25    25    26    1
    26    25    27   ar
    27    27    28   ar
    28    17    29    1
    29    29    30    2
    30    29    31   am
    31    31    32    1
    32    28     8   ar
    33    14     9   ar
    34    28    15   ar
    35    32    16    1
    36    27    18   ar
    37    24    19   ar
    38     1    33    1
    39     1    34    1
    40     1    35    1
    41     3    36    1
    42     3    37    1
    43     3    38    1
    44     4    39    1
    45     4    40    1
    46     5    41    1
    47     6    42    1
    48     7    43    1
    49     7    44    1
    50    10    45    1
    51    11    46    1
    52    12    47    1
    53    13    48    1
    54    20    49    1
    55    21    50    1
    56    22    51    1
    57    23    52    1
    58    26    53    1
    59    26    54    1
    60    26    55    1
    61    31    56    1
    62    32    57    1
    63    32    58    1
