@<TRIPOS>MOLECULE
*****
 53 55 0 0 0
SMALL
GASTEIGER

@<TRIPOS>ATOM
      1 C          -3.5503    2.9658    2.7125 C.3     1  UNL1       -0.0266
      2 C          -3.0569    2.1944    1.4951 C.3     1  UNL1        0.1492
      3 C          -2.1457    1.0439    1.6956 C.2     1  UNL1        0.1871
      4 O          -1.8218    0.8653    2.8876 O.2     1  UNL1       -0.2923
      5 C          -1.6395    0.1816    0.6286 C.3     1  UNL1        0.0884
      6 C          -2.5254   -0.9045    0.1211 C.3     1  UNL1       -0.0022
      7 C          -3.8194   -0.5415   -0.4569 C.ar    1  UNL1       -0.0452
      8 C          -4.9837   -0.6212    0.2695 C.ar    1  UNL1       -0.0585
      9 C          -6.2138   -0.2689   -0.2733 C.ar    1  UNL1       -0.0615
     10 C          -6.2919    0.1723   -1.5627 C.ar    1  UNL1       -0.0617
     11 C          -5.1358    0.2648   -2.3228 C.ar    1  UNL1       -0.0615
     12 C          -3.9219   -0.0910   -1.7637 C.ar    1  UNL1       -0.0585
     13 N          -0.4606   -0.5899    1.1572 N.am    1  UNL1       -0.3037
     14 C           0.8126   -0.4570    0.6113 C.2     1  UNL1        0.2362
     15 O           0.9174    0.3549   -0.3607 O.2     1  UNL1       -0.2737
     16 CA          2.0259   -1.1584    1.0505 C.3     1  UNL1        0.1228
     17 C           2.3484   -0.9395    2.5084 C.3     1  UNL1        0.0711
     18 O           2.6509    0.3867    2.7817 O.3     1  UNL1       -0.3927
     19 N           3.1805   -0.7757    0.2153 N.am    1  UNL1       -0.2969
     20 C           3.8755   -1.7434   -0.5332 C.2     1  UNL1        0.2611
     21 O           3.5301   -2.9458   -0.4988 O.2     1  UNL1       -0.2686
     22 CA          5.0195   -1.3486   -1.3657 C.ar    1  UNL1        0.1044
     23 C           5.4671   -0.0632   -1.4902 C.ar    1  UNL1       -0.0330
     24 C           6.5439    0.2419   -2.2836 C.ar    1  UNL1       -0.0545
     25 C           7.1805   -0.7586   -2.9619 C.ar    1  UNL1        0.0028
     26 C           6.7122   -2.0579   -2.8238 C.ar    1  UNL1        0.2493
     27 O           7.3309   -2.9656   -3.4723 O.2     1  UNL1       -0.2679
     28 N           5.6747   -2.3286   -2.0551 N.ar    1  UNL1       -0.3185
     29 C          -2.6672    3.0894    0.3659 C.3     1  UNL1        0.0847
     30 O          -3.9120    2.2826    0.3952 O.3     1  UNL1       -0.3605
     31 H          -2.7651    3.7706    2.8772 H       1  UNL1        0.0262
     32 H          -3.6169    2.3823    3.6251 H       1  UNL1        0.0262
     33 H          -4.4780    3.5310    2.4893 H       1  UNL1        0.0262
     34 H          -1.3163    0.8188   -0.2168 H       1  UNL1        0.0581
     35 H          -2.6827   -1.7024    0.9237 H       1  UNL1        0.0335
     36 H          -1.9587   -1.5099   -0.6612 H       1  UNL1        0.0335
     37 H          -5.0089   -0.9634    1.3001 H       1  UNL1        0.0620
     38 H          -7.1299   -0.3375    0.3025 H       1  UNL1        0.0618
     39 H          -7.2702    0.4434   -1.9607 H       1  UNL1        0.0618
     40 H          -5.2313    0.6150   -3.3348 H       1  UNL1        0.0618
     41 H          -3.0530    0.0010   -2.3994 H       1  UNL1        0.0620
     42 H          -0.6240   -1.2296    1.9462 H       1  UNL1        0.1495
     43 HA          1.8658   -2.2429    0.9068 H       1  UNL1        0.0618
     44 H1          1.5478   -1.3460    3.1171 H       1  UNL1        0.0580
     45 H2          3.2697   -1.5301    2.7185 H       1  UNL1        0.0580
     46 H           3.5777    0.5334    2.4364 H       1  UNL1        0.2095
     47 H           3.4868    0.2142    0.1764 H       1  UNL1        0.1499
     48 H           4.9574    0.7373   -0.9473 H       1  UNL1        0.0640
     49 H           6.8752    1.2873   -2.3574 H       1  UNL1        0.0620
     50 H           8.0302   -0.5196   -3.5883 H       1  UNL1        0.0671
     51 H           5.3379   -3.3182   -1.9639 H       1  UNL1        0.1690
     52 H          -2.0658    2.7086   -0.4918 H       1  UNL1        0.0593
     53 H          -2.8721    4.1725    0.4313 H       1  UNL1        0.0593
@<TRIPOS>BOND
     1     2     1    1
     2     2     3    1
     3     3     4    2
     4     3     5    1
     5     5     6    1
     6     6     7    1
     7     7     8   ar
     8     8     9   ar
     9     9    10   ar
    10    10    11   ar
    11    11    12   ar
    12     5    13    1
    13    13    14   am
    14    14    15    2
    15    14    16    1
    16    16    17    1
    17    17    18    1
    18    16    19    1
    19    19    20   am
    20    20    21    2
    21    20    22    1
    22    22    23   ar
    23    23    24   ar
    24    24    25   ar
    25    25    26   ar
    26    26    27    2
    27    26    28   ar
    28     2    29    1
    29    29    30    1
    30    30     2    1
    31    12     7   ar
    32    28    22   ar
    33     1    31    1
    34     1    32    1
    35     1    33    1
    36     5    34    1
    37     6    35    1
    38     6    36    1
    39     8    37    1
    40     9    38    1
    41    10    39    1
    42    11    40    1
    43    12    41    1
    44    13    42    1
    45    16    43    1
    46    17    44    1
    47    17    45    1
    48    18    46    1
    49    19    47    1
    50    23    48    1
    51    24    49    1
    52    25    50    1
    53    28    51    1
    54    29    52    1
    55    29    53    1
