
     RDKit          3D

 53 55  0  0  0  0  0  0  0  0999 V2000
   -3.5503    2.9658    2.7125 C   0  0  0  0  0  0  0  0  0  0  0  0
   -3.0569    2.1944    1.4951 C   0  0  2  0  0  0  0  0  0  0  0  0
   -2.1457    1.0439    1.6956 C   0  0  0  0  0  0  0  0  0  0  0  0
   -1.8218    0.8653    2.8876 O   0  0  0  0  0  0  0  0  0  0  0  0
   -1.6395    0.1816    0.6286 C   0  0  2  0  0  0  0  0  0  0  0  0
   -2.5254   -0.9045    0.1211 C   0  0  0  0  0  0  0  0  0  0  0  0
   -3.8194   -0.5415   -0.4569 C   0  0  0  0  0  0  0  0  0  0  0  0
   -4.9837   -0.6212    0.2695 C   0  0  0  0  0  0  0  0  0  0  0  0
   -6.2138   -0.2689   -0.2733 C   0  0  0  0  0  0  0  0  0  0  0  0
   -6.2919    0.1723   -1.5627 C   0  0  0  0  0  0  0  0  0  0  0  0
   -5.1358    0.2648   -2.3228 C   0  0  0  0  0  0  0  0  0  0  0  0
   -3.9219   -0.0910   -1.7637 C   0  0  0  0  0  0  0  0  0  0  0  0
   -0.4606   -0.5899    1.1572 N   0  0  0  0  0  0  0  0  0  0  0  0
    0.8126   -0.4570    0.6113 C   0  0  0  0  0  0  0  0  0  0  0  0
    0.9174    0.3549   -0.3607 O   0  0  0  0  0  0  0  0  0  0  0  0
    2.0259   -1.1584    1.0505 C   0  0  2  0  0  0  0  0  0  0  0  0
    2.3484   -0.9395    2.5084 C   0  0  0  0  0  0  0  0  0  0  0  0
    2.6509    0.3867    2.7817 O   0  0  0  0  0  0  0  0  0  0  0  0
    3.1805   -0.7757    0.2153 N   0  0  0  0  0  0  0  0  0  0  0  0
    3.8755   -1.7434   -0.5332 C   0  0  0  0  0  0  0  0  0  0  0  0
    3.5301   -2.9458   -0.4988 O   0  0  0  0  0  0  0  0  0  0  0  0
    5.0195   -1.3486   -1.3657 C   0  0  0  0  0  0  0  0  0  0  0  0
    5.4671   -0.0632   -1.4902 C   0  0  0  0  0  0  0  0  0  0  0  0
    6.5439    0.2419   -2.2836 C   0  0  0  0  0  0  0  0  0  0  0  0
    7.1805   -0.7586   -2.9619 C   0  0  0  0  0  0  0  0  0  0  0  0
    6.7122   -2.0579   -2.8238 C   0  0  0  0  0  0  0  0  0  0  0  0
    7.3309   -2.9656   -3.4723 O   0  0  0  0  0  0  0  0  0  0  0  0
    5.6747   -2.3286   -2.0551 N   0  0  0  0  0  0  0  0  0  0  0  0
   -2.6672    3.0894    0.3659 C   0  0  0  0  0  0  0  0  0  0  0  0
   -3.9120    2.2826    0.3952 O   0  0  0  0  0  0  0  0  0  0  0  0
   -2.7651    3.7706    2.8772 H   0  0  0  0  0  0  0  0  0  0  0  0
   -3.6169    2.3823    3.6251 H   0  0  0  0  0  0  0  0  0  0  0  0
   -4.4780    3.5310    2.4893 H   0  0  0  0  0  0  0  0  0  0  0  0
   -1.3163    0.8188   -0.2168 H   0  0  0  0  0  0  0  0  0  0  0  0
   -2.6827   -1.7024    0.9237 H   0  0  0  0  0  0  0  0  0  0  0  0
   -1.9587   -1.5099   -0.6612 H   0  0  0  0  0  0  0  0  0  0  0  0
   -5.0089   -0.9634    1.3001 H   0  0  0  0  0  0  0  0  0  0  0  0
   -7.1299   -0.3375    0.3025 H   0  0  0  0  0  0  0  0  0  0  0  0
   -7.2702    0.4434   -1.9607 H   0  0  0  0  0  0  0  0  0  0  0  0
   -5.2313    0.6150   -3.3348 H   0  0  0  0  0  0  0  0  0  0  0  0
   -3.0530    0.0010   -2.3994 H   0  0  0  0  0  0  0  0  0  0  0  0
   -0.6240   -1.2296    1.9462 H   0  0  0  0  0  0  0  0  0  0  0  0
    1.8658   -2.2429    0.9068 H   0  0  0  0  0  0  0  0  0  0  0  0
    1.5478   -1.3460    3.1171 H   0  0  0  0  0  0  0  0  0  0  0  0
    3.2697   -1.5301    2.7185 H   0  0  0  0  0  0  0  0  0  0  0  0
    3.5777    0.5334    2.4364 H   0  0  0  0  0  0  0  0  0  0  0  0
    3.4868    0.2142    0.1764 H   0  0  0  0  0  0  0  0  0  0  0  0
    4.9574    0.7373   -0.9473 H   0  0  0  0  0  0  0  0  0  0  0  0
    6.8752    1.2873   -2.3574 H   0  0  0  0  0  0  0  0  0  0  0  0
    8.0302   -0.5196   -3.5883 H   0  0  0  0  0  0  0  0  0  0  0  0
    5.3379   -3.3182   -1.9639 H   0  0  0  0  0  0  0  0  0  0  0  0
   -2.0658    2.7086   -0.4918 H   0  0  0  0  0  0  0  0  0  0  0  0
   -2.8721    4.1725    0.4313 H   0  0  0  0  0  0  0  0  0  0  0  0
  2  1  1  1
  2  3  1  0
  3  4  2  0
  3  5  1  0
  5  6  1  0
  6  7  1  0
  7  8  2  0
  8  9  1  0
  9 10  2  0
 10 11  1  0
 11 12  2  0
  5 13  1  0
 13 14  1  0
 14 15  2  0
 14 16  1  0
 16 17  1  0
 17 18  1  0
 16 19  1  0
 19 20  1  0
 20 21  2  0
 20 22  1  0
 22 23  2  0
 23 24  1  0
 24 25  2  0
 25 26  1  0
 26 27  2  0
 26 28  1  0
  2 29  1  0
 29 30  1  0
 30  2  1  0
 12  7  1  0
 28 22  1  0
  1 31  1  0
  1 32  1  0
  1 33  1  0
  5 34  1  6
  6 35  1  0
  6 36  1  0
  8 37  1  0
  9 38  1  0
 10 39  1  0
 11 40  1  0
 12 41  1  0
 13 42  1  0
 16 43  1  1
 17 44  1  0
 17 45  1  0
 18 46  1  0
 19 47  1  0
 23 48  1  0
 24 49  1  0
 25 50  1  0
 28 51  1  0
 29 52  1  0
 29 53  1  0
M  END
$$$$
