
     RDKit          3D

 44 45  0  0  0  0  0  0  0  0999 V2000
    5.4329    3.1999    0.4096 C   0  0  0  0  0  0  0  0  0  0  0  0
    4.7117    2.2870    1.2006 O   0  0  0  0  0  0  0  0  0  0  0  0
    3.8596    1.3530    0.6660 C   0  0  0  0  0  0  0  0  0  0  0  0
    3.2543    0.5543    1.6400 C   0  0  0  0  0  0  0  0  0  0  0  0
    2.3567   -0.4493    1.2779 C   0  0  0  0  0  0  0  0  0  0  0  0
    2.0153   -0.7138   -0.0316 C   0  0  0  0  0  0  0  0  0  0  0  0
    1.0937   -1.7404   -0.5156 C   0  0  0  0  0  0  0  0  0  0  0  0
   -0.2817   -1.2932   -0.5864 N   0  0  0  0  0  0  0  0  0  0  0  0
   -0.5634   -0.1178   -1.4232 C   0  0  0  0  0  0  0  0  0  0  0  0
   -2.0622    0.0993   -1.3179 C   0  0  0  0  0  0  0  0  0  0  0  0
   -2.5043    1.2555   -2.1057 N   0  0  0  0  0  0  0  0  0  0  0  0
   -3.9602    1.2828   -1.8822 C   0  0  0  0  0  0  0  0  0  0  0  0
   -1.9356    2.4251   -1.4476 C   0  0  0  0  0  0  0  0  0  0  0  0
   -1.3085   -2.0002    0.1455 C   0  0  0  0  0  0  0  0  0  0  0  0
   -1.9242   -2.9562   -0.6061 N   0  0  0  0  0  0  0  0  0  0  0  0
   -2.9144   -3.7101   -0.0592 C   0  0  0  0  0  0  0  0  0  0  0  0
   -3.2465   -3.4574    1.2584 C   0  0  0  0  0  0  0  0  0  0  0  0
   -2.6159   -2.4769    2.0316 C   0  0  0  0  0  0  0  0  0  0  0  0
   -1.6103   -1.7172    1.4626 C   0  0  0  0  0  0  0  0  0  0  0  0
    2.6216    0.0848   -0.9945 C   0  0  0  0  0  0  0  0  0  0  0  0
    3.5071    1.0745   -0.6350 C   0  0  0  0  0  0  0  0  0  0  0  0
    4.9653    3.2918   -0.5867 H   0  0  0  0  0  0  0  0  0  0  0  0
    5.5143    4.1852    0.9184 H   0  0  0  0  0  0  0  0  0  0  0  0
    6.5000    2.8570    0.2747 H   0  0  0  0  0  0  0  0  0  0  0  0
    3.4233    0.6427    2.7230 H   0  0  0  0  0  0  0  0  0  0  0  0
    1.8836   -1.0720    2.0310 H   0  0  0  0  0  0  0  0  0  0  0  0
    1.3619   -2.0666   -1.5413 H   0  0  0  0  0  0  0  0  0  0  0  0
    1.1786   -2.6328    0.1378 H   0  0  0  0  0  0  0  0  0  0  0  0
   -0.0664    0.7868   -1.0847 H   0  0  0  0  0  0  0  0  0  0  0  0
   -0.3221   -0.2925   -2.4846 H   0  0  0  0  0  0  0  0  0  0  0  0
   -2.6426   -0.7769   -1.6739 H   0  0  0  0  0  0  0  0  0  0  0  0
   -2.3669    0.2485   -0.2445 H   0  0  0  0  0  0  0  0  0  0  0  0
   -4.4717    2.0249   -2.5129 H   0  0  0  0  0  0  0  0  0  0  0  0
   -4.3154    0.2298   -2.0675 H   0  0  0  0  0  0  0  0  0  0  0  0
   -4.0860    1.4571   -0.7946 H   0  0  0  0  0  0  0  0  0  0  0  0
   -2.7579    3.1847   -1.3120 H   0  0  0  0  0  0  0  0  0  0  0  0
   -1.6060    2.1846   -0.4202 H   0  0  0  0  0  0  0  0  0  0  0  0
   -1.0851    2.8627   -1.9963 H   0  0  0  0  0  0  0  0  0  0  0  0
   -3.4570   -4.4887   -0.5840 H   0  0  0  0  0  0  0  0  0  0  0  0
   -4.0299   -4.0379    1.7285 H   0  0  0  0  0  0  0  0  0  0  0  0
   -2.9011   -2.3091    3.0575 H   0  0  0  0  0  0  0  0  0  0  0  0
   -1.0725   -0.9458    1.9810 H   0  0  0  0  0  0  0  0  0  0  0  0
    2.4330   -0.0266   -2.0682 H   0  0  0  0  0  0  0  0  0  0  0  0
    3.9949    1.7093   -1.3593 H   0  0  0  0  0  0  0  0  0  0  0  0
  1  2  1  0
  2  3  1  0
  3  4  2  0
  4  5  1  0
  5  6  2  0
  6  7  1  0
  7  8  1  0
  8  9  1  0
  9 10  1  0
 10 11  1  0
 11 12  1  0
 11 13  1  0
  8 14  1  0
 14 15  2  0
 15 16  1  0
 16 17  2  0
 17 18  1  0
 18 19  2  0
  6 20  1  0
 20 21  2  0
 21  3  1  0
 19 14  1  0
  1 22  1  0
  1 23  1  0
  1 24  1  0
  4 25  1  0
  5 26  1  0
  7 27  1  0
  7 28  1  0
  9 29  1  0
  9 30  1  0
 10 31  1  0
 10 32  1  0
 12 33  1  0
 12 34  1  0
 12 35  1  0
 13 36  1  0
 13 37  1  0
 13 38  1  0
 16 39  1  0
 17 40  1  0
 18 41  1  0
 19 42  1  0
 20 43  1  0
 21 44  1  0
M  END
$$$$
