@<TRIPOS>MOLECULE
*****
 44 45 0 0 0
SMALL
GASTEIGER

@<TRIPOS>ATOM
      1 C           5.4329    3.1999    0.4096 C.3     1  UNL1        0.0788
      2 O           4.7117    2.2870    1.2006 O.3     1  UNL1       -0.4951
      3 C           3.8596    1.3530    0.6660 C.ar    1  UNL1        0.1201
      4 C           3.2543    0.5543    1.6400 C.ar    1  UNL1       -0.0196
      5 C           2.3567   -0.4493    1.2779 C.ar    1  UNL1       -0.0536
      6 C           2.0153   -0.7138   -0.0316 C.ar    1  UNL1       -0.0299
      7 C           1.0937   -1.7404   -0.5156 C.3     1  UNL1        0.0386
      8 N          -0.2817   -1.2932   -0.5864 N.pl3   1  UNL1       -0.3096
      9 C          -0.5634   -0.1178   -1.4232 C.3     1  UNL1        0.0266
     10 C          -2.0622    0.0993   -1.3179 C.3     1  UNL1        0.0141
     11 N          -2.5043    1.2555   -2.1057 N.3     1  UNL1       -0.3069
     12 C          -3.9602    1.2828   -1.8822 C.3     1  UNL1       -0.0130
     13 C          -1.9356    2.4251   -1.4476 C.3     1  UNL1       -0.0130
     14 C          -1.3085   -2.0002    0.1455 C.ar    1  UNL1        0.1215
     15 N          -1.9242   -2.9562   -0.6061 N.ar    1  UNL1       -0.2403
     16 C          -2.9144   -3.7101   -0.0592 C.ar    1  UNL1        0.0297
     17 C          -3.2465   -3.4574    1.2584 C.ar    1  UNL1       -0.0435
     18 C          -2.6159   -2.4769    2.0316 C.ar    1  UNL1       -0.0571
     19 C          -1.6103   -1.7172    1.4626 C.ar    1  UNL1       -0.0217
     20 C           2.6216    0.0848   -0.9945 C.ar    1  UNL1       -0.0536
     21 C           3.5071    1.0745   -0.6350 C.ar    1  UNL1       -0.0196
     22 H           4.9653    3.2918   -0.5867 H       1  UNL1        0.0660
     23 H           5.5143    4.1852    0.9184 H       1  UNL1        0.0660
     24 H           6.5000    2.8570    0.2747 H       1  UNL1        0.0660
     25 H           3.4233    0.6427    2.7230 H       1  UNL1        0.0654
     26 H           1.8836   -1.0720    2.0310 H       1  UNL1        0.0622
     27 H           1.3619   -2.0666   -1.5413 H       1  UNL1        0.0513
     28 H           1.1786   -2.6328    0.1378 H       1  UNL1        0.0513
     29 H          -0.0664    0.7868   -1.0847 H       1  UNL1        0.0477
     30 H          -0.3221   -0.2925   -2.4846 H       1  UNL1        0.0477
     31 H          -2.6426   -0.7769   -1.6739 H       1  UNL1        0.0442
     32 H          -2.3669    0.2485   -0.2445 H       1  UNL1        0.0442
     33 H          -4.4717    2.0249   -2.5129 H       1  UNL1        0.0391
     34 H          -4.3154    0.2298   -2.0675 H       1  UNL1        0.0391
     35 H          -4.0860    1.4571   -0.7946 H       1  UNL1        0.0391
     36 H          -2.7579    3.1847   -1.3120 H       1  UNL1        0.0391
     37 H          -1.6060    2.1846   -0.4202 H       1  UNL1        0.0391
     38 H          -1.0851    2.8627   -1.9963 H       1  UNL1        0.0391
     39 H          -3.4570   -4.4887   -0.5840 H       1  UNL1        0.0830
     40 H          -4.0299   -4.0379    1.7285 H       1  UNL1        0.0633
     41 H          -2.9011   -2.3091    3.0575 H       1  UNL1        0.0619
     42 H          -1.0725   -0.9458    1.9810 H       1  UNL1        0.0652
     43 H           2.4330   -0.0266   -2.0682 H       1  UNL1        0.0622
     44 H           3.9949    1.7093   -1.3593 H       1  UNL1        0.0654
@<TRIPOS>BOND
     1     1     2    1
     2     2     3    1
     3     3     4   ar
     4     4     5   ar
     5     5     6   ar
     6     6     7    1
     7     7     8    1
     8     8     9    1
     9     9    10    1
    10    10    11    1
    11    11    12    1
    12    11    13    1
    13     8    14    1
    14    14    15   ar
    15    15    16   ar
    16    16    17   ar
    17    17    18   ar
    18    18    19   ar
    19     6    20   ar
    20    20    21   ar
    21    21     3   ar
    22    19    14   ar
    23     1    22    1
    24     1    23    1
    25     1    24    1
    26     4    25    1
    27     5    26    1
    28     7    27    1
    29     7    28    1
    30     9    29    1
    31     9    30    1
    32    10    31    1
    33    10    32    1
    34    12    33    1
    35    12    34    1
    36    12    35    1
    37    13    36    1
    38    13    37    1
    39    13    38    1
    40    16    39    1
    41    17    40    1
    42    18    41    1
    43    19    42    1
    44    20    43    1
    45    21    44    1
