
     RDKit          3D

 58 57  0  0  0  0  0  0  0  0999 V2000
    3.6554   -0.6366   -0.9692 C   0  0  0  0  0  0  0  0  0  0  0  0
    2.3219   -1.2035   -0.9160 C   0  0  0  0  0  0  0  0  0  0  0  0
    1.7601   -1.5985    0.3904 C   0  0  0  0  0  0  0  0  0  0  0  0
    1.5434   -0.5187    1.3775 C   0  0  0  0  0  0  0  0  0  0  0  0
    0.5954    0.5563    0.9201 C   0  0  0  0  0  0  0  0  0  0  0  0
   -0.8018    0.0869    0.5910 C   0  0  0  0  0  0  0  0  0  0  0  0
   -1.5318   -0.5455    1.6849 C   0  0  0  0  0  0  0  0  0  0  0  0
   -2.8606   -1.0875    1.3478 C   0  0  0  0  0  0  0  0  0  0  0  0
   -3.9695   -0.2920    0.8367 C   0  0  0  0  0  0  0  0  0  0  0  0
   -3.9230    0.3863   -0.4645 C   0  0  0  0  0  0  0  0  0  0  0  0
   -5.2539    1.1069   -0.7064 C   0  0  0  0  0  0  0  0  0  0  0  0
   -6.4342    0.2049   -0.7239 C   0  0  0  0  0  0  0  0  0  0  0  0
   -7.6642    1.0888   -0.9792 C   0  0  0  0  0  0  0  0  0  0  0  0
   -8.9197    0.2342   -1.0106 C   0  0  0  0  0  0  0  0  0  0  0  0
    4.6964   -0.3116   -0.2456 C   0  0  0  0  0  0  0  0  0  0  0  0
    5.9600    0.2970   -0.7435 C   0  0  1  0  0  0  0  0  0  0  0  0
    5.8311    1.6663   -0.8459 O   0  0  0  0  0  0  0  0  0  0  0  0
    7.1143   -0.1497    0.1144 C   0  0  1  0  0  0  0  0  0  0  0  0
    8.3199    0.3845   -0.5016 N   0  0  0  0  0  0  0  0  0  0  0  0
    6.9481    0.3940    1.5235 C   0  0  0  0  0  0  0  0  0  0  0  0
    6.8517    1.7975    1.4684 O   0  0  0  0  0  0  0  0  0  0  0  0
    3.8569   -0.3960   -2.0361 H   0  0  0  0  0  0  0  0  0  0  0  0
    2.2664   -2.1331   -1.5749 H   0  0  0  0  0  0  0  0  0  0  0  0
    1.6009   -0.5076   -1.4346 H   0  0  0  0  0  0  0  0  0  0  0  0
    0.8688   -2.2332    0.2000 H   0  0  0  0  0  0  0  0  0  0  0  0
    2.5016   -2.3171    0.8590 H   0  0  0  0  0  0  0  0  0  0  0  0
    2.4882   -0.0007    1.5804 H   0  0  0  0  0  0  0  0  0  0  0  0
    1.2511   -0.9496    2.3612 H   0  0  0  0  0  0  0  0  0  0  0  0
    0.5679    1.3285    1.7148 H   0  0  0  0  0  0  0  0  0  0  0  0
    1.0507    1.0381    0.0325 H   0  0  0  0  0  0  0  0  0  0  0  0
   -0.7900   -0.4379   -0.3654 H   0  0  0  0  0  0  0  0  0  0  0  0
   -1.3345    1.0755    0.3915 H   0  0  0  0  0  0  0  0  0  0  0  0
   -1.7115    0.1818    2.5552 H   0  0  0  0  0  0  0  0  0  0  0  0
   -0.9686   -1.3581    2.2188 H   0  0  0  0  0  0  0  0  0  0  0  0
   -2.7399   -1.9559    0.5815 H   0  0  0  0  0  0  0  0  0  0  0  0
   -3.2761   -1.6964    2.2251 H   0  0  0  0  0  0  0  0  0  0  0  0
   -4.8491   -1.0324    0.7560 H   0  0  0  0  0  0  0  0  0  0  0  0
   -4.2617    0.4357    1.6672 H   0  0  0  0  0  0  0  0  0  0  0  0
   -3.1738    1.1276   -0.6870 H   0  0  0  0  0  0  0  0  0  0  0  0
   -3.7967   -0.4150   -1.2559 H   0  0  0  0  0  0  0  0  0  0  0  0
   -5.3796    1.9103    0.0466 H   0  0  0  0  0  0  0  0  0  0  0  0
   -5.1587    1.5895   -1.7011 H   0  0  0  0  0  0  0  0  0  0  0  0
   -6.3262   -0.5287   -1.5513 H   0  0  0  0  0  0  0  0  0  0  0  0
   -6.6594   -0.3327    0.1932 H   0  0  0  0  0  0  0  0  0  0  0  0
   -7.4880    1.6155   -1.9207 H   0  0  0  0  0  0  0  0  0  0  0  0
   -7.7413    1.7899   -0.1168 H   0  0  0  0  0  0  0  0  0  0  0  0
   -9.3566    0.1237    0.0120 H   0  0  0  0  0  0  0  0  0  0  0  0
   -8.6345   -0.8114   -1.3123 H   0  0  0  0  0  0  0  0  0  0  0  0
   -9.6456    0.5844   -1.7505 H   0  0  0  0  0  0  0  0  0  0  0  0
    4.5151   -0.5678    0.7707 H   0  0  0  0  0  0  0  0  0  0  0  0
    6.1219   -0.1765   -1.7597 H   0  0  0  0  0  0  0  0  0  0  0  0
    5.9278    1.9311   -1.7996 H   0  0  0  0  0  0  0  0  0  0  0  0
    7.1173   -1.2539    0.1370 H   0  0  0  0  0  0  0  0  0  0  0  0
    8.2992    0.2700   -1.5331 H   0  0  0  0  0  0  0  0  0  0  0  0
    9.1723    0.0021   -0.0499 H   0  0  0  0  0  0  0  0  0  0  0  0
    6.0345   -0.0066    2.0015 H   0  0  0  0  0  0  0  0  0  0  0  0
    7.8114    0.1424    2.1638 H   0  0  0  0  0  0  0  0  0  0  0  0
    7.6005    2.1045    0.8687 H   0  0  0  0  0  0  0  0  0  0  0  0
  1  2  1  0
  2  3  1  0
  3  4  1  0
  4  5  1  0
  5  6  1  0
  6  7  1  0
  7  8  1  0
  8  9  1  0
  9 10  1  0
 10 11  1  0
 11 12  1  0
 12 13  1  0
 13 14  1  0
  1 15  2  0
 15 16  1  0
 16 17  1  0
 16 18  1  0
 18 19  1  0
 18 20  1  0
 20 21  1  0
  1 22  1  0
  2 23  1  0
  2 24  1  0
  3 25  1  0
  3 26  1  0
  4 27  1  0
  4 28  1  0
  5 29  1  0
  5 30  1  0
  6 31  1  0
  6 32  1  0
  7 33  1  0
  7 34  1  0
  8 35  1  0
  8 36  1  0
  9 37  1  0
  9 38  1  0
 10 39  1  0
 10 40  1  0
 11 41  1  0
 11 42  1  0
 12 43  1  0
 12 44  1  0
 13 45  1  0
 13 46  1  0
 14 47  1  0
 14 48  1  0
 14 49  1  0
 15 50  1  0
 16 51  1  6
 17 52  1  0
 18 53  1  1
 19 54  1  0
 19 55  1  0
 20 56  1  0
 20 57  1  0
 21 58  1  0
M  END
$$$$
