@<TRIPOS>MOLECULE
*****
 58 57 0 0 0
SMALL
GASTEIGER

@<TRIPOS>ATOM
      1 C1          3.6554   -0.6366   -0.9692 C.2     1  <1>        -0.0855
      2 C2          2.3219   -1.2035   -0.9160 C.3     1  <1>        -0.0347
      3 C3          1.7601   -1.5985    0.3904 C.3     1  <1>        -0.0496
      4 C4          1.5434   -0.5187    1.3775 C.3     1  <1>        -0.0528
      5 C5          0.5954    0.5563    0.9201 C.3     1  <1>        -0.0530
      6 C6         -0.8018    0.0869    0.5910 C.3     1  <1>        -0.0531
      7 C7         -1.5318   -0.5455    1.6849 C.3     1  <1>        -0.0531
      8 C8         -2.8606   -1.0875    1.3478 C.3     1  <1>        -0.0531
      9 C9         -3.9695   -0.2920    0.8367 C.3     1  <1>        -0.0531
     10 C10        -3.9230    0.3863   -0.4645 C.3     1  <1>        -0.0531
     11 C11        -5.2539    1.1069   -0.7064 C.3     1  <1>        -0.0531
     12 C12        -6.4342    0.2049   -0.7239 C.3     1  <1>        -0.0533
     13 C13        -7.6642    1.0888   -0.9792 C.3     1  <1>        -0.0559
     14 C14        -8.9197    0.2342   -1.0106 C.3     1  <1>        -0.0653
     15 C15         4.6964   -0.3116   -0.2456 C.2     1  <1>        -0.0583
     16 C16         5.9600    0.2970   -0.7435 C.3     1  <1>         0.0906
     17 O1          5.8311    1.6663   -0.8459 O.3     1  <1>        -0.3861
     18 C17         7.1143   -0.1497    0.1144 C.3     1  <1>         0.0582
     19 N1          8.3199    0.3845   -0.5016 N.3     1  <1>        -0.3231
     20 C18         6.9481    0.3940    1.5235 C.3     1  <1>         0.0621
     21 O2          6.8517    1.7975    1.4684 O.3     1  <1>        -0.3934
     22 H1          3.8569   -0.3960   -2.0361 H       1  <1>         0.0570
     23 H2          2.2664   -2.1331   -1.5749 H       1  <1>         0.0307
     24 H3          1.6009   -0.5076   -1.4346 H       1  <1>         0.0307
     25 H4          0.8688   -2.2332    0.2000 H       1  <1>         0.0268
     26 H5          2.5016   -2.3171    0.8590 H       1  <1>         0.0268
     27 H6          2.4882   -0.0007    1.5804 H       1  <1>         0.0265
     28 H7          1.2511   -0.9496    2.3612 H       1  <1>         0.0265
     29 H8          0.5679    1.3285    1.7148 H       1  <1>         0.0265
     30 H9          1.0507    1.0381    0.0325 H       1  <1>         0.0265
     31 H10        -0.7900   -0.4379   -0.3654 H       1  <1>         0.0265
     32 H11        -1.3345    1.0755    0.3915 H       1  <1>         0.0265
     33 H12        -1.7115    0.1818    2.5552 H       1  <1>         0.0265
     34 H13        -0.9686   -1.3581    2.2188 H       1  <1>         0.0265
     35 H14        -2.7399   -1.9559    0.5815 H       1  <1>         0.0265
     36 H15        -3.2761   -1.6964    2.2251 H       1  <1>         0.0265
     37 H16        -4.8491   -1.0324    0.7560 H       1  <1>         0.0265
     38 H17        -4.2617    0.4357    1.6672 H       1  <1>         0.0265
     39 H18        -3.1738    1.1276   -0.6870 H       1  <1>         0.0265
     40 H19        -3.7967   -0.4150   -1.2559 H       1  <1>         0.0265
     41 H20        -5.3796    1.9103    0.0466 H       1  <1>         0.0265
     42 H21        -5.1587    1.5895   -1.7011 H       1  <1>         0.0265
     43 H22        -6.3262   -0.5287   -1.5513 H       1  <1>         0.0265
     44 H23        -6.6594   -0.3327    0.1932 H       1  <1>         0.0265
     45 H24        -7.4880    1.6155   -1.9207 H       1  <1>         0.0263
     46 H25        -7.7413    1.7899   -0.1168 H       1  <1>         0.0263
     47 H26        -9.3566    0.1237    0.0120 H       1  <1>         0.0230
     48 H27        -8.6345   -0.8114   -1.3123 H       1  <1>         0.0230
     49 H28        -9.6456    0.5844   -1.7505 H       1  <1>         0.0230
     50 H29         4.5151   -0.5678    0.7707 H       1  <1>         0.0595
     51 H30         6.1219   -0.1765   -1.7597 H       1  <1>         0.0654
     52 H31         5.9278    1.9311   -1.7996 H       1  <1>         0.2103
     53 H32         7.1173   -1.2539    0.1370 H       1  <1>         0.0510
     54 H33         8.2992    0.2700   -1.5331 H       1  <1>         0.1186
     55 H34         9.1723    0.0021   -0.0499 H       1  <1>         0.1186
     56 H35         6.0345   -0.0066    2.0015 H       1  <1>         0.0573
     57 H36         7.8114    0.1424    2.1638 H       1  <1>         0.0573
     58 H37         7.6005    2.1045    0.8687 H       1  <1>         0.2095
@<TRIPOS>BOND
     1     1     2    1
     2     2     3    1
     3     3     4    1
     4     4     5    1
     5     5     6    1
     6     6     7    1
     7     7     8    1
     8     8     9    1
     9     9    10    1
    10    10    11    1
    11    11    12    1
    12    12    13    1
    13    13    14    1
    14     1    15    2
    15    15    16    1
    16    16    17    1
    17    16    18    1
    18    18    19    1
    19    18    20    1
    20    20    21    1
    21     1    22    1
    22     2    23    1
    23     2    24    1
    24     3    25    1
    25     3    26    1
    26     4    27    1
    27     4    28    1
    28     5    29    1
    29     5    30    1
    30     6    31    1
    31     6    32    1
    32     7    33    1
    33     7    34    1
    34     8    35    1
    35     8    36    1
    36     9    37    1
    37     9    38    1
    38    10    39    1
    39    10    40    1
    40    11    41    1
    41    11    42    1
    42    12    43    1
    43    12    44    1
    44    13    45    1
    45    13    46    1
    46    14    47    1
    47    14    48    1
    48    14    49    1
    49    15    50    1
    50    16    51    1
    51    17    52    1
    52    18    53    1
    53    19    54    1
    54    19    55    1
    55    20    56    1
    56    20    57    1
    57    21    58    1
