@<TRIPOS>MOLECULE
*****
 137 140 0 0 0
SMALL
GASTEIGER

@<TRIPOS>ATOM
      1 N          12.2277    0.0604   -1.5927 N.3     1  UNL1       -0.3300
      2 C          11.6354   -1.1873   -2.0787 C.3     1  UNL1       -0.0069
      3 C          11.2426   -2.0777   -0.9473 C.3     1  UNL1       -0.0406
      4 C          10.2408   -1.4097   -0.0220 C.3     1  UNL1       -0.0498
      5 C           9.0132   -1.0548   -0.7777 C.3     1  UNL1       -0.0259
      6 C           7.9074   -0.4012    0.0263 C.3     1  UNL1        0.0994
      7 N           6.8400   -0.1482   -0.9808 N.am    1  UNL1       -0.3025
      8 C           5.4604   -0.5016   -0.8349 C.2     1  UNL1        0.2342
      9 O           5.4019   -1.0492    0.3151 O.2     1  UNL1       -0.2738
     10 C           4.7859   -0.0705   -2.0551 C.3     1  UNL1        0.1023
     11 C           5.0851    1.3759   -2.4121 C.3     1  UNL1       -0.0243
     12 C           4.0263    1.5701   -3.5268 C.3     1  UNL1       -0.0350
     13 C           3.2205    0.3044   -3.4504 C.3     1  UNL1        0.0156
     14 N           3.3572   -0.1025   -2.0469 N.am    1  UNL1       -0.2884
     15 C           2.4927   -0.3886   -0.9879 C.2     1  UNL1        0.2373
     16 O           2.8264   -0.7879    0.1425 O.2     1  UNL1       -0.2735
     17 C           1.0737   -0.3469   -0.7800 C.3     1  UNL1        0.1094
     18 C           0.6951    1.1344   -0.5709 C.3     1  UNL1        0.0309
     19 S           0.8728    2.2662   -1.8660 S.3     1  UNL1       -0.0907
     20 S          -0.3934    1.9648   -3.5356 S.3     1  UNL1       -0.0910
     21 C          -2.0225    2.8265   -3.2339 C.3     1  UNL1        0.0276
     22 C          -2.7449    1.9585   -2.2400 C.3     1  UNL1        0.0921
     23 N          -3.0801    0.7339   -3.0154 N.3     1  UNL1       -0.3193
     24 C          -3.8698    2.4980   -1.5117 C.2     1  UNL1        0.2313
     25 O          -3.4485    3.4372   -0.8023 O.2     1  UNL1       -0.2741
     26 N          -5.2531    2.4743   -1.2089 N.am    1  UNL1       -0.3024
     27 C          -6.0206    3.2381   -0.2512 C.3     1  UNL1        0.1033
     28 C          -7.0356    4.1702   -0.8432 C.3     1  UNL1       -0.0007
     29 C          -6.4223    5.1921   -1.7168 C.ar    1  UNL1       -0.0451
     30 C          -6.2295    5.1942   -3.0874 C.ar    1  UNL1       -0.0585
     31 C          -5.6198    6.2703   -3.6719 C.ar    1  UNL1       -0.0615
     32 C          -5.1716    7.3768   -2.9921 C.ar    1  UNL1       -0.0617
     33 C          -5.3358    7.4317   -1.6209 C.ar    1  UNL1       -0.0615
     34 C          -5.9593    6.3276   -1.0408 C.ar    1  UNL1       -0.0585
     35 C          -6.6070    2.3772    0.8029 C.2     1  UNL1        0.2343
     36 O          -7.2227    2.8243    1.7909 O.2     1  UNL1       -0.2738
     37 N          -6.7524    1.0191    1.1543 N.am    1  UNL1       -0.3022
     38 C          -7.2958    0.2168    2.2274 C.3     1  UNL1        0.1034
     39 C          -8.6776   -0.3280    1.8214 C.3     1  UNL1       -0.0007
     40 C          -8.6230   -1.1679    0.6104 C.ar    1  UNL1       -0.0451
     41 C          -8.8007   -0.7122   -0.7046 C.ar    1  UNL1       -0.0585
     42 C          -8.7243   -1.5943   -1.7597 C.ar    1  UNL1       -0.0615
     43 C          -8.4769   -2.9352   -1.6053 C.ar    1  UNL1       -0.0617
     44 C          -8.2910   -3.4448   -0.3213 C.ar    1  UNL1       -0.0615
     45 C          -8.3767   -2.5228    0.7106 C.ar    1  UNL1       -0.0585
     46 C          -6.4260   -0.9008    2.6022 C.2     1  UNL1        0.2343
     47 O          -6.6925   -1.5474    3.6381 O.2     1  UNL1       -0.2738
     48 N          -5.3170   -1.7164    2.3586 N.am    1  UNL1       -0.3025
     49 C          -4.4604   -2.8442    2.8189 C.3     1  UNL1        0.0999
     50 C          -4.9014   -4.0719    2.0134 C.3     1  UNL1       -0.0177
     51 C          -4.1396   -5.2998    2.3393 C.3     1  UNL1        0.0259
     52 C          -4.2124   -5.7211    3.7570 C.2     1  UNL1        0.2106
     53 N          -3.5442   -6.9689    3.8779 N.am    1  UNL1       -0.3293
     54 O          -4.7356   -5.1797    4.7808 O.2     1  UNL1       -0.2760
     55 C          -3.0718   -2.5070    2.6631 C.2     1  UNL1        0.2340
     56 O          -3.1532   -1.4331    2.0275 O.2     1  UNL1       -0.2738
     57 N          -1.6737   -2.6776    2.8125 N.am    1  UNL1       -0.3020
     58 C          -0.5509   -1.8487    2.4704 C.3     1  UNL1        0.1076
     59 C           0.6934   -2.2015    3.1376 C.3     1  UNL1        0.0506
     60 C           1.1521   -3.5915    2.8359 C.2     1  UNL1        0.2127
     61 N           0.7156   -4.7241    2.1015 N.am    1  UNL1       -0.3293
     62 O           2.2586   -3.9083    3.3700 O.2     1  UNL1       -0.2760
     63 C          -0.4650   -1.7438    0.9422 C.2     1  UNL1        0.2344
     64 O          -0.8091   -1.9744   -0.1924 O.2     1  UNL1       -0.2737
     65 N           0.5938   -0.9058    0.5059 N.am    1  UNL1       -0.3017
     66 C           8.3090    0.9382    0.4891 C.2     1  UNL1        0.2337
     67 O           7.7155    1.7836   -0.2666 O.2     1  UNL1       -0.2738
     68 N           9.1517    1.3665    1.5239 N.am    1  UNL1       -0.3052
     69 C           9.3463    2.7673    1.7217 C.3     1  UNL1        0.0879
     70 C          10.2730    3.0245    2.8649 C.2     1  UNL1        0.2277
     71 N          10.8139    1.9381    3.5675 N.am    1  UNL1       -0.3280
     72 O          10.4903    4.2534    3.0992 O.2     1  UNL1       -0.2743
     73 H          12.8110   -0.1135   -0.7539 H       1  UNL1        0.1182
     74 H          11.5162    0.7945   -1.4375 H       1  UNL1        0.1182
     75 H          12.4715   -1.6938   -2.6456 H       1  UNL1        0.0422
     76 H          10.8071   -1.0181   -2.7591 H       1  UNL1        0.0422
     77 H          10.7727   -2.9894   -1.3642 H       1  UNL1        0.0277
     78 H          12.1557   -2.3723   -0.3637 H       1  UNL1        0.0277
     79 H          10.6984   -0.4770    0.4038 H       1  UNL1        0.0266
     80 H          10.0191   -2.0947    0.8165 H       1  UNL1        0.0266
     81 H           9.3239   -0.3696   -1.6157 H       1  UNL1        0.0288
     82 H           8.6301   -2.0043   -1.2356 H       1  UNL1        0.0288
     83 H           7.5263   -1.0161    0.8428 H       1  UNL1        0.0594
     84 H           7.3244    0.3356   -1.7842 H       1  UNL1        0.1495
     85 H           5.1745   -0.7116   -2.8829 H       1  UNL1        0.0597
     86 H           6.0864    1.5194   -2.8227 H       1  UNL1        0.0288
     87 H           4.7882    2.0511   -1.5977 H       1  UNL1        0.0288
     88 H           3.4315    2.4733   -3.3425 H       1  UNL1        0.0281
     89 H           4.5141    1.6596   -4.5073 H       1  UNL1        0.0281
     90 H           2.1940    0.4510   -3.7769 H       1  UNL1        0.0465
     91 H           3.6535   -0.4946   -4.1019 H       1  UNL1        0.0465
     92 H           0.5241   -0.7568   -1.6412 H       1  UNL1        0.0603
     93 H          -0.3350    1.0995   -0.1022 H       1  UNL1        0.0407
     94 H           1.3074    1.5036    0.3258 H       1  UNL1        0.0407
     95 H          -2.4824    2.9155   -4.2109 H       1  UNL1        0.0405
     96 H          -1.7670    3.8165   -2.8303 H       1  UNL1        0.0405
     97 H          -1.9405    1.6388   -1.5067 H       1  UNL1        0.0563
     98 H          -2.1896    0.1935   -3.0857 H       1  UNL1        0.1189
     99 H          -3.3317    1.0096   -3.9953 H       1  UNL1        0.1189
    100 H          -5.3553    1.7458   -1.9238 H       1  UNL1        0.1495
    101 H          -5.3116    3.9205    0.3243 H       1  UNL1        0.0598
    102 H          -7.8317    3.5931   -1.3971 H       1  UNL1        0.0336
    103 H          -7.5709    4.6850   -0.0091 H       1  UNL1        0.0336
    104 H          -6.5990    4.3027   -3.5596 H       1  UNL1        0.0620
    105 H          -5.4945    6.2180   -4.7656 H       1  UNL1        0.0618
    106 H          -4.6937    8.2091   -3.4902 H       1  UNL1        0.0618
    107 H          -5.0067    8.2660   -1.0126 H       1  UNL1        0.0618
    108 H          -6.0683    6.4123    0.0498 H       1  UNL1        0.0620
    109 H          -6.2894    0.6610    0.3033 H       1  UNL1        0.1495
    110 H          -7.5118    0.8191    3.1280 H       1  UNL1        0.0598
    111 H          -9.4176    0.4840    1.8037 H       1  UNL1        0.0336
    112 H          -8.9707   -0.9706    2.6899 H       1  UNL1        0.0336
    113 H          -8.9988    0.3425   -0.8222 H       1  UNL1        0.0620
    114 H          -8.8643   -1.2391   -2.7855 H       1  UNL1        0.0618
    115 H          -8.4010   -3.6817   -2.3726 H       1  UNL1        0.0618
    116 H          -8.0913   -4.4784   -0.0829 H       1  UNL1        0.0618
    117 H          -8.2336   -2.9085    1.7313 H       1  UNL1        0.0620
    118 H          -5.1512   -1.2146    1.4601 H       1  UNL1        0.1495
    119 H          -4.7422   -3.0101    3.8711 H       1  UNL1        0.0595
    120 H          -5.9596   -4.2344    2.2815 H       1  UNL1        0.0292
    121 H          -4.7944   -3.8596    0.9133 H       1  UNL1        0.0292
    122 H          -3.0585   -5.2623    2.0518 H       1  UNL1        0.0359
    123 H          -4.6157   -6.1357    1.7195 H       1  UNL1        0.0359
    124 H          -2.9157   -7.7954    4.0468 H       1  UNL1        0.1449
    125 H          -4.1521   -7.7399    3.4676 H       1  UNL1        0.1449
    126 H          -1.9139   -3.5817    3.2387 H       1  UNL1        0.1495
    127 H          -0.8656   -0.7890    2.7422 H       1  UNL1        0.0599
    128 H           0.5135   -2.1065    4.2557 H       1  UNL1        0.0381
    129 H           1.4700   -1.4649    2.8998 H       1  UNL1        0.0381
    130 H           0.9309   -4.4394    1.1153 H       1  UNL1        0.1449
    131 H           0.3197   -5.4990    2.6725 H       1  UNL1        0.1449
    132 H           1.2750   -0.5246    1.1681 H       1  UNL1        0.1495
    133 H           9.5611    0.6103    2.0814 H       1  UNL1        0.1492
    134 H           9.7531    3.2794    0.8183 H       1  UNL1        0.0558
    135 H           8.3584    3.2338    1.9305 H       1  UNL1        0.0558
    136 H          11.4722    1.2641    3.9868 H       1  UNL1        0.1450
    137 H          10.2307    1.2213    4.0755 H       1  UNL1        0.1450
@<TRIPOS>BOND
     1     1     2    1
     2     2     3    1
     3     3     4    1
     4     4     5    1
     5     5     6    1
     6     6     7    1
     7     7     8   am
     8     8     9    2
     9     8    10    1
    10    10    11    1
    11    11    12    1
    12    12    13    1
    13    13    14    1
    14    14    15   am
    15    15    16    2
    16    15    17    1
    17    17    18    1
    18    18    19    1
    19    19    20    1
    20    20    21    1
    21    21    22    1
    22    22    23    1
    23    22    24    1
    24    24    25    2
    25    24    26   am
    26    26    27    1
    27    27    28    1
    28    28    29    1
    29    29    30   ar
    30    30    31   ar
    31    31    32   ar
    32    32    33   ar
    33    33    34   ar
    34    27    35    1
    35    35    36    2
    36    35    37   am
    37    37    38    1
    38    38    39    1
    39    39    40    1
    40    40    41   ar
    41    41    42   ar
    42    42    43   ar
    43    43    44   ar
    44    44    45   ar
    45    38    46    1
    46    46    47    2
    47    46    48   am
    48    48    49    1
    49    49    50    1
    50    50    51    1
    51    51    52    1
    52    52    53   am
    53    52    54    2
    54    49    55    1
    55    55    56    2
    56    55    57   am
    57    57    58    1
    58    58    59    1
    59    59    60    1
    60    60    61   am
    61    60    62    2
    62    58    63    1
    63    63    64    2
    64    63    65   am
    65     6    66    1
    66    66    67    2
    67    66    68   am
    68    68    69    1
    69    69    70    1
    70    70    71   am
    71    70    72    2
    72    14    10    1
    73    65    17    1
    74    34    29   ar
    75    45    40   ar
    76     1    73    1
    77     1    74    1
    78     2    75    1
    79     2    76    1
    80     3    77    1
    81     3    78    1
    82     4    79    1
    83     4    80    1
    84     5    81    1
    85     5    82    1
    86     6    83    1
    87     7    84    1
    88    10    85    1
    89    11    86    1
    90    11    87    1
    91    12    88    1
    92    12    89    1
    93    13    90    1
    94    13    91    1
    95    17    92    1
    96    18    93    1
    97    18    94    1
    98    21    95    1
    99    21    96    1
   100    22    97    1
   101    23    98    1
   102    23    99    1
   103    26   100    1
   104    27   101    1
   105    28   102    1
   106    28   103    1
   107    30   104    1
   108    31   105    1
   109    32   106    1
   110    33   107    1
   111    34   108    1
   112    37   109    1
   113    38   110    1
   114    39   111    1
   115    39   112    1
   116    41   113    1
   117    42   114    1
   118    43   115    1
   119    44   116    1
   120    45   117    1
   121    48   118    1
   122    49   119    1
   123    50   120    1
   124    50   121    1
   125    51   122    1
   126    51   123    1
   127    53   124    1
   128    53   125    1
   129    57   126    1
   130    58   127    1
   131    59   128    1
   132    59   129    1
   133    61   130    1
   134    61   131    1
   135    65   132    1
   136    68   133    1
   137    69   134    1
   138    69   135    1
   139    71   136    1
   140    71   137    1
