@<TRIPOS>MOLECULE
*****
 70 71 0 0 0
SMALL
GASTEIGER

@<TRIPOS>ATOM
      1 C          -9.4114    1.0324    1.5847 C.3     1  UNL1       -0.0280
      2 C          -8.6651   -0.2923    1.6743 C.3     1  UNL1        0.0975
      3 C          -9.7022   -1.3795    1.4934 C.3     1  UNL1       -0.0280
      4 O          -7.6267   -0.3763    0.7463 O.3     1  UNL1       -0.4619
      5 C          -6.2871   -0.5142    1.0690 C.2     1  UNL1        0.3073
      6 O          -5.7925   -0.5848    2.2465 O.2     1  UNL1       -0.2508
      7 C          -5.3730   -0.5823   -0.0835 C.3     1  UNL1        0.0452
      8 C          -4.6520    0.7191   -0.3653 C.3     1  UNL1       -0.0395
      9 C          -3.7350    0.5930   -1.5603 C.3     1  UNL1       -0.0343
     10 C          -2.6950   -0.4268   -1.3857 C.2     1  UNL1       -0.0879
     11 C          -1.3478   -0.3391   -1.3970 C.2     1  UNL1       -0.0876
     12 C          -0.5942    0.9015   -1.6043 C.3     1  UNL1       -0.0290
     13 C           0.3044    1.2561   -0.4534 C.3     1  UNL1       -0.0029
     14 C          -0.4314    1.4522    0.8538 C.3     1  UNL1        0.0613
     15 O          -1.1708    0.2896    1.1050 O.3     1  UNL1       -0.3914
     16 C           0.7168    1.5023    1.8431 C.3     1  UNL1        0.0001
     17 C           1.8490    0.6927    1.2224 C.3     1  UNL1        0.0641
     18 O           2.2629   -0.3568    2.0393 O.3     1  UNL1       -0.3911
     19 C           1.2988    0.1770   -0.0995 C.3     1  UNL1        0.0087
     20 C           2.4227    0.1269   -1.0879 C.2     1  UNL1       -0.0795
     21 C           2.7717   -0.8850   -1.8457 C.2     1  UNL1       -0.0562
     22 C           3.8670   -1.0518   -2.8630 C.3     1  UNL1        0.1073
     23 O           4.3465    0.1287   -3.3599 O.3     1  UNL1       -0.3844
     24 C           4.8954   -1.9737   -2.2527 C.3     1  UNL1        0.1189
     25 O           5.6111   -1.5096   -1.1982 O.3     1  UNL1       -0.4891
     26 C           6.4820   -0.5392   -0.9210 C.ar    1  UNL1        0.1212
     27 C           7.1127    0.4830   -1.5605 C.ar    1  UNL1       -0.0199
     28 C           7.9921    1.3717   -1.0311 C.ar    1  UNL1       -0.0578
     29 C           8.2797    1.2213    0.3095 C.ar    1  UNL1       -0.0499
     30 C           7.7088    0.2258    1.0719 C.ar    1  UNL1        0.0583
     31 C           6.8101   -0.6496    0.4447 C.ar    1  UNL1       -0.0083
     32 C           8.1213    0.2023    2.4825 C.3     1  UNL1        0.4175
     33 F           7.3452   -0.6473    3.2262 F       1  UNL1       -0.1659
     34 F           9.4490   -0.1771    2.6307 F       1  UNL1       -0.1659
     35 F           8.0599    1.5097    2.9611 F       1  UNL1       -0.1659
     36 H          -9.9690    1.1552    2.5307 H       1  UNL1        0.0265
     37 H          -8.7350    1.8961    1.4372 H       1  UNL1        0.0265
     38 H         -10.1251    0.9959    0.7170 H       1  UNL1        0.0265
     39 H          -8.2565   -0.3548    2.7074 H       1  UNL1        0.0728
     40 H          -9.2181   -2.2720    1.0103 H       1  UNL1        0.0265
     41 H         -10.1900   -1.6943    2.4170 H       1  UNL1        0.0265
     42 H         -10.4469   -0.9986    0.7438 H       1  UNL1        0.0265
     43 H          -5.8361   -0.9975   -0.9981 H       1  UNL1        0.0378
     44 H          -4.5721   -1.3269    0.1996 H       1  UNL1        0.0378
     45 H          -5.3810    1.5151   -0.5465 H       1  UNL1        0.0273
     46 H          -4.0356    1.0373    0.5003 H       1  UNL1        0.0273
     47 H          -4.3497    0.2782   -2.4492 H       1  UNL1        0.0307
     48 H          -3.3191    1.6121   -1.7690 H       1  UNL1        0.0307
     49 H          -3.1167   -1.4275   -1.2190 H       1  UNL1        0.0569
     50 H          -0.7733   -1.2456   -1.2426 H       1  UNL1        0.0569
     51 H          -1.2943    1.7519   -1.7275 H       1  UNL1        0.0311
     52 H           0.0605    0.8656   -2.5065 H       1  UNL1        0.0311
     53 H           0.8659    2.1949   -0.6607 H       1  UNL1        0.0335
     54 H          -1.0651    2.3617    0.8759 H       1  UNL1        0.0597
     55 H          -1.3039    0.1298    2.0721 H       1  UNL1        0.2098
     56 H           0.4301    1.1615    2.8396 H       1  UNL1        0.0315
     57 H           1.0273    2.5859    1.8653 H       1  UNL1        0.0315
     58 H           2.6995    1.3814    0.9498 H       1  UNL1        0.0600
     59 H           2.2702   -0.0991    2.9895 H       1  UNL1        0.2098
     60 H           0.8055   -0.7907   -0.0007 H       1  UNL1        0.0372
     61 H           3.0556    0.9925   -1.2400 H       1  UNL1        0.0573
     62 H           2.1554   -1.7974   -1.7259 H       1  UNL1        0.0596
     63 H           3.4266   -1.6264   -3.7442 H       1  UNL1        0.0672
     64 H           4.4701    0.8231   -2.6715 H       1  UNL1        0.2104
     65 H           4.2839   -2.8618   -1.8795 H       1  UNL1        0.0726
     66 H           5.5078   -2.4463   -3.0671 H       1  UNL1        0.0726
     67 H           6.8569    0.5366   -2.5892 H       1  UNL1        0.0654
     68 H           8.4051    2.1282   -1.6808 H       1  UNL1        0.0619
     69 H           8.9842    1.9370    0.7229 H       1  UNL1        0.0623
     70 H           6.4601   -1.3704    1.2041 H       1  UNL1        0.0660
@<TRIPOS>BOND
     1     1     2    1
     2     2     3    1
     3     2     4    1
     4     4     5    1
     5     5     6    2
     6     5     7    1
     7     7     8    1
     8     8     9    1
     9     9    10    1
    10    10    11    2
    11    11    12    1
    12    12    13    1
    13    13    14    1
    14    14    15    1
    15    14    16    1
    16    16    17    1
    17    17    18    1
    18    17    19    1
    19    19    20    1
    20    20    21    2
    21    21    22    1
    22    22    23    1
    23    22    24    1
    24    24    25    1
    25    25    26    1
    26    26    27   ar
    27    27    28   ar
    28    28    29   ar
    29    29    30   ar
    30    30    31   ar
    31    30    32    1
    32    32    33    1
    33    32    34    1
    34    32    35    1
    35    19    13    1
    36    31    26   ar
    37     1    36    1
    38     1    37    1
    39     1    38    1
    40     2    39    1
    41     3    40    1
    42     3    41    1
    43     3    42    1
    44     7    43    1
    45     7    44    1
    46     8    45    1
    47     8    46    1
    48     9    47    1
    49     9    48    1
    50    10    49    1
    51    11    50    1
    52    12    51    1
    53    12    52    1
    54    13    53    1
    55    14    54    1
    56    15    55    1
    57    16    56    1
    58    16    57    1
    59    17    58    1
    60    18    59    1
    61    19    60    1
    62    20    61    1
    63    21    62    1
    64    22    63    1
    65    23    64    1
    66    24    65    1
    67    24    66    1
    68    27    67    1
    69    28    68    1
    70    29    69    1
    71    31    70    1
