
     RDKit          3D

 70 71  0  0  0  0  0  0  0  0999 V2000
   -9.4114    1.0324    1.5847 C   0  0  0  0  0  0  0  0  0  0  0  0
   -8.6651   -0.2923    1.6743 C   0  0  0  0  0  0  0  0  0  0  0  0
   -9.7022   -1.3795    1.4934 C   0  0  0  0  0  0  0  0  0  0  0  0
   -7.6267   -0.3763    0.7463 O   0  0  0  0  0  0  0  0  0  0  0  0
   -6.2871   -0.5142    1.0690 C   0  0  0  0  0  0  0  0  0  0  0  0
   -5.7925   -0.5848    2.2465 O   0  0  0  0  0  0  0  0  0  0  0  0
   -5.3730   -0.5823   -0.0835 C   0  0  0  0  0  0  0  0  0  0  0  0
   -4.6520    0.7191   -0.3653 C   0  0  0  0  0  0  0  0  0  0  0  0
   -3.7350    0.5930   -1.5603 C   0  0  0  0  0  0  0  0  0  0  0  0
   -2.6950   -0.4268   -1.3857 C   0  0  0  0  0  0  0  0  0  0  0  0
   -1.3478   -0.3391   -1.3970 C   0  0  0  0  0  0  0  0  0  0  0  0
   -0.5942    0.9015   -1.6043 C   0  0  0  0  0  0  0  0  0  0  0  0
    0.3044    1.2561   -0.4534 C   0  0  1  0  0  0  0  0  0  0  0  0
   -0.4314    1.4522    0.8538 C   0  0  1  0  0  0  0  0  0  0  0  0
   -1.1708    0.2896    1.1050 O   0  0  0  0  0  0  0  0  0  0  0  0
    0.7168    1.5023    1.8431 C   0  0  0  0  0  0  0  0  0  0  0  0
    1.8490    0.6927    1.2224 C   0  0  1  0  0  0  0  0  0  0  0  0
    2.2629   -0.3568    2.0393 O   0  0  0  0  0  0  0  0  0  0  0  0
    1.2988    0.1770   -0.0995 C   0  0  2  0  0  0  0  0  0  0  0  0
    2.4227    0.1269   -1.0879 C   0  0  0  0  0  0  0  0  0  0  0  0
    2.7717   -0.8850   -1.8457 C   0  0  0  0  0  0  0  0  0  0  0  0
    3.8670   -1.0518   -2.8630 C   0  0  1  0  0  0  0  0  0  0  0  0
    4.3465    0.1287   -3.3599 O   0  0  0  0  0  0  0  0  0  0  0  0
    4.8954   -1.9737   -2.2527 C   0  0  0  0  0  0  0  0  0  0  0  0
    5.6111   -1.5096   -1.1982 O   0  0  0  0  0  0  0  0  0  0  0  0
    6.4820   -0.5392   -0.9210 C   0  0  0  0  0  0  0  0  0  0  0  0
    7.1127    0.4830   -1.5605 C   0  0  0  0  0  0  0  0  0  0  0  0
    7.9921    1.3717   -1.0311 C   0  0  0  0  0  0  0  0  0  0  0  0
    8.2797    1.2213    0.3095 C   0  0  0  0  0  0  0  0  0  0  0  0
    7.7088    0.2258    1.0719 C   0  0  0  0  0  0  0  0  0  0  0  0
    6.8101   -0.6496    0.4447 C   0  0  0  0  0  0  0  0  0  0  0  0
    8.1213    0.2023    2.4825 C   0  0  0  0  0  0  0  0  0  0  0  0
    7.3452   -0.6473    3.2262 F   0  0  0  0  0  0  0  0  0  0  0  0
    9.4490   -0.1771    2.6307 F   0  0  0  0  0  0  0  0  0  0  0  0
    8.0599    1.5097    2.9611 F   0  0  0  0  0  0  0  0  0  0  0  0
   -9.9690    1.1552    2.5307 H   0  0  0  0  0  0  0  0  0  0  0  0
   -8.7350    1.8961    1.4372 H   0  0  0  0  0  0  0  0  0  0  0  0
  -10.1251    0.9959    0.7170 H   0  0  0  0  0  0  0  0  0  0  0  0
   -8.2565   -0.3548    2.7074 H   0  0  0  0  0  0  0  0  0  0  0  0
   -9.2181   -2.2720    1.0103 H   0  0  0  0  0  0  0  0  0  0  0  0
  -10.1900   -1.6943    2.4170 H   0  0  0  0  0  0  0  0  0  0  0  0
  -10.4469   -0.9986    0.7438 H   0  0  0  0  0  0  0  0  0  0  0  0
   -5.8361   -0.9975   -0.9981 H   0  0  0  0  0  0  0  0  0  0  0  0
   -4.5721   -1.3269    0.1996 H   0  0  0  0  0  0  0  0  0  0  0  0
   -5.3810    1.5151   -0.5465 H   0  0  0  0  0  0  0  0  0  0  0  0
   -4.0356    1.0373    0.5003 H   0  0  0  0  0  0  0  0  0  0  0  0
   -4.3497    0.2782   -2.4492 H   0  0  0  0  0  0  0  0  0  0  0  0
   -3.3191    1.6121   -1.7690 H   0  0  0  0  0  0  0  0  0  0  0  0
   -3.1167   -1.4275   -1.2190 H   0  0  0  0  0  0  0  0  0  0  0  0
   -0.7733   -1.2456   -1.2426 H   0  0  0  0  0  0  0  0  0  0  0  0
   -1.2943    1.7519   -1.7275 H   0  0  0  0  0  0  0  0  0  0  0  0
    0.0605    0.8656   -2.5065 H   0  0  0  0  0  0  0  0  0  0  0  0
    0.8659    2.1949   -0.6607 H   0  0  0  0  0  0  0  0  0  0  0  0
   -1.0651    2.3617    0.8759 H   0  0  0  0  0  0  0  0  0  0  0  0
   -1.3039    0.1298    2.0721 H   0  0  0  0  0  0  0  0  0  0  0  0
    0.4301    1.1615    2.8396 H   0  0  0  0  0  0  0  0  0  0  0  0
    1.0273    2.5859    1.8653 H   0  0  0  0  0  0  0  0  0  0  0  0
    2.6995    1.3814    0.9498 H   0  0  0  0  0  0  0  0  0  0  0  0
    2.2702   -0.0991    2.9895 H   0  0  0  0  0  0  0  0  0  0  0  0
    0.8055   -0.7907   -0.0007 H   0  0  0  0  0  0  0  0  0  0  0  0
    3.0556    0.9925   -1.2400 H   0  0  0  0  0  0  0  0  0  0  0  0
    2.1554   -1.7974   -1.7259 H   0  0  0  0  0  0  0  0  0  0  0  0
    3.4266   -1.6264   -3.7442 H   0  0  0  0  0  0  0  0  0  0  0  0
    4.4701    0.8231   -2.6715 H   0  0  0  0  0  0  0  0  0  0  0  0
    4.2839   -2.8618   -1.8795 H   0  0  0  0  0  0  0  0  0  0  0  0
    5.5078   -2.4463   -3.0671 H   0  0  0  0  0  0  0  0  0  0  0  0
    6.8569    0.5366   -2.5892 H   0  0  0  0  0  0  0  0  0  0  0  0
    8.4051    2.1282   -1.6808 H   0  0  0  0  0  0  0  0  0  0  0  0
    8.9842    1.9370    0.7229 H   0  0  0  0  0  0  0  0  0  0  0  0
    6.4601   -1.3704    1.2041 H   0  0  0  0  0  0  0  0  0  0  0  0
  1  2  1  0
  2  3  1  0
  2  4  1  0
  4  5  1  0
  5  6  2  0
  5  7  1  0
  7  8  1  0
  8  9  1  0
  9 10  1  0
 10 11  2  0
 11 12  1  0
 12 13  1  0
 13 14  1  0
 14 15  1  0
 14 16  1  0
 16 17  1  0
 17 18  1  0
 17 19  1  0
 19 20  1  0
 20 21  2  0
 21 22  1  0
 22 23  1  0
 22 24  1  0
 24 25  1  0
 25 26  1  0
 26 27  2  0
 27 28  1  0
 28 29  2  0
 29 30  1  0
 30 31  2  0
 30 32  1  0
 32 33  1  0
 32 34  1  0
 32 35  1  0
 19 13  1  0
 31 26  1  0
  1 36  1  0
  1 37  1  0
  1 38  1  0
  2 39  1  0
  3 40  1  0
  3 41  1  0
  3 42  1  0
  7 43  1  0
  7 44  1  0
  8 45  1  0
  8 46  1  0
  9 47  1  0
  9 48  1  0
 10 49  1  0
 11 50  1  0
 12 51  1  0
 12 52  1  0
 13 53  1  6
 14 54  1  6
 15 55  1  0
 16 56  1  0
 16 57  1  0
 17 58  1  6
 18 59  1  0
 19 60  1  1
 20 61  1  0
 21 62  1  0
 22 63  1  6
 23 64  1  0
 24 65  1  0
 24 66  1  0
 27 67  1  0
 28 68  1  0
 29 69  1  0
 31 70  1  0
M  END
$$$$
