
     RDKit          3D

 38 41  0  0  0  0  0  0  0  0999 V2000
    4.7615   -0.5725    0.0301 C   0  0  0  0  0  0  0  0  0  0  0  0
    3.7967    0.5519    0.1519 C   0  0  0  0  0  0  0  0  0  0  0  0
    2.4286    0.3522    0.0094 C   0  0  0  0  0  0  0  0  0  0  0  0
    1.5155    1.4074    0.1238 C   0  0  0  0  0  0  0  0  0  0  0  0
    1.9454    2.6780    0.3804 C   0  0  0  0  0  0  0  0  0  0  0  0
    3.3034    2.9121    0.5277 C   0  0  0  0  0  0  0  0  0  0  0  0
    4.2002    1.8553    0.4125 C   0  0  0  0  0  0  0  0  0  0  0  0
    0.1004    1.1488   -0.0109 N   0  0  0  0  0  0  0  0  0  0  0  0
   -0.3140   -0.0549   -0.2321 C   0  0  0  0  0  0  0  0  0  0  0  0
   -1.6016   -0.6402   -0.4147 N   0  0  0  0  0  0  0  0  0  0  0  0
   -1.4815   -1.8793   -1.1998 C   0  0  0  0  0  0  0  0  0  0  0  0
    0.0008   -1.8289   -1.6196 C   0  0  0  0  0  0  0  0  0  0  0  0
    0.5554   -1.2700   -0.3302 C   0  0  2  0  0  0  0  0  0  0  0  0
    0.1987   -2.2058    0.6576 O   0  0  0  0  0  0  0  0  0  0  0  0
    1.9785   -1.0165   -0.2888 C   0  0  0  0  0  0  0  0  0  0  0  0
    2.7256   -1.9908   -0.5122 O   0  0  0  0  0  0  0  0  0  0  0  0
   -2.8481   -0.1153    0.0797 C   0  0  0  0  0  0  0  0  0  0  0  0
   -2.8862    1.0511    0.7959 C   0  0  0  0  0  0  0  0  0  0  0  0
   -4.0662    1.5828    1.2851 C   0  0  0  0  0  0  0  0  0  0  0  0
   -5.2624    0.9080    1.0414 C   0  0  0  0  0  0  0  0  0  0  0  0
   -5.2287   -0.2800    0.3126 C   0  0  0  0  0  0  0  0  0  0  0  0
   -4.0186   -0.7665   -0.1533 C   0  0  0  0  0  0  0  0  0  0  0  0
    4.5522   -1.3522    0.8070 H   0  0  0  0  0  0  0  0  0  0  0  0
    4.8088   -1.0129   -0.9783 H   0  0  0  0  0  0  0  0  0  0  0  0
    5.7634   -0.1623    0.3471 H   0  0  0  0  0  0  0  0  0  0  0  0
    1.2471    3.4966    0.4693 H   0  0  0  0  0  0  0  0  0  0  0  0
    3.7091    3.8766    0.7287 H   0  0  0  0  0  0  0  0  0  0  0  0
    5.2722    2.0614    0.5328 H   0  0  0  0  0  0  0  0  0  0  0  0
   -2.1589   -1.9150   -2.0509 H   0  0  0  0  0  0  0  0  0  0  0  0
   -1.5391   -2.7651   -0.5149 H   0  0  0  0  0  0  0  0  0  0  0  0
    0.0856   -1.0831   -2.4558 H   0  0  0  0  0  0  0  0  0  0  0  0
    0.3826   -2.8111   -1.8896 H   0  0  0  0  0  0  0  0  0  0  0  0
    0.5223   -3.0796    0.2795 H   0  0  0  0  0  0  0  0  0  0  0  0
   -1.9963    1.6139    1.0143 H   0  0  0  0  0  0  0  0  0  0  0  0
   -4.1185    2.5075    1.8560 H   0  0  0  0  0  0  0  0  0  0  0  0
   -6.1950    1.3188    1.4223 H   0  0  0  0  0  0  0  0  0  0  0  0
   -6.1539   -0.8230    0.1112 H   0  0  0  0  0  0  0  0  0  0  0  0
   -3.9850   -1.6975   -0.7254 H   0  0  0  0  0  0  0  0  0  0  0  0
  1  2  1  0
  2  3  2  0
  3  4  1  0
  4  5  2  0
  5  6  1  0
  6  7  2  0
  4  8  1  0
  8  9  2  0
  9 10  1  0
 10 11  1  0
 11 12  1  0
 12 13  1  0
 13 14  1  1
 13 15  1  0
 15 16  2  0
 10 17  1  0
 17 18  2  0
 18 19  1  0
 19 20  2  0
 20 21  1  0
 21 22  2  0
  7  2  1  0
 13  9  1  0
 22 17  1  0
 15  3  1  0
  1 23  1  0
  1 24  1  0
  1 25  1  0
  5 26  1  0
  6 27  1  0
  7 28  1  0
 11 29  1  0
 11 30  1  0
 12 31  1  0
 12 32  1  0
 14 33  1  0
 18 34  1  0
 19 35  1  0
 20 36  1  0
 21 37  1  0
 22 38  1  0
M  END
$$$$
