@<TRIPOS>MOLECULE
*****
 38 41 0 0 0
SMALL
GASTEIGER

@<TRIPOS>ATOM
      1 C           4.7615   -0.5725    0.0301 C.3     1  UNL1       -0.0389
      2 C           3.7967    0.5519    0.1519 C.ar    1  UNL1       -0.0357
      3 C           2.4286    0.3522    0.0094 C.ar    1  UNL1        0.0745
      4 C           1.5155    1.4074    0.1238 C.ar    1  UNL1        0.1870
      5 C           1.9454    2.6780    0.3804 C.ar    1  UNL1       -0.0101
      6 C           3.3034    2.9121    0.5277 C.ar    1  UNL1       -0.0574
      7 C           4.2002    1.8553    0.4125 C.ar    1  UNL1       -0.0579
      8 N           0.1004    1.1488   -0.0109 N.2     1  UNL1       -0.0419
      9 C          -0.3140   -0.0549   -0.2321 C.2     1  UNL1        0.3340
     10 N          -1.6016   -0.6402   -0.4147 N.pl3   1  UNL1       -0.1875
     11 C          -1.4815   -1.8793   -1.1998 C.3     1  UNL1        0.0893
     12 C           0.0008   -1.8289   -1.6196 C.3     1  UNL1        0.0315
     13 C           0.5554   -1.2700   -0.3302 C.3     1  UNL1        0.2347
     14 O           0.1987   -2.2058    0.6576 O.3     1  UNL1       -0.3702
     15 C           1.9785   -1.0165   -0.2888 C.2     1  UNL1        0.2110
     16 O           2.7256   -1.9908   -0.5122 O.2     1  UNL1       -0.2882
     17 C          -2.8481   -0.1153    0.0797 C.ar    1  UNL1        0.1208
     18 C          -2.8862    1.0511    0.7959 C.ar    1  UNL1       -0.0169
     19 C          -4.0662    1.5828    1.2851 C.ar    1  UNL1       -0.0579
     20 C          -5.2624    0.9080    1.0414 C.ar    1  UNL1       -0.0615
     21 C          -5.2287   -0.2800    0.3126 C.ar    1  UNL1       -0.0579
     22 C          -4.0186   -0.7665   -0.1533 C.ar    1  UNL1       -0.0169
     23 H           4.5522   -1.3522    0.8070 H       1  UNL1        0.0278
     24 H           4.8088   -1.0129   -0.9783 H       1  UNL1        0.0278
     25 H           5.7634   -0.1623    0.3471 H       1  UNL1        0.0278
     26 H           1.2471    3.4966    0.4693 H       1  UNL1        0.0661
     27 H           3.7091    3.8766    0.7287 H       1  UNL1        0.0619
     28 H           5.2722    2.0614    0.5328 H       1  UNL1        0.0620
     29 H          -2.1589   -1.9150   -2.0509 H       1  UNL1        0.0731
     30 H          -1.5391   -2.7651   -0.5149 H       1  UNL1        0.0731
     31 H           0.0856   -1.0831   -2.4558 H       1  UNL1        0.0340
     32 H           0.3826   -2.8111   -1.8896 H       1  UNL1        0.0340
     33 H           0.5223   -3.0796    0.2795 H       1  UNL1        0.2115
     34 H          -1.9963    1.6139    1.0143 H       1  UNL1        0.0658
     35 H          -4.1185    2.5075    1.8560 H       1  UNL1        0.0619
     36 H          -6.1950    1.3188    1.4223 H       1  UNL1        0.0618
     37 H          -6.1539   -0.8230    0.1112 H       1  UNL1        0.0619
     38 H          -3.9850   -1.6975   -0.7254 H       1  UNL1        0.0658
@<TRIPOS>BOND
     1     1     2    1
     2     2     3   ar
     3     3     4   ar
     4     4     5   ar
     5     5     6   ar
     6     6     7   ar
     7     4     8    1
     8     8     9    2
     9     9    10    1
    10    10    11    1
    11    11    12    1
    12    12    13    1
    13    13    14    1
    14    13    15    1
    15    15    16    2
    16    10    17    1
    17    17    18   ar
    18    18    19   ar
    19    19    20   ar
    20    20    21   ar
    21    21    22   ar
    22     7     2   ar
    23    13     9    1
    24    22    17   ar
    25    15     3    1
    26     1    23    1
    27     1    24    1
    28     1    25    1
    29     5    26    1
    30     6    27    1
    31     7    28    1
    32    11    29    1
    33    11    30    1
    34    12    31    1
    35    12    32    1
    36    14    33    1
    37    18    34    1
    38    19    35    1
    39    20    36    1
    40    21    37    1
    41    22    38    1
