@<TRIPOS>MOLECULE
*****
 42 45 0 0 0
SMALL
GASTEIGER

@<TRIPOS>ATOM
      1 N          -5.4675   -0.8449   -2.0986 N.pl3   1  UNL1       -0.3134
      2 C          -4.7108   -0.2487   -1.0601 C.2     1  UNL1        0.2763
      3 N          -3.4346   -0.3134   -0.9912 N.2     1  UNL1       -0.2225
      4 C          -2.6557    0.2970    0.0721 C.3     1  UNL1        0.1285
      5 C          -2.2816    1.6733   -0.3975 C.3     1  UNL1        0.1199
      6 F          -1.5477    2.4053    0.5003 F       1  UNL1       -0.2462
      7 C          -1.4305   -0.5312    0.1841 C.ar    1  UNL1        0.0227
      8 C          -0.1753   -0.0297   -0.0198 C.ar    1  UNL1       -0.0320
      9 C           0.9943   -0.8055    0.0751 C.ar    1  UNL1        0.0369
     10 N           2.2422   -0.1840   -0.1552 N.am    1  UNL1       -0.2802
     11 C           3.4841   -0.8375   -0.0943 C.2     1  UNL1        0.2666
     12 O           3.6089   -2.0563    0.1749 O.2     1  UNL1       -0.2682
     13 C           4.6963   -0.0278   -0.3650 C.ar    1  UNL1        0.1257
     14 C           5.9306   -0.6309   -0.3150 C.ar    1  UNL1       -0.0298
     15 C           7.0418    0.1214   -0.5655 C.ar    1  UNL1       -0.0397
     16 C           6.9238    1.4499   -0.8602 C.ar    1  UNL1        0.0591
     17 CL          8.3221    2.4482   -1.1871 Cl      1  UNL1       -0.0820
     18 C           5.6765    2.0441   -0.9072 C.ar    1  UNL1        0.0467
     19 N           4.6193    1.2697   -0.6555 N.ar    1  UNL1       -0.2489
     20 C           0.8214   -2.1234    0.3890 C.ar    1  UNL1       -0.0023
     21 C          -0.4473   -2.6499    0.5993 C.ar    1  UNL1        0.1605
     22 F          -0.5870   -3.9615    0.9093 F       1  UNL1       -0.2024
     23 C          -1.5509   -1.8747    0.5000 C.ar    1  UNL1        0.1641
     24 F          -2.7993   -2.3567    0.6986 F       1  UNL1       -0.2021
     25 C          -3.3746    0.3049    1.3885 C.3     1  UNL1        0.0315
     26 C          -4.1080    1.4934    1.8680 C.3     1  UNL1       -0.0065
     27 C          -4.8466    0.3187    1.2947 C.3     1  UNL1        0.1090
     28 O          -5.3423    0.4667   -0.0192 O.2     1  UNL1       -0.4622
     29 H          -5.7154   -0.2854   -2.9253 H       1  UNL1        0.1466
     30 H          -5.7625   -1.8257   -2.0210 H       1  UNL1        0.1466
     31 H          -1.6583    1.5538   -1.3178 H       1  UNL1        0.0643
     32 H          -3.1694    2.2504   -0.7464 H       1  UNL1        0.0643
     33 H          -0.0138    1.0084   -0.2747 H       1  UNL1        0.0640
     34 H           2.2566    0.8430   -0.3905 H       1  UNL1        0.1552
     35 H           5.9839   -1.7013   -0.0746 H       1  UNL1        0.0641
     36 H           8.0191   -0.3536   -0.5265 H       1  UNL1        0.0633
     37 H           5.6015    3.0858   -1.1395 H       1  UNL1        0.0844
     38 H           1.6494   -2.8065    0.4869 H       1  UNL1        0.0666
     39 H          -2.9408   -0.3502    2.1656 H       1  UNL1        0.0365
     40 H          -4.2417    1.6368    2.9533 H       1  UNL1        0.0306
     41 H          -4.1344    2.4463    1.3004 H       1  UNL1        0.0306
     42 H          -5.4759   -0.3181    1.9429 H       1  UNL1        0.0737
@<TRIPOS>BOND
     1     1     2    1
     2     2     3    2
     3     3     4    1
     4     4     5    1
     5     5     6    1
     6     4     7    1
     7     7     8   ar
     8     8     9   ar
     9     9    10    1
    10    10    11   am
    11    11    12    2
    12    11    13    1
    13    13    14   ar
    14    14    15   ar
    15    15    16   ar
    16    16    17    1
    17    16    18   ar
    18    18    19   ar
    19     9    20   ar
    20    20    21   ar
    21    21    22    1
    22    21    23   ar
    23    23    24    1
    24     4    25    1
    25    25    26    1
    26    26    27    1
    27    27    28    1
    28    28     2    1
    29    23     7   ar
    30    27    25    1
    31    19    13   ar
    32     1    29    1
    33     1    30    1
    34     5    31    1
    35     5    32    1
    36     8    33    1
    37    10    34    1
    38    14    35    1
    39    15    36    1
    40    18    37    1
    41    20    38    1
    42    25    39    1
    43    26    40    1
    44    26    41    1
    45    27    42    1
