@<TRIPOS>MOLECULE
*****
 36 36 0 0 0
SMALL
GASTEIGER

@<TRIPOS>ATOM
      1 C          -5.4913   -0.6470   -0.4195 C.3     1  UNL1       -0.0650
      2 C          -3.9978   -0.8927   -0.3420 C.3     1  UNL1       -0.0518
      3 C          -3.3486    0.4278    0.0076 C.3     1  UNL1       -0.0244
      4 C          -1.8616    0.2939    0.1095 C.ar    1  UNL1       -0.0023
      5 C          -1.0246    0.7477   -0.8813 C.ar    1  UNL1       -0.0097
      6 C           0.3399    0.6262   -0.7886 C.ar    1  UNL1        0.1620
      7 O           1.2118    1.0720   -1.7672 O.3     1  UNL1       -0.4914
      8 C           0.8334    1.6925   -2.9561 C.3     1  UNL1        0.0790
      9 C           0.8490    0.0256    0.3473 C.ar    1  UNL1        0.1662
     10 O           2.2086   -0.1002    0.4492 O.3     1  UNL1       -0.4770
     11 C           2.7872   -0.7054    1.5852 C.3     1  UNL1        0.1860
     12 C           4.2482   -0.7046    1.4241 C.2     1  UNL1        0.3449
     13 O           4.9712   -1.1955    2.3123 O.2     1  UNL1       -0.2470
     14 O           4.8161   -0.1645    0.2981 O.3     1  UNL1       -0.4656
     15 C           6.2000   -0.1151    0.0493 C.3     1  UNL1        0.0818
     16 C           0.0081   -0.4311    1.3445 C.ar    1  UNL1        0.0255
     17 C          -1.3704   -0.3103    1.2544 C.ar    1  UNL1        0.1237
     18 O          -2.2073   -0.7726    2.2620 O.3     1  UNL1       -0.5064
     19 H          -5.8506    0.0405    0.3771 H       1  UNL1        0.0230
     20 H          -6.0826   -1.5839   -0.3344 H       1  UNL1        0.0230
     21 H          -5.7422   -0.1611   -1.3923 H       1  UNL1        0.0230
     22 H          -3.6285   -1.2654   -1.2970 H       1  UNL1        0.0266
     23 H          -3.8027   -1.5964    0.4976 H       1  UNL1        0.0266
     24 H          -3.7684    0.7724    0.9799 H       1  UNL1        0.0314
     25 H          -3.6168    1.2122   -0.7284 H       1  UNL1        0.0314
     26 H          -1.4654    1.2157   -1.7605 H       1  UNL1        0.0659
     27 H          -0.1236    1.3434   -3.3646 H       1  UNL1        0.0660
     28 H           0.8111    2.8061   -2.8824 H       1  UNL1        0.0660
     29 H           1.6014    1.4756   -3.7511 H       1  UNL1        0.0660
     30 H           2.3766   -1.7304    1.7543 H       1  UNL1        0.0815
     31 H           2.5206   -0.0968    2.5004 H       1  UNL1        0.0815
     32 H           6.5504   -0.9565   -0.5936 H       1  UNL1        0.0661
     33 H           6.3865    0.8743   -0.4642 H       1  UNL1        0.0661
     34 H           6.7846   -0.0715    1.0008 H       1  UNL1        0.0661
     35 H           0.4178   -0.9046    2.2400 H       1  UNL1        0.0692
     36 H          -2.5401   -0.0961    2.9296 H       1  UNL1        0.2921
@<TRIPOS>BOND
     1     1     2    1
     2     2     3    1
     3     3     4    1
     4     4     5   ar
     5     5     6   ar
     6     6     7    1
     7     7     8    1
     8     6     9   ar
     9     9    10    1
    10    10    11    1
    11    11    12    1
    12    12    13    2
    13    12    14    1
    14    14    15    1
    15     9    16   ar
    16    16    17   ar
    17    17    18    1
    18    17     4   ar
    19     1    19    1
    20     1    20    1
    21     1    21    1
    22     2    22    1
    23     2    23    1
    24     3    24    1
    25     3    25    1
    26     5    26    1
    27     8    27    1
    28     8    28    1
    29     8    29    1
    30    11    30    1
    31    11    31    1
    32    15    32    1
    33    15    33    1
    34    15    34    1
    35    16    35    1
    36    18    36    1
