
     RDKit          3D

 36 36  0  0  0  0  0  0  0  0999 V2000
   -5.4913   -0.6470   -0.4195 C   0  0  0  0  0  0  0  0  0  0  0  0
   -3.9978   -0.8927   -0.3420 C   0  0  0  0  0  0  0  0  0  0  0  0
   -3.3486    0.4278    0.0076 C   0  0  0  0  0  0  0  0  0  0  0  0
   -1.8616    0.2939    0.1095 C   0  0  0  0  0  0  0  0  0  0  0  0
   -1.0246    0.7477   -0.8813 C   0  0  0  0  0  0  0  0  0  0  0  0
    0.3399    0.6262   -0.7886 C   0  0  0  0  0  0  0  0  0  0  0  0
    1.2118    1.0720   -1.7672 O   0  0  0  0  0  0  0  0  0  0  0  0
    0.8334    1.6925   -2.9561 C   0  0  0  0  0  0  0  0  0  0  0  0
    0.8490    0.0256    0.3473 C   0  0  0  0  0  0  0  0  0  0  0  0
    2.2086   -0.1002    0.4492 O   0  0  0  0  0  0  0  0  0  0  0  0
    2.7872   -0.7054    1.5852 C   0  0  0  0  0  0  0  0  0  0  0  0
    4.2482   -0.7046    1.4241 C   0  0  0  0  0  0  0  0  0  0  0  0
    4.9712   -1.1955    2.3123 O   0  0  0  0  0  0  0  0  0  0  0  0
    4.8161   -0.1645    0.2981 O   0  0  0  0  0  0  0  0  0  0  0  0
    6.2000   -0.1151    0.0493 C   0  0  0  0  0  0  0  0  0  0  0  0
    0.0081   -0.4311    1.3445 C   0  0  0  0  0  0  0  0  0  0  0  0
   -1.3704   -0.3103    1.2544 C   0  0  0  0  0  0  0  0  0  0  0  0
   -2.2073   -0.7726    2.2620 O   0  0  0  0  0  0  0  0  0  0  0  0
   -5.8506    0.0405    0.3771 H   0  0  0  0  0  0  0  0  0  0  0  0
   -6.0826   -1.5839   -0.3344 H   0  0  0  0  0  0  0  0  0  0  0  0
   -5.7422   -0.1611   -1.3923 H   0  0  0  0  0  0  0  0  0  0  0  0
   -3.6285   -1.2654   -1.2970 H   0  0  0  0  0  0  0  0  0  0  0  0
   -3.8027   -1.5964    0.4976 H   0  0  0  0  0  0  0  0  0  0  0  0
   -3.7684    0.7724    0.9799 H   0  0  0  0  0  0  0  0  0  0  0  0
   -3.6168    1.2122   -0.7284 H   0  0  0  0  0  0  0  0  0  0  0  0
   -1.4654    1.2157   -1.7605 H   0  0  0  0  0  0  0  0  0  0  0  0
   -0.1236    1.3434   -3.3646 H   0  0  0  0  0  0  0  0  0  0  0  0
    0.8111    2.8061   -2.8824 H   0  0  0  0  0  0  0  0  0  0  0  0
    1.6014    1.4756   -3.7511 H   0  0  0  0  0  0  0  0  0  0  0  0
    2.3766   -1.7304    1.7543 H   0  0  0  0  0  0  0  0  0  0  0  0
    2.5206   -0.0968    2.5004 H   0  0  0  0  0  0  0  0  0  0  0  0
    6.5504   -0.9565   -0.5936 H   0  0  0  0  0  0  0  0  0  0  0  0
    6.3865    0.8743   -0.4642 H   0  0  0  0  0  0  0  0  0  0  0  0
    6.7846   -0.0715    1.0008 H   0  0  0  0  0  0  0  0  0  0  0  0
    0.4178   -0.9046    2.2400 H   0  0  0  0  0  0  0  0  0  0  0  0
   -2.5401   -0.0961    2.9296 H   0  0  0  0  0  0  0  0  0  0  0  0
  1  2  1  0
  2  3  1  0
  3  4  1  0
  4  5  2  0
  5  6  1  0
  6  7  1  0
  7  8  1  0
  6  9  2  0
  9 10  1  0
 10 11  1  0
 11 12  1  0
 12 13  2  0
 12 14  1  0
 14 15  1  0
  9 16  1  0
 16 17  2  0
 17 18  1  0
 17  4  1  0
  1 19  1  0
  1 20  1  0
  1 21  1  0
  2 22  1  0
  2 23  1  0
  3 24  1  0
  3 25  1  0
  5 26  1  0
  8 27  1  0
  8 28  1  0
  8 29  1  0
 11 30  1  0
 11 31  1  0
 15 32  1  0
 15 33  1  0
 15 34  1  0
 16 35  1  0
 18 36  1  0
M  END
$$$$
