@<TRIPOS>MOLECULE
*****
 52 55 0 0 0
SMALL
GASTEIGER

@<TRIPOS>ATOM
      1 C          -2.5621   -1.6090    0.4537 C.3     1  UNL1        0.0093
      2 N          -2.1300   -0.3816   -0.1328 N.3     1  UNL1       -0.1763
      3 C          -0.7540   -0.3260   -0.5000 C.3     1  UNL1        0.0356
      4 C          -0.2101   -1.7513   -0.5893 C.3     1  UNL1       -0.0303
      5 C           1.0807   -1.6300   -1.3765 C.3     1  UNL1       -0.0132
      6 C           1.9879   -0.6932   -0.6773 C.2     1  UNL1        0.0074
      7 C           1.5265    0.2365    0.2021 C.2     1  UNL1       -0.0422
      8 C           0.0811    0.3834    0.5098 C.3     1  UNL1       -0.0121
      9 C           2.7329    0.8435    0.7310 C.3     1  UNL1        0.0223
     10 C           2.8631    1.9083    1.6210 C.2     1  UNL1       -0.0748
     11 C           3.8884    2.7453    1.5502 C.2     1  UNL1       -0.0653
     12 C           4.8762    2.5809    0.4833 C.2     1  UNL1       -0.0642
     13 C           4.7214    1.6512   -0.4576 C.2     1  UNL1       -0.0630
     14 C           3.5859    0.8455   -0.4772 C.3     1  UNL1        0.0524
     15 N           3.4523   -0.5286   -0.8160 N.pl3   1  UNL1       -0.3152
     16 C           4.3247   -1.5740   -1.2249 C.3     1  UNL1        0.1096
     17 C           5.2977   -2.0635   -0.2652 C.2     1  UNL1        0.3222
     18 O           6.0590   -3.0289   -0.5953 O.2     1  UNL1       -0.2492
     19 O           5.4547   -1.5475    0.9919 O.3     1  UNL1       -0.4795
     20 S          -3.2062    0.2324   -1.3110 S.O2    1  UNL1        0.0609
     21 O          -2.6736    1.5663   -1.7906 O.2     1  UNL1       -0.1528
     22 O          -3.4409   -0.6873   -2.4542 O.2     1  UNL1       -0.1528
     23 C          -4.7371    0.5531   -0.5319 C.ar    1  UNL1        0.1056
     24 C          -5.0144    1.7820    0.0467 C.ar    1  UNL1       -0.0326
     25 C          -6.2343    2.0297    0.6637 C.ar    1  UNL1       -0.0246
     26 C          -7.1865    1.0420    0.7038 C.ar    1  UNL1        0.1235
     27 F          -8.3969    1.2715    1.3100 F       1  UNL1       -0.2055
     28 C          -6.9033   -0.1774    0.1261 C.ar    1  UNL1       -0.0246
     29 C          -5.6953   -0.4375   -0.4904 C.ar    1  UNL1       -0.0326
     30 H          -2.7523   -2.4261   -0.2804 H       1  UNL1        0.0408
     31 H          -3.5104   -1.3778    1.0230 H       1  UNL1        0.0408
     32 H          -1.8407   -1.9500    1.2017 H       1  UNL1        0.0408
     33 H          -0.5856    0.1146   -1.5119 H       1  UNL1        0.0483
     34 H           0.0327   -2.1089    0.4283 H       1  UNL1        0.0284
     35 H          -0.8874   -2.4399   -1.0922 H       1  UNL1        0.0284
     36 H           1.5706   -2.6405   -1.4646 H       1  UNL1        0.0326
     37 H           0.8216   -1.2779   -2.3700 H       1  UNL1        0.0326
     38 H          -0.1585    1.4630    0.6053 H       1  UNL1        0.0326
     39 H          -0.0720   -0.1366    1.4982 H       1  UNL1        0.0326
     40 H           3.2178   -0.1242    1.3517 H       1  UNL1        0.0410
     41 H           2.1392    2.1083    2.4127 H       1  UNL1        0.0579
     42 H           3.9990    3.5458    2.2726 H       1  UNL1        0.0615
     43 H           5.7534    3.2274    0.4556 H       1  UNL1        0.0615
     44 H           5.5253    1.5731   -1.1860 H       1  UNL1        0.0591
     45 H           2.8523    1.4056   -1.3035 H       1  UNL1        0.0553
     46 H           3.7067   -2.4754   -1.5341 H       1  UNL1        0.0579
     47 H           4.8491   -1.2983   -2.1971 H       1  UNL1        0.0579
     48 H           6.3433   -1.6080    1.4525 H       1  UNL1        0.2951
     49 H          -4.2593    2.5623    0.0137 H       1  UNL1        0.0638
     50 H          -6.4327    2.9959    1.1102 H       1  UNL1        0.0647
     51 H          -7.6422   -0.9817    0.1431 H       1  UNL1        0.0647
     52 H          -5.4578   -1.3869   -0.9474 H       1  UNL1        0.0638
@<TRIPOS>BOND
     1     1     2    1
     2     2     3    1
     3     3     4    1
     4     4     5    1
     5     5     6    1
     6     6     7    2
     7     7     8    1
     8     7     9    1
     9     9    10    1
    10    10    11    2
    11    11    12    1
    12    12    13    2
    13    13    14    1
    14    14    15    1
    15    15    16    1
    16    16    17    1
    17    17    18    2
    18    17    19    1
    19     2    20    1
    20    20    21    2
    21    20    22    2
    22    20    23    1
    23    23    24   ar
    24    24    25   ar
    25    25    26   ar
    26    26    27    1
    27    26    28   ar
    28    28    29   ar
    29     8     3    1
    30    14     9    1
    31    29    23   ar
    32    15     6    1
    33     1    30    1
    34     1    31    1
    35     1    32    1
    36     3    33    1
    37     4    34    1
    38     4    35    1
    39     5    36    1
    40     5    37    1
    41     8    38    1
    42     8    39    1
    43     9    40    1
    44    10    41    1
    45    11    42    1
    46    12    43    1
    47    13    44    1
    48    14    45    1
    49    16    46    1
    50    16    47    1
    51    19    48    1
    52    24    49    1
    53    25    50    1
    54    28    51    1
    55    29    52    1
