@<TRIPOS>MOLECULE
*****
 46 49 0 0 0
SMALL
GASTEIGER

@<TRIPOS>ATOM
      1 C           7.8460    0.7704    1.6095 C.3     1  UNL1        0.0004
      2 N           6.5181    0.5310    1.1322 N.am    1  UNL1       -0.3143
      3 C           5.8428    1.5743    0.4452 C.2     1  UNL1        0.2468
      4 O           6.4440    2.6860    0.2787 O.2     1  UNL1       -0.2701
      5 C           4.4890    1.3831   -0.0615 C.ar    1  UNL1        0.0746
      6 C           3.6700    0.2992    0.0012 C.ar    1  UNL1        0.0465
      7 N           2.4762    0.5570   -0.6083 N.ar    1  UNL1       -0.2048
      8 N           2.5619    1.7920   -1.0426 N.ar    1  UNL1       -0.1715
      9 C           3.7537    2.3333   -0.7387 C.ar    1  UNL1        0.0620
     10 C           1.3858   -0.3775   -0.7188 C.ar    1  UNL1        0.2550
     11 N           0.1042    0.0711   -0.6924 N.ar    1  UNL1       -0.1908
     12 C          -0.8593   -0.8795   -0.8026 C.ar    1  UNL1        0.1695
     13 C          -0.4924   -2.2090   -0.9314 C.ar    1  UNL1        0.1474
     14 N          -1.5948   -3.0073   -1.0283 N.ar    1  UNL1       -0.2306
     15 C          -2.6479   -2.1749   -0.9599 C.ar    1  UNL1        0.1004
     16 N          -2.2085   -0.8939   -0.8240 N.ar    1  UNL1       -0.2855
     17 C1*        -3.0338    0.2692   -0.7188 C.3     1  UNL1        0.1667
     18 O4*        -2.8047    1.0436    0.4053 O.3     1  UNL1       -0.3457
     19 C4*        -3.9648    1.7391    0.6819 C.3     1  UNL1        0.1126
     20 C5*        -4.2050    1.6542    2.1779 C.3     1  UNL1        0.0730
     21 O5*        -3.1056    2.2300    2.8134 O.3     1  UNL1       -0.3924
     22 C3*        -5.1012    1.0963   -0.0274 C.3     1  UNL1        0.1135
     23 O3*        -5.6802    1.9071   -1.0017 O.3     1  UNL1       -0.3864
     24 C2*        -4.5049   -0.1453   -0.6303 C.3     1  UNL1        0.1285
     25 O2*        -5.0607   -0.3391   -1.8803 O.3     1  UNL1       -0.3847
     26 C           0.8103   -2.6413   -0.9558 C.ar    1  UNL1        0.1493
     27 N           1.1953   -4.0006   -1.0873 N.pl3   1  UNL1       -0.3413
     28 N           1.7502   -1.6869   -0.8456 N.ar    1  UNL1       -0.1938
     29 H           8.1565    0.0271    2.3906 H       1  UNL1        0.0426
     30 H           8.5986    0.7771    0.8125 H       1  UNL1        0.0426
     31 H           7.9367    1.7593    2.1436 H       1  UNL1        0.0426
     32 H           6.0624   -0.4047    1.2939 H       1  UNL1        0.1487
     33 H           3.9067   -0.6486    0.4640 H       1  UNL1        0.0839
     34 H           4.0925    3.3417   -0.9782 H       1  UNL1        0.0856
     35 H          -3.7093   -2.4411   -1.0024 H       1  UNL1        0.1030
     36 H1*        -2.9714    0.9551   -1.6035 H       1  UNL1        0.0866
     37 H4*        -3.9307    2.8006    0.3670 H       1  UNL1        0.0647
     38 H5*1       -5.1638    2.1314    2.4551 H       1  UNL1        0.0584
     39 H5*2       -4.2853    0.5804    2.4439 H       1  UNL1        0.0584
     40 H5*        -2.7616    3.0063    2.2895 H       1  UNL1        0.2095
     41 H3*        -5.9169    0.8150    0.6773 H       1  UNL1        0.0647
     42 H3*        -6.0565    1.2992   -1.6899 H       1  UNL1        0.2100
     43 H2*        -4.6619   -0.9705    0.0693 H       1  UNL1        0.0665
     44 H2*        -5.6480   -1.1442   -1.8087 H       1  UNL1        0.2101
     45 H           0.6548   -4.8367   -0.8073 H       1  UNL1        0.1438
     46 H           2.1134   -4.2059   -1.5065 H       1  UNL1        0.1438
@<TRIPOS>BOND
     1     1     2    1
     2     2     3   am
     3     3     4    2
     4     3     5    1
     5     5     6   ar
     6     6     7   ar
     7     7     8   ar
     8     8     9   ar
     9     7    10    1
    10    10    11   ar
    11    11    12   ar
    12    12    13   ar
    13    13    14   ar
    14    14    15   ar
    15    15    16   ar
    16    16    17    1
    17    17    18    1
    18    18    19    1
    19    19    20    1
    20    20    21    1
    21    19    22    1
    22    22    23    1
    23    22    24    1
    24    24    25    1
    25    13    26   ar
    26    26    27    1
    27    26    28   ar
    28     9     5   ar
    29    28    10   ar
    30    16    12   ar
    31    24    17    1
    32     1    29    1
    33     1    30    1
    34     1    31    1
    35     2    32    1
    36     6    33    1
    37     9    34    1
    38    15    35    1
    39    17    36    1
    40    19    37    1
    41    20    38    1
    42    20    39    1
    43    21    40    1
    44    22    41    1
    45    23    42    1
    46    24    43    1
    47    25    44    1
    48    27    45    1
    49    27    46    1
