
     RDKit          3D

 46 49  0  0  0  0  0  0  0  0999 V2000
    7.8460    0.7704    1.6095 C   0  0  0  0  0  0  0  0  0  0  0  0
    6.5181    0.5310    1.1322 N   0  0  0  0  0  0  0  0  0  0  0  0
    5.8428    1.5743    0.4452 C   0  0  0  0  0  0  0  0  0  0  0  0
    6.4440    2.6860    0.2787 O   0  0  0  0  0  0  0  0  0  0  0  0
    4.4890    1.3831   -0.0615 C   0  0  0  0  0  0  0  0  0  0  0  0
    3.6700    0.2992    0.0012 C   0  0  0  0  0  0  0  0  0  0  0  0
    2.4762    0.5570   -0.6083 N   0  0  0  0  0  0  0  0  0  0  0  0
    2.5619    1.7920   -1.0426 N   0  0  0  0  0  0  0  0  0  0  0  0
    3.7537    2.3333   -0.7387 C   0  0  0  0  0  0  0  0  0  0  0  0
    1.3858   -0.3775   -0.7188 C   0  0  0  0  0  0  0  0  0  0  0  0
    0.1042    0.0711   -0.6924 N   0  0  0  0  0  0  0  0  0  0  0  0
   -0.8593   -0.8795   -0.8026 C   0  0  0  0  0  0  0  0  0  0  0  0
   -0.4924   -2.2090   -0.9314 C   0  0  0  0  0  0  0  0  0  0  0  0
   -1.5948   -3.0073   -1.0283 N   0  0  0  0  0  0  0  0  0  0  0  0
   -2.6479   -2.1749   -0.9599 C   0  0  0  0  0  0  0  0  0  0  0  0
   -2.2085   -0.8939   -0.8240 N   0  0  0  0  0  0  0  0  0  0  0  0
   -3.0338    0.2692   -0.7188 C   0  0  2  0  0  0  0  0  0  0  0  0
   -2.8047    1.0436    0.4053 O   0  0  0  0  0  0  0  0  0  0  0  0
   -3.9648    1.7391    0.6819 C   0  0  2  0  0  0  0  0  0  0  0  0
   -4.2050    1.6542    2.1779 C   0  0  0  0  0  0  0  0  0  0  0  0
   -3.1056    2.2300    2.8134 O   0  0  0  0  0  0  0  0  0  0  0  0
   -5.1012    1.0963   -0.0274 C   0  0  1  0  0  0  0  0  0  0  0  0
   -5.6802    1.9071   -1.0017 O   0  0  0  0  0  0  0  0  0  0  0  0
   -4.5049   -0.1453   -0.6303 C   0  0  1  0  0  0  0  0  0  0  0  0
   -5.0607   -0.3391   -1.8803 O   0  0  0  0  0  0  0  0  0  0  0  0
    0.8103   -2.6413   -0.9558 C   0  0  0  0  0  0  0  0  0  0  0  0
    1.1953   -4.0006   -1.0873 N   0  0  0  0  0  0  0  0  0  0  0  0
    1.7502   -1.6869   -0.8456 N   0  0  0  0  0  0  0  0  0  0  0  0
    8.1565    0.0271    2.3906 H   0  0  0  0  0  0  0  0  0  0  0  0
    8.5986    0.7771    0.8125 H   0  0  0  0  0  0  0  0  0  0  0  0
    7.9367    1.7593    2.1436 H   0  0  0  0  0  0  0  0  0  0  0  0
    6.0624   -0.4047    1.2939 H   0  0  0  0  0  0  0  0  0  0  0  0
    3.9067   -0.6486    0.4640 H   0  0  0  0  0  0  0  0  0  0  0  0
    4.0925    3.3417   -0.9782 H   0  0  0  0  0  0  0  0  0  0  0  0
   -3.7093   -2.4411   -1.0024 H   0  0  0  0  0  0  0  0  0  0  0  0
   -2.9714    0.9551   -1.6035 H   0  0  0  0  0  0  0  0  0  0  0  0
   -3.9307    2.8006    0.3670 H   0  0  0  0  0  0  0  0  0  0  0  0
   -5.1638    2.1314    2.4551 H   0  0  0  0  0  0  0  0  0  0  0  0
   -4.2853    0.5804    2.4439 H   0  0  0  0  0  0  0  0  0  0  0  0
   -2.7616    3.0063    2.2895 H   0  0  0  0  0  0  0  0  0  0  0  0
   -5.9169    0.8150    0.6773 H   0  0  0  0  0  0  0  0  0  0  0  0
   -6.0565    1.2992   -1.6899 H   0  0  0  0  0  0  0  0  0  0  0  0
   -4.6619   -0.9705    0.0693 H   0  0  0  0  0  0  0  0  0  0  0  0
   -5.6480   -1.1442   -1.8087 H   0  0  0  0  0  0  0  0  0  0  0  0
    0.6548   -4.8367   -0.8073 H   0  0  0  0  0  0  0  0  0  0  0  0
    2.1134   -4.2059   -1.5065 H   0  0  0  0  0  0  0  0  0  0  0  0
  1  2  1  0
  2  3  1  0
  3  4  2  0
  3  5  1  0
  5  6  2  0
  6  7  1  0
  7  8  1  0
  8  9  2  0
  7 10  1  0
 10 11  2  0
 11 12  1  0
 12 13  2  0
 13 14  1  0
 14 15  2  0
 15 16  1  0
 16 17  1  0
 17 18  1  0
 18 19  1  0
 19 20  1  0
 20 21  1  0
 19 22  1  0
 22 23  1  0
 22 24  1  0
 24 25  1  0
 13 26  1  0
 26 27  1  0
 26 28  2  0
  9  5  1  0
 28 10  1  0
 16 12  1  0
 24 17  1  0
  1 29  1  0
  1 30  1  0
  1 31  1  0
  2 32  1  0
  6 33  1  0
  9 34  1  0
 15 35  1  0
 17 36  1  6
 19 37  1  6
 20 38  1  0
 20 39  1  0
 21 40  1  0
 22 41  1  1
 23 42  1  0
 24 43  1  1
 25 44  1  0
 27 45  1  0
 27 46  1  0
M  END
$$$$
