@<TRIPOS>MOLECULE
*****
 48 51 0 0 0
SMALL
GASTEIGER

@<TRIPOS>ATOM
      1 N          -2.0814    4.9248    1.5434 N.am    1  UNL1       -0.3241
      2 C          -2.4359    3.5977    1.1392 C.2     1  UNL1        0.2599
      3 O          -3.6282    3.3169    0.8601 O.2     1  UNL1       -0.2687
      4 C          -1.4146    2.5941    1.0571 C.ar    1  UNL1        0.1281
      5 C          -0.1133    2.9217    1.3670 C.ar    1  UNL1        0.0588
      6 N           0.8576    2.0123    1.3005 N.ar    1  UNL1       -0.2346
      7 C           0.5604    0.7657    0.9273 C.ar    1  UNL1        0.1623
      8 N           1.5433   -0.2651    0.8316 N.pl3   1  UNL1       -0.3233
      9 C           2.9002    0.0729    1.1453 C.3     1  UNL1        0.0222
     10 C           3.8329   -1.1065    1.0668 C.3     1  UNL1       -0.0331
     11 C           4.0076   -1.6540   -0.3092 C.3     1  UNL1       -0.0361
     12 C           4.0260   -0.6639   -1.4080 C.3     1  UNL1        0.0050
     13 N           5.3726   -0.1969   -1.7503 N.3     1  UNL1       -0.3272
     14 C           3.0960    0.5135   -1.2273 C.3     1  UNL1       -0.0361
     15 C           3.3885    1.1096    0.1232 C.3     1  UNL1       -0.0331
     16 C          -0.7469    0.4161    0.6107 C.ar    1  UNL1        0.1792
     17 N          -1.2833   -0.7668    0.2126 N.ar    1  UNL1       -0.2245
     18 C          -2.6049   -0.6222    0.0212 C.ar    1  UNL1        0.0899
     19 C          -3.5527   -1.6424   -0.4060 C.ar    1  UNL1        0.0019
     20 C          -3.1857   -2.9366   -0.6763 C.ar    1  UNL1       -0.0511
     21 C          -4.0668   -3.9082   -1.0793 C.ar    1  UNL1       -0.0428
     22 C          -5.4073   -3.5774   -1.2260 C.ar    1  UNL1        0.0410
     23 CL         -6.5873   -4.7478   -1.7320 Cl      1  UNL1       -0.0835
     24 C          -5.8050   -2.2863   -0.9619 C.ar    1  UNL1       -0.0428
     25 C          -4.8824   -1.3154   -0.5518 C.ar    1  UNL1       -0.0511
     26 C          -2.8679    0.7070    0.3185 C.ar    1  UNL1        0.0380
     27 N          -1.7187    1.3428    0.6815 N.ar    1  UNL1       -0.2907
     28 H          -2.3581    5.2482    2.4917 H       1  UNL1        0.1453
     29 H          -1.5607    5.5301    0.8869 H       1  UNL1        0.1453
     30 H           0.1771    3.9263    1.6766 H       1  UNL1        0.0853
     31 H           1.2883   -1.2362    0.5429 H       1  UNL1        0.1478
     32 H           2.9335    0.4663    2.1783 H       1  UNL1        0.0498
     33 H           4.8053   -0.7966    1.5047 H       1  UNL1        0.0284
     34 H           3.4249   -1.8966    1.7338 H       1  UNL1        0.0284
     35 H           4.9997   -2.1954   -0.3216 H       1  UNL1        0.0281
     36 H           3.2501   -2.4630   -0.4814 H       1  UNL1        0.0281
     37 H           3.6674   -1.1879   -2.3442 H       1  UNL1        0.0458
     38 H           5.9498   -0.0248   -0.9229 H       1  UNL1        0.1185
     39 H           5.2386    0.7151   -2.2425 H       1  UNL1        0.1185
     40 H           2.0632    0.1014   -1.2019 H       1  UNL1        0.0281
     41 H           3.2567    1.1986   -2.0618 H       1  UNL1        0.0281
     42 H           2.9759    2.0995    0.2840 H       1  UNL1        0.0284
     43 H           4.4915    1.1790    0.3154 H       1  UNL1        0.0284
     44 H          -2.1482   -3.2056   -0.5661 H       1  UNL1        0.0625
     45 H          -3.7910   -4.9305   -1.2951 H       1  UNL1        0.0632
     46 H          -6.8268   -1.9796   -1.0596 H       1  UNL1        0.0632
     47 H          -5.1962   -0.2936   -0.3427 H       1  UNL1        0.0625
     48 H          -3.8440    1.1399    0.2612 H       1  UNL1        0.0835
@<TRIPOS>BOND
     1     1     2   am
     2     2     3    2
     3     2     4    1
     4     4     5   ar
     5     5     6   ar
     6     6     7   ar
     7     7     8    1
     8     8     9    1
     9     9    10    1
    10    10    11    1
    11    11    12    1
    12    12    13    1
    13    12    14    1
    14    14    15    1
    15     7    16   ar
    16    16    17   ar
    17    17    18   ar
    18    18    19    1
    19    19    20   ar
    20    20    21   ar
    21    21    22   ar
    22    22    23    1
    23    22    24   ar
    24    24    25   ar
    25    18    26   ar
    26    26    27   ar
    27    27     4   ar
    28    15     9    1
    29    27    16   ar
    30    25    19   ar
    31     1    28    1
    32     1    29    1
    33     5    30    1
    34     8    31    1
    35     9    32    1
    36    10    33    1
    37    10    34    1
    38    11    35    1
    39    11    36    1
    40    12    37    1
    41    13    38    1
    42    13    39    1
    43    14    40    1
    44    14    41    1
    45    15    42    1
    46    15    43    1
    47    20    44    1
    48    21    45    1
    49    24    46    1
    50    25    47    1
    51    26    48    1
