
     RDKit          3D

 48 51  0  0  0  0  0  0  0  0999 V2000
   -2.0814    4.9248    1.5434 N   0  0  0  0  0  0  0  0  0  0  0  0
   -2.4359    3.5977    1.1392 C   0  0  0  0  0  0  0  0  0  0  0  0
   -3.6282    3.3169    0.8601 O   0  0  0  0  0  0  0  0  0  0  0  0
   -1.4146    2.5941    1.0571 C   0  0  0  0  0  0  0  0  0  0  0  0
   -0.1133    2.9217    1.3670 C   0  0  0  0  0  0  0  0  0  0  0  0
    0.8576    2.0123    1.3005 N   0  0  0  0  0  0  0  0  0  0  0  0
    0.5604    0.7657    0.9273 C   0  0  0  0  0  0  0  0  0  0  0  0
    1.5433   -0.2651    0.8316 N   0  0  0  0  0  0  0  0  0  0  0  0
    2.9002    0.0729    1.1453 C   0  0  1  0  0  0  0  0  0  0  0  0
    3.8329   -1.1065    1.0668 C   0  0  0  0  0  0  0  0  0  0  0  0
    4.0076   -1.6540   -0.3092 C   0  0  0  0  0  0  0  0  0  0  0  0
    4.0260   -0.6639   -1.4080 C   0  0  2  0  0  0  0  0  0  0  0  0
    5.3726   -0.1969   -1.7503 N   0  0  0  0  0  0  0  0  0  0  0  0
    3.0960    0.5135   -1.2273 C   0  0  0  0  0  0  0  0  0  0  0  0
    3.3885    1.1096    0.1232 C   0  0  0  0  0  0  0  0  0  0  0  0
   -0.7469    0.4161    0.6107 C   0  0  0  0  0  0  0  0  0  0  0  0
   -1.2833   -0.7668    0.2126 N   0  0  0  0  0  0  0  0  0  0  0  0
   -2.6049   -0.6222    0.0212 C   0  0  0  0  0  0  0  0  0  0  0  0
   -3.5527   -1.6424   -0.4060 C   0  0  0  0  0  0  0  0  0  0  0  0
   -3.1857   -2.9366   -0.6763 C   0  0  0  0  0  0  0  0  0  0  0  0
   -4.0668   -3.9082   -1.0793 C   0  0  0  0  0  0  0  0  0  0  0  0
   -5.4073   -3.5774   -1.2260 C   0  0  0  0  0  0  0  0  0  0  0  0
   -6.5873   -4.7478   -1.7320 Cl  0  0  0  0  0  0  0  0  0  0  0  0
   -5.8050   -2.2863   -0.9619 C   0  0  0  0  0  0  0  0  0  0  0  0
   -4.8824   -1.3154   -0.5518 C   0  0  0  0  0  0  0  0  0  0  0  0
   -2.8679    0.7070    0.3185 C   0  0  0  0  0  0  0  0  0  0  0  0
   -1.7187    1.3428    0.6815 N   0  0  0  0  0  0  0  0  0  0  0  0
   -2.3581    5.2482    2.4917 H   0  0  0  0  0  0  0  0  0  0  0  0
   -1.5607    5.5301    0.8869 H   0  0  0  0  0  0  0  0  0  0  0  0
    0.1771    3.9263    1.6766 H   0  0  0  0  0  0  0  0  0  0  0  0
    1.2883   -1.2362    0.5429 H   0  0  0  0  0  0  0  0  0  0  0  0
    2.9335    0.4663    2.1783 H   0  0  0  0  0  0  0  0  0  0  0  0
    4.8053   -0.7966    1.5047 H   0  0  0  0  0  0  0  0  0  0  0  0
    3.4249   -1.8966    1.7338 H   0  0  0  0  0  0  0  0  0  0  0  0
    4.9997   -2.1954   -0.3216 H   0  0  0  0  0  0  0  0  0  0  0  0
    3.2501   -2.4630   -0.4814 H   0  0  0  0  0  0  0  0  0  0  0  0
    3.6674   -1.1879   -2.3442 H   0  0  0  0  0  0  0  0  0  0  0  0
    5.9498   -0.0248   -0.9229 H   0  0  0  0  0  0  0  0  0  0  0  0
    5.2386    0.7151   -2.2425 H   0  0  0  0  0  0  0  0  0  0  0  0
    2.0632    0.1014   -1.2019 H   0  0  0  0  0  0  0  0  0  0  0  0
    3.2567    1.1986   -2.0618 H   0  0  0  0  0  0  0  0  0  0  0  0
    2.9759    2.0995    0.2840 H   0  0  0  0  0  0  0  0  0  0  0  0
    4.4915    1.1790    0.3154 H   0  0  0  0  0  0  0  0  0  0  0  0
   -2.1482   -3.2056   -0.5661 H   0  0  0  0  0  0  0  0  0  0  0  0
   -3.7910   -4.9305   -1.2951 H   0  0  0  0  0  0  0  0  0  0  0  0
   -6.8268   -1.9796   -1.0596 H   0  0  0  0  0  0  0  0  0  0  0  0
   -5.1962   -0.2936   -0.3427 H   0  0  0  0  0  0  0  0  0  0  0  0
   -3.8440    1.1399    0.2612 H   0  0  0  0  0  0  0  0  0  0  0  0
  1  2  1  0
  2  3  2  0
  2  4  1  0
  4  5  2  0
  5  6  1  0
  6  7  2  0
  7  8  1  0
  8  9  1  0
  9 10  1  0
 10 11  1  0
 11 12  1  0
 12 13  1  0
 12 14  1  0
 14 15  1  0
  7 16  1  0
 16 17  2  0
 17 18  1  0
 18 19  1  0
 19 20  2  0
 20 21  1  0
 21 22  2  0
 22 23  1  0
 22 24  1  0
 24 25  2  0
 18 26  2  0
 26 27  1  0
 27  4  1  0
 15  9  1  0
 27 16  1  0
 25 19  1  0
  1 28  1  0
  1 29  1  0
  5 30  1  0
  8 31  1  0
  9 32  1  1
 10 33  1  0
 10 34  1  0
 11 35  1  0
 11 36  1  0
 12 37  1  6
 13 38  1  0
 13 39  1  0
 14 40  1  0
 14 41  1  0
 15 42  1  0
 15 43  1  0
 20 44  1  0
 21 45  1  0
 24 46  1  0
 25 47  1  0
 26 48  1  0
M  END
$$$$
