@<TRIPOS>MOLECULE
*****
 40 41 0 0 0
SMALL
GASTEIGER

@<TRIPOS>ATOM
      1 C          -3.0213    3.2544    0.9664 C.3     1  UNL1       -0.0158
      2 N          -3.6467    1.9851    0.7268 N.3     1  UNL1       -0.3188
      3 C          -2.7260    1.1573   -0.0451 C.3     1  UNL1       -0.0007
      4 C          -1.5575    0.8317    0.8600 C.3     1  UNL1        0.0010
      5 C          -0.6030   -0.0380    0.0283 C.3     1  UNL1        0.1263
      6 O           0.4790   -0.3361    0.8722 O.3     1  UNL1       -0.4842
      7 C           1.8037   -0.0120    0.6308 C.ar    1  UNL1        0.1214
      8 C           2.6143   -0.4602    1.6811 C.ar    1  UNL1       -0.0194
      9 C           3.9937   -0.2311    1.6299 C.ar    1  UNL1       -0.0467
     10 C           4.5436    0.4363    0.5416 C.ar    1  UNL1        0.0550
     11 C           3.7354    0.8732   -0.4871 C.ar    1  UNL1       -0.0467
     12 C           2.3773    0.6463   -0.4346 C.ar    1  UNL1       -0.0194
     13 C           5.9871    0.7441    0.3656 C.3     1  UNL1        0.4174
     14 F           6.0803    2.1423    0.3320 F       1  UNL1       -0.1659
     15 F           6.7445    0.2498    1.4055 F       1  UNL1       -0.1659
     16 F           6.3913    0.2980   -0.8722 F       1  UNL1       -0.1659
     17 C          -1.3552   -1.2898   -0.2404 C.ar    1  UNL1       -0.0073
     18 C          -1.8193   -1.7224   -1.4750 C.ar    1  UNL1       -0.0551
     19 C          -2.5103   -2.9089   -1.5996 C.ar    1  UNL1       -0.0614
     20 C          -2.7697   -3.7141   -0.5099 C.ar    1  UNL1       -0.0617
     21 C          -2.3106   -3.2903    0.7246 C.ar    1  UNL1       -0.0614
     22 C          -1.6188   -2.1004    0.8427 C.ar    1  UNL1       -0.0551
     23 H          -2.7948    3.3647    2.0529 H       1  UNL1        0.0388
     24 H          -3.7083    4.0959    0.6837 H       1  UNL1        0.0388
     25 H          -2.1187    3.3763    0.3477 H       1  UNL1        0.0388
     26 H          -4.5333    2.0919    0.1740 H       1  UNL1        0.1216
     27 H          -2.3112    1.7021   -0.9249 H       1  UNL1        0.0425
     28 H          -3.2334    0.2207   -0.3637 H       1  UNL1        0.0425
     29 H          -1.0818    1.7822    1.1681 H       1  UNL1        0.0317
     30 H          -1.8814    0.2254    1.7310 H       1  UNL1        0.0317
     31 H          -0.3079    0.4971   -0.8991 H       1  UNL1        0.0785
     32 H           2.3237   -0.9869    2.5779 H       1  UNL1        0.0654
     33 H           4.7022   -0.5364    2.3887 H       1  UNL1        0.0624
     34 H           4.0546    1.4023   -1.3811 H       1  UNL1        0.0624
     35 H           1.6560    0.9444   -1.1843 H       1  UNL1        0.0654
     36 H          -1.5986   -1.0659   -2.3104 H       1  UNL1        0.0621
     37 H          -2.8497   -3.1996   -2.5829 H       1  UNL1        0.0618
     38 H          -3.3130   -4.6525   -0.5917 H       1  UNL1        0.0618
     39 H          -2.5245   -3.9366    1.5721 H       1  UNL1        0.0618
     40 H          -1.2916   -1.8402    1.8496 H       1  UNL1        0.0621
@<TRIPOS>BOND
     1     1     2    1
     2     2     3    1
     3     3     4    1
     4     4     5    1
     5     5     6    1
     6     6     7    1
     7     7     8   ar
     8     8     9   ar
     9     9    10   ar
    10    10    11   ar
    11    11    12   ar
    12    10    13    1
    13    13    14    1
    14    13    15    1
    15    13    16    1
    16     5    17    1
    17    17    18   ar
    18    18    19   ar
    19    19    20   ar
    20    20    21   ar
    21    21    22   ar
    22    12     7   ar
    23    22    17   ar
    24     1    23    1
    25     1    24    1
    26     1    25    1
    27     2    26    1
    28     3    27    1
    29     3    28    1
    30     4    29    1
    31     4    30    1
    32     5    31    1
    33     8    32    1
    34     9    33    1
    35    11    34    1
    36    12    35    1
    37    18    36    1
    38    19    37    1
    39    20    38    1
    40    21    39    1
    41    22    40    1
