
     RDKit          3D

 91 97  0  0  0  0  0  0  0  0999 V2000
   12.4288   -1.7701    0.1730 C   0  0  0  0  0  0  0  0  0  0  0  0
   12.3826   -0.3268   -0.2996 C   0  0  0  0  0  0  0  0  0  0  0  0
   13.7703    0.2179   -0.3088 C   0  0  0  0  0  0  0  0  0  0  0  0
   11.4612    0.4016    0.5056 N   0  0  0  0  0  0  0  0  0  0  0  0
   11.3289    1.7792    0.2030 C   0  0  0  0  0  0  0  0  0  0  0  0
   10.1204    2.1610   -0.5717 C   0  0  0  0  0  0  0  0  0  0  0  0
    8.9915    1.2896   -0.3594 N   0  0  0  0  0  0  0  0  0  0  0  0
    7.6943    1.8646   -0.2757 C   0  0  0  0  0  0  0  0  0  0  0  0
    7.5138    3.1036   -0.3760 O   0  0  0  0  0  0  0  0  0  0  0  0
    6.4916    1.0485   -0.0675 C   0  0  0  0  0  0  0  0  0  0  0  0
    5.9208    0.9264    1.1840 C   0  0  0  0  0  0  0  0  0  0  0  0
    4.7741    0.1475    1.3502 C   0  0  0  0  0  0  0  0  0  0  0  0
    4.1618   -0.5238    0.3159 C   0  0  0  0  0  0  0  0  0  0  0  0
    2.9972   -1.3212    0.4844 N   0  0  0  0  0  0  0  0  0  0  0  0
    1.6649   -0.7981    0.4191 C   0  0  0  0  0  0  0  0  0  0  0  0
    1.5802    0.4154    0.2223 O   0  0  0  0  0  0  0  0  0  0  0  0
    0.5255   -1.5926    0.5649 N   0  0  0  0  0  0  0  0  0  0  0  0
   -0.8173   -1.1286    0.5324 C   0  0  0  0  0  0  0  0  0  0  0  0
   -1.1986    0.1841    0.5902 C   0  0  0  0  0  0  0  0  0  0  0  0
   -2.5439    0.5519    0.5067 C   0  0  0  0  0  0  0  0  0  0  0  0
   -3.5430   -0.3650    0.3653 C   0  0  0  0  0  0  0  0  0  0  0  0
   -4.9723   -0.0402    0.2423 C   0  0  0  0  0  0  0  0  0  0  0  0
   -5.4016    1.2369    0.3549 N   0  0  0  0  0  0  0  0  0  0  0  0
   -6.6887    1.5872    0.2246 C   0  0  0  0  0  0  0  0  0  0  0  0
   -7.1671    3.0098    0.3642 C   0  0  0  0  0  0  0  0  0  0  0  0
   -8.1495    2.9715    1.5254 C   0  0  0  0  0  0  0  0  0  0  0  0
   -9.1424    4.0844    1.5084 C   0  0  0  0  0  0  0  0  0  0  0  0
   -9.7523    4.2522    0.2686 O   0  0  0  0  0  0  0  0  0  0  0  0
   -9.4029    3.2258   -0.6118 C   0  0  0  0  0  0  0  0  0  0  0  0
   -7.9216    3.3631   -0.8922 C   0  0  0  0  0  0  0  0  0  0  0  0
   -7.5512    0.5897   -0.0289 N   0  0  0  0  0  0  0  0  0  0  0  0
   -7.1696   -0.7164   -0.1528 C   0  0  0  0  0  0  0  0  0  0  0  0
   -8.1317   -1.7151   -0.4443 N   0  0  0  0  0  0  0  0  0  0  0  0
   -7.9481   -3.1408   -0.4401 C   0  0  0  0  0  0  0  0  0  0  0  0
   -8.6611   -3.6011   -1.6965 C   0  0  0  0  0  0  0  0  0  0  0  0
   -9.6301   -2.4743   -1.9833 C   0  0  0  0  0  0  0  0  0  0  0  0
   -9.4967   -1.4831   -0.8306 C   0  0  0  0  0  0  0  0  0  0  0  0
  -10.3778   -2.0241    0.2816 C   0  0  0  0  0  0  0  0  0  0  0  0
  -10.1233   -3.3656    0.4467 O   0  0  0  0  0  0  0  0  0  0  0  0
   -8.7904   -3.6510    0.7413 C   0  0  0  0  0  0  0  0  0  0  0  0
   -5.8727   -0.9944   -0.0101 N   0  0  0  0  0  0  0  0  0  0  0  0
   -3.1586   -1.6879    0.3081 C   0  0  0  0  0  0  0  0  0  0  0  0
   -1.8493   -2.0754    0.3878 C   0  0  0  0  0  0  0  0  0  0  0  0
    4.7539   -0.3878   -0.9443 C   0  0  0  0  0  0  0  0  0  0  0  0
    5.8844    0.3798   -1.1084 C   0  0  0  0  0  0  0  0  0  0  0  0
    9.2503   -0.1291   -0.2421 C   0  0  0  0  0  0  0  0  0  0  0  0
   10.2752   -0.2740    0.8895 C   0  0  0  0  0  0  0  0  0  0  0  0
   12.4322   -1.8639    1.2744 H   0  0  0  0  0  0  0  0  0  0  0  0
   13.3648   -2.2321   -0.2595 H   0  0  0  0  0  0  0  0  0  0  0  0
   11.5958   -2.3104   -0.2788 H   0  0  0  0  0  0  0  0  0  0  0  0
   11.9978   -0.3565   -1.3411 H   0  0  0  0  0  0  0  0  0  0  0  0
   14.4846   -0.6306   -0.3200 H   0  0  0  0  0  0  0  0  0  0  0  0
   14.0072    0.8093   -1.2185 H   0  0  0  0  0  0  0  0  0  0  0  0
   14.0225    0.7965    0.6165 H   0  0  0  0  0  0  0  0  0  0  0  0
   12.2359    2.1247   -0.3329 H   0  0  0  0  0  0  0  0  0  0  0  0
   11.3169    2.3540    1.1707 H   0  0  0  0  0  0  0  0  0  0  0  0
    9.8898    3.2237   -0.3403 H   0  0  0  0  0  0  0  0  0  0  0  0
   10.2945    2.1513   -1.6870 H   0  0  0  0  0  0  0  0  0  0  0  0
    6.3883    1.4463    2.0091 H   0  0  0  0  0  0  0  0  0  0  0  0
    4.3313    0.0580    2.3412 H   0  0  0  0  0  0  0  0  0  0  0  0
    3.1018   -2.3307    0.6645 H   0  0  0  0  0  0  0  0  0  0  0  0
    0.6618   -2.6438    0.7179 H   0  0  0  0  0  0  0  0  0  0  0  0
   -0.4423    0.9567    0.7134 H   0  0  0  0  0  0  0  0  0  0  0  0
   -2.7891    1.6091    0.5583 H   0  0  0  0  0  0  0  0  0  0  0  0
   -6.3119    3.6545    0.5680 H   0  0  0  0  0  0  0  0  0  0  0  0
   -7.5392    3.0462    2.4453 H   0  0  0  0  0  0  0  0  0  0  0  0
   -8.6651    1.9921    1.5774 H   0  0  0  0  0  0  0  0  0  0  0  0
   -8.7450    5.0367    1.9141 H   0  0  0  0  0  0  0  0  0  0  0  0
   -9.9680    3.7968    2.2180 H   0  0  0  0  0  0  0  0  0  0  0  0
   -9.9696    3.4501   -1.5563 H   0  0  0  0  0  0  0  0  0  0  0  0
   -9.6564    2.2305   -0.2160 H   0  0  0  0  0  0  0  0  0  0  0  0
   -7.6268    2.7198   -1.7565 H   0  0  0  0  0  0  0  0  0  0  0  0
   -7.7622    4.4339   -1.1639 H   0  0  0  0  0  0  0  0  0  0  0  0
   -6.9121   -3.4698   -0.3745 H   0  0  0  0  0  0  0  0  0  0  0  0
   -9.1789   -4.5486   -1.4590 H   0  0  0  0  0  0  0  0  0  0  0  0
   -7.9585   -3.7803   -2.5186 H   0  0  0  0  0  0  0  0  0  0  0  0
  -10.6362   -2.9054   -2.0654 H   0  0  0  0  0  0  0  0  0  0  0  0
   -9.3570   -2.0246   -2.9589 H   0  0  0  0  0  0  0  0  0  0  0  0
   -9.7313   -0.4580   -1.1172 H   0  0  0  0  0  0  0  0  0  0  0  0
  -11.4288   -1.9228   -0.0528 H   0  0  0  0  0  0  0  0  0  0  0  0
  -10.2203   -1.4553    1.2210 H   0  0  0  0  0  0  0  0  0  0  0  0
   -8.7070   -4.7460    0.8335 H   0  0  0  0  0  0  0  0  0  0  0  0
   -8.4875   -3.1037    1.6563 H   0  0  0  0  0  0  0  0  0  0  0  0
   -3.9380   -2.4345    0.1960 H   0  0  0  0  0  0  0  0  0  0  0  0
   -1.5655   -3.1124    0.3420 H   0  0  0  0  0  0  0  0  0  0  0  0
    4.2584   -0.9219   -1.7387 H   0  0  0  0  0  0  0  0  0  0  0  0
    6.3318    0.4736   -2.0821 H   0  0  0  0  0  0  0  0  0  0  0  0
    9.7104   -0.5330   -1.1456 H   0  0  0  0  0  0  0  0  0  0  0  0
    8.3300   -0.7041   -0.0101 H   0  0  0  0  0  0  0  0  0  0  0  0
    9.8511    0.2384    1.7989 H   0  0  0  0  0  0  0  0  0  0  0  0
   10.4799   -1.3185    1.1159 H   0  0  0  0  0  0  0  0  0  0  0  0
  1  2  1  0
  2  3  1  0
  2  4  1  0
  4  5  1  0
  5  6  1  0
  6  7  1  0
  7  8  1  0
  8  9  2  0
  8 10  1  0
 10 11  2  0
 11 12  1  0
 12 13  2  0
 13 14  1  0
 14 15  1  0
 15 16  2  0
 15 17  1  0
 17 18  1  0
 18 19  2  0
 19 20  1  0
 20 21  2  0
 21 22  1  0
 22 23  2  0
 23 24  1  0
 24 25  1  0
 25 26  1  0
 26 27  1  0
 27 28  1  0
 28 29  1  0
 29 30  1  0
 24 31  2  0
 31 32  1  0
 32 33  1  0
 33 34  1  0
 34 35  1  0
 35 36  1  0
 36 37  1  0
 37 38  1  0
 38 39  1  0
 39 40  1  0
 32 41  2  0
 21 42  1  0
 42 43  2  0
 13 44  1  0
 44 45  2  0
  7 46  1  0
 46 47  1  0
 47  4  1  0
 45 10  1  0
 43 18  1  0
 41 22  1  0
 30 25  1  0
 37 33  1  0
 40 34  1  0
  1 48  1  0
  1 49  1  0
  1 50  1  0
  2 51  1  0
  3 52  1  0
  3 53  1  0
  3 54  1  0
  5 55  1  0
  5 56  1  0
  6 57  1  0
  6 58  1  0
 11 59  1  0
 12 60  1  0
 14 61  1  0
 17 62  1  0
 19 63  1  0
 20 64  1  0
 25 65  1  0
 26 66  1  0
 26 67  1  0
 27 68  1  0
 27 69  1  0
 29 70  1  0
 29 71  1  0
 30 72  1  0
 30 73  1  0
 34 74  1  0
 35 75  1  0
 35 76  1  0
 36 77  1  0
 36 78  1  0
 37 79  1  0
 38 80  1  0
 38 81  1  0
 40 82  1  0
 40 83  1  0
 42 84  1  0
 43 85  1  0
 44 86  1  0
 45 87  1  0
 46 88  1  0
 46 89  1  0
 47 90  1  0
 47 91  1  0
M  END
$$$$
