@<TRIPOS>MOLECULE
*****
 91 97 0 0 0
SMALL
GASTEIGER

@<TRIPOS>ATOM
      1 C          12.4288   -1.7701    0.1730 C.3     1  UNL1       -0.0497
      2 C          12.3826   -0.3268   -0.2996 C.3     1  UNL1        0.0049
      3 C          13.7703    0.2179   -0.3088 C.3     1  UNL1       -0.0497
      4 N          11.4612    0.4016    0.5056 N.3     1  UNL1       -0.2969
      5 C          11.3289    1.7792    0.2030 C.3     1  UNL1        0.0150
      6 C          10.1204    2.1610   -0.5717 C.3     1  UNL1        0.0278
      7 N           8.9915    1.2896   -0.3594 N.am    1  UNL1       -0.2951
      8 C           7.6943    1.8646   -0.2757 C.2     1  UNL1        0.2467
      9 O           7.5138    3.1036   -0.3760 O.2     1  UNL1       -0.2700
     10 C           6.4916    1.0485   -0.0675 C.ar    1  UNL1        0.0370
     11 C           5.9208    0.9264    1.1840 C.ar    1  UNL1       -0.0479
     12 C           4.7741    0.1475    1.3502 C.ar    1  UNL1       -0.0397
     13 C           4.1618   -0.5238    0.3159 C.ar    1  UNL1        0.0348
     14 N           2.9972   -1.3212    0.4844 N.am    1  UNL1       -0.2692
     15 C           1.6649   -0.7981    0.4191 C.2     1  UNL1        0.3081
     16 O           1.5802    0.4154    0.2223 O.2     1  UNL1       -0.2522
     17 N           0.5255   -1.5926    0.5649 N.am    1  UNL1       -0.2692
     18 C          -0.8173   -1.1286    0.5324 C.ar    1  UNL1        0.0348
     19 C          -1.1986    0.1841    0.5902 C.ar    1  UNL1       -0.0398
     20 C          -2.5439    0.5519    0.5067 C.ar    1  UNL1       -0.0493
     21 C          -3.5430   -0.3650    0.3653 C.ar    1  UNL1        0.0194
     22 C          -4.9723   -0.0402    0.2423 C.ar    1  UNL1        0.1652
     23 N          -5.4016    1.2369    0.3549 N.ar    1  UNL1       -0.2122
     24 C          -6.6887    1.5872    0.2246 C.ar    1  UNL1        0.1382
     25 C          -7.1671    3.0098    0.3642 C.3     1  UNL1        0.0233
     26 C          -8.1495    2.9715    1.5254 C.3     1  UNL1       -0.0197
     27 C          -9.1424    4.0844    1.5084 C.3     1  UNL1        0.0483
     28 O          -9.7523    4.2522    0.2686 O.3     1  UNL1       -0.3797
     29 C          -9.4029    3.2258   -0.6118 C.3     1  UNL1        0.0483
     30 C          -7.9216    3.3631   -0.8922 C.3     1  UNL1       -0.0197
     31 N          -7.5512    0.5897   -0.0289 N.ar    1  UNL1       -0.1991
     32 C          -7.1696   -0.7164   -0.1528 C.ar    1  UNL1        0.2220
     33 N          -8.1317   -1.7151   -0.4443 N.pl3   1  UNL1       -0.2891
     34 C          -7.9481   -3.1408   -0.4401 C.3     1  UNL1        0.0500
     35 C          -8.6611   -3.6011   -1.6965 C.3     1  UNL1       -0.0304
     36 C          -9.6301   -2.4743   -1.9833 C.3     1  UNL1       -0.0304
     37 C          -9.4967   -1.4831   -0.8306 C.3     1  UNL1        0.0500
     38 C         -10.3778   -2.0241    0.2816 C.3     1  UNL1        0.0663
     39 O         -10.1233   -3.3656    0.4467 O.3     1  UNL1       -0.3761
     40 C          -8.7904   -3.6510    0.7413 C.3     1  UNL1        0.0663
     41 N          -5.8727   -0.9944   -0.0101 N.ar    1  UNL1       -0.1945
     42 C          -3.1586   -1.6879    0.3081 C.ar    1  UNL1       -0.0493
     43 C          -1.8493   -2.0754    0.3878 C.ar    1  UNL1       -0.0398
     44 C           4.7539   -0.3878   -0.9443 C.ar    1  UNL1       -0.0397
     45 C           5.8844    0.3798   -1.1084 C.ar    1  UNL1       -0.0479
     46 C           9.2503   -0.1291   -0.2421 C.3     1  UNL1        0.0278
     47 C          10.2752   -0.2740    0.8895 C.3     1  UNL1        0.0150
     48 H          12.4322   -1.8639    1.2744 H       1  UNL1        0.0245
     49 H          13.3648   -2.2321   -0.2595 H       1  UNL1        0.0245
     50 H          11.5958   -2.3104   -0.2788 H       1  UNL1        0.0245
     51 H          11.9978   -0.3565   -1.3411 H       1  UNL1        0.0457
     52 H          14.4846   -0.6306   -0.3200 H       1  UNL1        0.0245
     53 H          14.0072    0.8093   -1.2185 H       1  UNL1        0.0245
     54 H          14.0225    0.7965    0.6165 H       1  UNL1        0.0245
     55 H          12.2359    2.1247   -0.3329 H       1  UNL1        0.0442
     56 H          11.3169    2.3540    1.1707 H       1  UNL1        0.0442
     57 H           9.8898    3.2237   -0.3403 H       1  UNL1        0.0477
     58 H          10.2945    2.1513   -1.6870 H       1  UNL1        0.0477
     59 H           6.3883    1.4463    2.0091 H       1  UNL1        0.0626
     60 H           4.3313    0.0580    2.3412 H       1  UNL1        0.0636
     61 H           3.1018   -2.3307    0.6645 H       1  UNL1        0.1564
     62 H           0.6618   -2.6438    0.7179 H       1  UNL1        0.1564
     63 H          -0.4423    0.9567    0.7134 H       1  UNL1        0.0636
     64 H          -2.7891    1.6091    0.5583 H       1  UNL1        0.0625
     65 H          -6.3119    3.6545    0.5680 H       1  UNL1        0.0381
     66 H          -7.5392    3.0462    2.4453 H       1  UNL1        0.0294
     67 H          -8.6651    1.9921    1.5774 H       1  UNL1        0.0294
     68 H          -8.7450    5.0367    1.9141 H       1  UNL1        0.0560
     69 H          -9.9680    3.7968    2.2180 H       1  UNL1        0.0560
     70 H          -9.9696    3.4501   -1.5563 H       1  UNL1        0.0560
     71 H          -9.6564    2.2305   -0.2160 H       1  UNL1        0.0560
     72 H          -7.6268    2.7198   -1.7565 H       1  UNL1        0.0294
     73 H          -7.7622    4.4339   -1.1639 H       1  UNL1        0.0294
     74 H          -6.9121   -3.4698   -0.3745 H       1  UNL1        0.0523
     75 H          -9.1789   -4.5486   -1.4590 H       1  UNL1        0.0284
     76 H          -7.9585   -3.7803   -2.5186 H       1  UNL1        0.0284
     77 H         -10.6362   -2.9054   -2.0654 H       1  UNL1        0.0284
     78 H          -9.3570   -2.0246   -2.9589 H       1  UNL1        0.0284
     79 H          -9.7313   -0.4580   -1.1172 H       1  UNL1        0.0523
     80 H         -11.4288   -1.9228   -0.0528 H       1  UNL1        0.0578
     81 H         -10.2203   -1.4553    1.2210 H       1  UNL1        0.0578
     82 H          -8.7070   -4.7460    0.8335 H       1  UNL1        0.0578
     83 H          -8.4875   -3.1037    1.6563 H       1  UNL1        0.0578
     84 H          -3.9380   -2.4345    0.1960 H       1  UNL1        0.0625
     85 H          -1.5655   -3.1124    0.3420 H       1  UNL1        0.0636
     86 H           4.2584   -0.9219   -1.7387 H       1  UNL1        0.0636
     87 H           6.3318    0.4736   -2.0821 H       1  UNL1        0.0626
     88 H           9.7104   -0.5330   -1.1456 H       1  UNL1        0.0477
     89 H           8.3300   -0.7041   -0.0101 H       1  UNL1        0.0477
     90 H           9.8511    0.2384    1.7989 H       1  UNL1        0.0442
     91 H          10.4799   -1.3185    1.1159 H       1  UNL1        0.0442
@<TRIPOS>BOND
     1     1     2    1
     2     2     3    1
     3     2     4    1
     4     4     5    1
     5     5     6    1
     6     6     7    1
     7     7     8   am
     8     8     9    2
     9     8    10    1
    10    10    11   ar
    11    11    12   ar
    12    12    13   ar
    13    13    14    1
    14    14    15   am
    15    15    16    2
    16    15    17   am
    17    17    18    1
    18    18    19   ar
    19    19    20   ar
    20    20    21   ar
    21    21    22    1
    22    22    23   ar
    23    23    24   ar
    24    24    25    1
    25    25    26    1
    26    26    27    1
    27    27    28    1
    28    28    29    1
    29    29    30    1
    30    24    31   ar
    31    31    32   ar
    32    32    33    1
    33    33    34    1
    34    34    35    1
    35    35    36    1
    36    36    37    1
    37    37    38    1
    38    38    39    1
    39    39    40    1
    40    32    41   ar
    41    21    42   ar
    42    42    43   ar
    43    13    44   ar
    44    44    45   ar
    45     7    46    1
    46    46    47    1
    47    47     4    1
    48    45    10   ar
    49    43    18   ar
    50    41    22   ar
    51    30    25    1
    52    37    33    1
    53    40    34    1
    54     1    48    1
    55     1    49    1
    56     1    50    1
    57     2    51    1
    58     3    52    1
    59     3    53    1
    60     3    54    1
    61     5    55    1
    62     5    56    1
    63     6    57    1
    64     6    58    1
    65    11    59    1
    66    12    60    1
    67    14    61    1
    68    17    62    1
    69    19    63    1
    70    20    64    1
    71    25    65    1
    72    26    66    1
    73    26    67    1
    74    27    68    1
    75    27    69    1
    76    29    70    1
    77    29    71    1
    78    30    72    1
    79    30    73    1
    80    34    74    1
    81    35    75    1
    82    35    76    1
    83    36    77    1
    84    36    78    1
    85    37    79    1
    86    38    80    1
    87    38    81    1
    88    40    82    1
    89    40    83    1
    90    42    84    1
    91    43    85    1
    92    44    86    1
    93    45    87    1
    94    46    88    1
    95    46    89    1
    96    47    90    1
    97    47    91    1
