@<TRIPOS>MOLECULE
*****
 67 69 0 0 0
SMALL
GASTEIGER

@<TRIPOS>ATOM
      1 C          -4.1299    4.3384    1.3513 C.3     1  UNL1       -0.0613
      2 C          -4.5195    3.5602    0.1273 C.3     1  UNL1       -0.0305
      3 C          -3.7084    2.3366   -0.0898 C.ar    1  UNL1       -0.0471
      4 C          -2.5754    2.3790   -0.8762 C.ar    1  UNL1       -0.0551
      5 C          -1.7926    1.2469   -1.1476 C.ar    1  UNL1       -0.0194
      6 C          -2.1885    0.0390   -0.5931 C.ar    1  UNL1        0.1244
      7 O          -1.5058   -1.1196   -0.7817 O.3     1  UNL1       -0.4887
      8 C          -0.2701   -1.2045   -1.4356 C.3     1  UNL1        0.1005
      9 C          -0.4370   -1.7221   -2.8658 C.3     1  UNL1       -0.0277
     10 C           0.5336   -2.2151   -0.6060 C.3     1  UNL1        0.0182
     11 C           0.5931   -1.6168    0.7734 C.3     1  UNL1        0.0929
     12 O           1.3204   -0.4351    0.7877 O.3     1  UNL1       -0.4918
     13 C           2.6721   -0.2746    0.6046 C.ar    1  UNL1        0.1208
     14 C           3.2008    1.0260    0.6197 C.ar    1  UNL1       -0.0197
     15 C           4.5475    1.2734    0.4566 C.ar    1  UNL1       -0.0549
     16 C           5.4597    0.2639    0.2683 C.ar    1  UNL1       -0.0437
     17 C           6.9180    0.4484    0.1098 C.3     1  UNL1       -0.0174
     18 C           7.4073    1.8236    0.4101 C.3     1  UNL1        0.0487
     19 C           8.9042    1.7861    0.2241 C.2     1  UNL1        0.3050
     20 O           9.5453    2.8100    0.4825 O.2     1  UNL1       -0.2510
     21 O           9.5792    0.6584   -0.2161 O.3     1  UNL1       -0.4806
     22 C           4.9473   -1.0162    0.2497 C.ar    1  UNL1       -0.0438
     23 C           5.9289   -2.1431    0.0568 C.3     1  UNL1       -0.0393
     24 C           3.5942   -1.2764    0.4135 C.ar    1  UNL1       -0.0168
     25 C          -3.3244   -0.0140    0.1995 C.ar    1  UNL1       -0.0012
     26 C          -3.7922   -1.2975    0.7295 C.3     1  UNL1        0.0010
     27 C          -5.2242   -1.5057    0.4038 C.ar    1  UNL1       -0.0429
     28 C          -5.6903   -1.7772   -0.8354 C.ar    1  UNL1       -0.0583
     29 C          -7.0660   -1.9712   -1.0438 C.ar    1  UNL1       -0.0615
     30 C          -7.9665   -1.8960   -0.0308 C.ar    1  UNL1       -0.0617
     31 C          -7.5141   -1.6225    1.2348 C.ar    1  UNL1       -0.0615
     32 C          -6.1750   -1.4309    1.4478 C.ar    1  UNL1       -0.0583
     33 C          -4.0707    1.1207    0.4457 C.ar    1  UNL1       -0.0516
     34 H          -3.0753    4.3097    1.6180 H       1  UNL1        0.0233
     35 H          -4.3967    5.4074    1.1833 H       1  UNL1        0.0233
     36 H          -4.7571    3.9711    2.2034 H       1  UNL1        0.0233
     37 H          -4.4275    4.1976   -0.8055 H       1  UNL1        0.0311
     38 H          -5.5781    3.2275    0.2533 H       1  UNL1        0.0311
     39 H          -2.2510    3.3218   -1.3237 H       1  UNL1        0.0621
     40 H          -0.9223    1.3390   -1.7667 H       1  UNL1        0.0654
     41 H           0.1977   -0.2311   -1.5246 H       1  UNL1        0.0731
     42 H           0.5291   -2.1256   -3.1786 H       1  UNL1        0.0265
     43 H          -1.2037   -2.4935   -2.9667 H       1  UNL1        0.0265
     44 H          -0.6251   -0.8330   -3.5305 H       1  UNL1        0.0265
     45 H           0.0018   -3.1728   -0.5967 H       1  UNL1        0.0334
     46 H           1.5260   -2.3599   -1.0513 H       1  UNL1        0.0334
     47 H          -0.4769   -1.3769    1.0477 H       1  UNL1        0.0698
     48 H           0.9657   -2.3589    1.5224 H       1  UNL1        0.0698
     49 H           2.4843    1.8391    0.7721 H       1  UNL1        0.0654
     50 H           4.9560    2.2852    0.4680 H       1  UNL1        0.0621
     51 H           7.1131    0.2772   -0.9909 H       1  UNL1        0.0318
     52 H           7.4969   -0.2770    0.7138 H       1  UNL1        0.0318
     53 H           6.9468    2.6338   -0.1948 H       1  UNL1        0.0381
     54 H           7.2283    2.0498    1.4920 H       1  UNL1        0.0381
     55 H          10.5093    0.6808   -0.6224 H       1  UNL1        0.2951
     56 H           5.3889   -3.1047    0.1233 H       1  UNL1        0.0278
     57 H           6.5229   -2.0010   -0.8468 H       1  UNL1        0.0278
     58 H           6.5743   -2.1006    0.9814 H       1  UNL1        0.0278
     59 H           3.2477   -2.3061    0.4151 H       1  UNL1        0.0657
     60 H          -3.6490   -1.4358    1.8013 H       1  UNL1        0.0363
     61 H          -3.1711   -2.1337    0.2582 H       1  UNL1        0.0363
     62 H          -5.0092   -1.8439   -1.6757 H       1  UNL1        0.0620
     63 H          -7.3588   -2.1857   -2.0732 H       1  UNL1        0.0618
     64 H          -9.0321   -2.0539   -0.2255 H       1  UNL1        0.0618
     65 H          -8.2222   -1.5610    2.0436 H       1  UNL1        0.0618
     66 H          -5.7713   -1.2169    2.4212 H       1  UNL1        0.0620
     67 H          -4.9625    1.0601    1.0538 H       1  UNL1        0.0624
@<TRIPOS>BOND
     1     1     2    1
     2     2     3    1
     3     3     4   ar
     4     4     5   ar
     5     5     6   ar
     6     6     7    1
     7     7     8    1
     8     8     9    1
     9     8    10    1
    10    10    11    1
    11    11    12    1
    12    12    13    1
    13    13    14   ar
    14    14    15   ar
    15    15    16   ar
    16    16    17    1
    17    17    18    1
    18    18    19    1
    19    19    20    2
    20    19    21    1
    21    16    22   ar
    22    22    23    1
    23    22    24   ar
    24     6    25   ar
    25    25    26    1
    26    26    27    1
    27    27    28   ar
    28    28    29   ar
    29    29    30   ar
    30    30    31   ar
    31    31    32   ar
    32    25    33   ar
    33    33     3   ar
    34    24    13   ar
    35    32    27   ar
    36     1    34    1
    37     1    35    1
    38     1    36    1
    39     2    37    1
    40     2    38    1
    41     4    39    1
    42     5    40    1
    43     8    41    1
    44     9    42    1
    45     9    43    1
    46     9    44    1
    47    10    45    1
    48    10    46    1
    49    11    47    1
    50    11    48    1
    51    14    49    1
    52    15    50    1
    53    17    51    1
    54    17    52    1
    55    18    53    1
    56    18    54    1
    57    21    55    1
    58    23    56    1
    59    23    57    1
    60    23    58    1
    61    24    59    1
    62    26    60    1
    63    26    61    1
    64    28    62    1
    65    29    63    1
    66    30    64    1
    67    31    65    1
    68    32    66    1
    69    33    67    1
