
     RDKit          3D

 67 69  0  0  0  0  0  0  0  0999 V2000
   -4.1299    4.3384    1.3513 C   0  0  0  0  0  0  0  0  0  0  0  0
   -4.5195    3.5602    0.1273 C   0  0  0  0  0  0  0  0  0  0  0  0
   -3.7084    2.3366   -0.0898 C   0  0  0  0  0  0  0  0  0  0  0  0
   -2.5754    2.3790   -0.8762 C   0  0  0  0  0  0  0  0  0  0  0  0
   -1.7926    1.2469   -1.1476 C   0  0  0  0  0  0  0  0  0  0  0  0
   -2.1885    0.0390   -0.5931 C   0  0  0  0  0  0  0  0  0  0  0  0
   -1.5058   -1.1196   -0.7817 O   0  0  0  0  0  0  0  0  0  0  0  0
   -0.2701   -1.2045   -1.4356 C   0  0  2  0  0  0  0  0  0  0  0  0
   -0.4370   -1.7221   -2.8658 C   0  0  0  0  0  0  0  0  0  0  0  0
    0.5336   -2.2151   -0.6060 C   0  0  0  0  0  0  0  0  0  0  0  0
    0.5931   -1.6168    0.7734 C   0  0  0  0  0  0  0  0  0  0  0  0
    1.3204   -0.4351    0.7877 O   0  0  0  0  0  0  0  0  0  0  0  0
    2.6721   -0.2746    0.6046 C   0  0  0  0  0  0  0  0  0  0  0  0
    3.2008    1.0260    0.6197 C   0  0  0  0  0  0  0  0  0  0  0  0
    4.5475    1.2734    0.4566 C   0  0  0  0  0  0  0  0  0  0  0  0
    5.4597    0.2639    0.2683 C   0  0  0  0  0  0  0  0  0  0  0  0
    6.9180    0.4484    0.1098 C   0  0  0  0  0  0  0  0  0  0  0  0
    7.4073    1.8236    0.4101 C   0  0  0  0  0  0  0  0  0  0  0  0
    8.9042    1.7861    0.2241 C   0  0  0  0  0  0  0  0  0  0  0  0
    9.5453    2.8100    0.4825 O   0  0  0  0  0  0  0  0  0  0  0  0
    9.5792    0.6584   -0.2161 O   0  0  0  0  0  0  0  0  0  0  0  0
    4.9473   -1.0162    0.2497 C   0  0  0  0  0  0  0  0  0  0  0  0
    5.9289   -2.1431    0.0568 C   0  0  0  0  0  0  0  0  0  0  0  0
    3.5942   -1.2764    0.4135 C   0  0  0  0  0  0  0  0  0  0  0  0
   -3.3244   -0.0140    0.1995 C   0  0  0  0  0  0  0  0  0  0  0  0
   -3.7922   -1.2975    0.7295 C   0  0  0  0  0  0  0  0  0  0  0  0
   -5.2242   -1.5057    0.4038 C   0  0  0  0  0  0  0  0  0  0  0  0
   -5.6903   -1.7772   -0.8354 C   0  0  0  0  0  0  0  0  0  0  0  0
   -7.0660   -1.9712   -1.0438 C   0  0  0  0  0  0  0  0  0  0  0  0
   -7.9665   -1.8960   -0.0308 C   0  0  0  0  0  0  0  0  0  0  0  0
   -7.5141   -1.6225    1.2348 C   0  0  0  0  0  0  0  0  0  0  0  0
   -6.1750   -1.4309    1.4478 C   0  0  0  0  0  0  0  0  0  0  0  0
   -4.0707    1.1207    0.4457 C   0  0  0  0  0  0  0  0  0  0  0  0
   -3.0753    4.3097    1.6180 H   0  0  0  0  0  0  0  0  0  0  0  0
   -4.3967    5.4074    1.1833 H   0  0  0  0  0  0  0  0  0  0  0  0
   -4.7571    3.9711    2.2034 H   0  0  0  0  0  0  0  0  0  0  0  0
   -4.4275    4.1976   -0.8055 H   0  0  0  0  0  0  0  0  0  0  0  0
   -5.5781    3.2275    0.2533 H   0  0  0  0  0  0  0  0  0  0  0  0
   -2.2510    3.3218   -1.3237 H   0  0  0  0  0  0  0  0  0  0  0  0
   -0.9223    1.3390   -1.7667 H   0  0  0  0  0  0  0  0  0  0  0  0
    0.1977   -0.2311   -1.5246 H   0  0  0  0  0  0  0  0  0  0  0  0
    0.5291   -2.1256   -3.1786 H   0  0  0  0  0  0  0  0  0  0  0  0
   -1.2037   -2.4935   -2.9667 H   0  0  0  0  0  0  0  0  0  0  0  0
   -0.6251   -0.8330   -3.5305 H   0  0  0  0  0  0  0  0  0  0  0  0
    0.0018   -3.1728   -0.5967 H   0  0  0  0  0  0  0  0  0  0  0  0
    1.5260   -2.3599   -1.0513 H   0  0  0  0  0  0  0  0  0  0  0  0
   -0.4769   -1.3769    1.0477 H   0  0  0  0  0  0  0  0  0  0  0  0
    0.9657   -2.3589    1.5224 H   0  0  0  0  0  0  0  0  0  0  0  0
    2.4843    1.8391    0.7721 H   0  0  0  0  0  0  0  0  0  0  0  0
    4.9560    2.2852    0.4680 H   0  0  0  0  0  0  0  0  0  0  0  0
    7.1131    0.2772   -0.9909 H   0  0  0  0  0  0  0  0  0  0  0  0
    7.4969   -0.2770    0.7138 H   0  0  0  0  0  0  0  0  0  0  0  0
    6.9468    2.6338   -0.1948 H   0  0  0  0  0  0  0  0  0  0  0  0
    7.2283    2.0498    1.4920 H   0  0  0  0  0  0  0  0  0  0  0  0
   10.5093    0.6808   -0.6224 H   0  0  0  0  0  0  0  0  0  0  0  0
    5.3889   -3.1047    0.1233 H   0  0  0  0  0  0  0  0  0  0  0  0
    6.5229   -2.0010   -0.8468 H   0  0  0  0  0  0  0  0  0  0  0  0
    6.5743   -2.1006    0.9814 H   0  0  0  0  0  0  0  0  0  0  0  0
    3.2477   -2.3061    0.4151 H   0  0  0  0  0  0  0  0  0  0  0  0
   -3.6490   -1.4358    1.8013 H   0  0  0  0  0  0  0  0  0  0  0  0
   -3.1711   -2.1337    0.2582 H   0  0  0  0  0  0  0  0  0  0  0  0
   -5.0092   -1.8439   -1.6757 H   0  0  0  0  0  0  0  0  0  0  0  0
   -7.3588   -2.1857   -2.0732 H   0  0  0  0  0  0  0  0  0  0  0  0
   -9.0321   -2.0539   -0.2255 H   0  0  0  0  0  0  0  0  0  0  0  0
   -8.2222   -1.5610    2.0436 H   0  0  0  0  0  0  0  0  0  0  0  0
   -5.7713   -1.2169    2.4212 H   0  0  0  0  0  0  0  0  0  0  0  0
   -4.9625    1.0601    1.0538 H   0  0  0  0  0  0  0  0  0  0  0  0
  1  2  1  0
  2  3  1  0
  3  4  2  0
  4  5  1  0
  5  6  2  0
  6  7  1  0
  7  8  1  0
  8  9  1  0
  8 10  1  0
 10 11  1  0
 11 12  1  0
 12 13  1  0
 13 14  2  0
 14 15  1  0
 15 16  2  0
 16 17  1  0
 17 18  1  0
 18 19  1  0
 19 20  2  0
 19 21  1  0
 16 22  1  0
 22 23  1  0
 22 24  2  0
  6 25  1  0
 25 26  1  0
 26 27  1  0
 27 28  2  0
 28 29  1  0
 29 30  2  0
 30 31  1  0
 31 32  2  0
 25 33  2  0
 33  3  1  0
 24 13  1  0
 32 27  1  0
  1 34  1  0
  1 35  1  0
  1 36  1  0
  2 37  1  0
  2 38  1  0
  4 39  1  0
  5 40  1  0
  8 41  1  6
  9 42  1  0
  9 43  1  0
  9 44  1  0
 10 45  1  0
 10 46  1  0
 11 47  1  0
 11 48  1  0
 14 49  1  0
 15 50  1  0
 17 51  1  0
 17 52  1  0
 18 53  1  0
 18 54  1  0
 21 55  1  0
 23 56  1  0
 23 57  1  0
 23 58  1  0
 24 59  1  0
 26 60  1  0
 26 61  1  0
 28 62  1  0
 29 63  1  0
 30 64  1  0
 31 65  1  0
 32 66  1  0
 33 67  1  0
M  END
$$$$
