@<TRIPOS>MOLECULE
*****
 51 55 0 0 0
SMALL
GASTEIGER

@<TRIPOS>ATOM
      1 O           0.3371   -1.9678    0.7642 O.2     1  UNL1       -0.1685
      2 S           0.8863   -0.5355    0.8830 S.O2    1  UNL1        0.0072
      3 O           0.5770   -0.3003    2.3765 O.2     1  UNL1       -0.1685
      4 C           2.5692   -0.7331    0.6502 C.ar    1  UNL1        0.0893
      5 C           3.1446   -1.0968   -0.5390 C.ar    1  UNL1       -0.0355
      6 C           4.5025   -1.3470   -0.7111 C.ar    1  UNL1       -0.0416
      7 C           5.3312   -1.2266    0.3684 C.ar    1  UNL1        0.0411
      8 CL          7.0660   -1.5340    0.1985 Cl      1  UNL1       -0.0835
      9 C           4.7861   -0.8642    1.5739 C.ar    1  UNL1       -0.0416
     10 C           3.4758   -0.6258    1.7261 C.ar    1  UNL1       -0.0355
     11 C          -0.0701    0.4635   -0.1319 C.3     1  UNL1        0.1302
     12 C           0.0453   -0.0559   -1.5830 C.3     1  UNL1       -0.0227
     13 C          -0.2920   -1.4626   -1.7875 C.3     1  UNL1       -0.0501
     14 C          -1.6006   -1.8921   -1.1931 C.3     1  UNL1       -0.0447
     15 C          -2.1900   -1.0242   -0.1813 C.3     1  UNL1        0.0045
     16 C          -2.6957   -1.8107    1.0114 C.3     1  UNL1       -0.0213
     17 C          -3.9644   -2.4995    0.4716 C.3     1  UNL1        0.0483
     18 O          -3.9773   -2.1370   -0.8967 O.3     1  UNL1       -0.3792
     19 C          -3.6426   -0.7565   -0.7112 C.3     1  UNL1        0.0538
     20 C          -1.5502    0.2811    0.1870 C.3     1  UNL1        0.0307
     21 C          -2.4372    1.4314   -0.1600 C.3     1  UNL1        0.0955
     22 O          -1.8716    2.1802   -1.2754 O.3     1  UNL1       -0.4883
     23 C          -0.6512    2.7400   -0.9498 C.ar    1  UNL1        0.1635
     24 C          -0.3472    4.0749   -1.2426 C.ar    1  UNL1        0.1653
     25 F          -1.2955    4.8046   -1.8911 F       1  UNL1       -0.2016
     26 C           0.8633    4.6107   -0.8940 C.ar    1  UNL1       -0.0201
     27 C           1.7469    3.7988   -0.2575 C.ar    1  UNL1       -0.0232
     28 C           1.4765    2.4733    0.0442 C.ar    1  UNL1        0.1323
     29 F           2.3464    1.7288    0.6990 F       1  UNL1       -0.2050
     30 C           0.2566    1.8890   -0.2985 C.ar    1  UNL1        0.0600
     31 H           2.5766   -1.2270   -1.4525 H       1  UNL1        0.0637
     32 H           4.9097   -1.6299   -1.6640 H       1  UNL1        0.0633
     33 H           5.5124   -0.7874    2.3960 H       1  UNL1        0.0633
     34 H           3.0373   -0.3367    2.6854 H       1  UNL1        0.0637
     35 H          -0.6828    0.5484   -2.2315 H       1  UNL1        0.0290
     36 H           1.0105    0.2598   -1.9587 H       1  UNL1        0.0290
     37 H          -0.2912   -1.5981   -2.9202 H       1  UNL1        0.0266
     38 H           0.5222   -2.1366   -1.4905 H       1  UNL1        0.0266
     39 H          -1.5032   -2.9478   -0.8681 H       1  UNL1        0.0271
     40 H          -2.2802   -2.0298   -2.1042 H       1  UNL1        0.0271
     41 H          -3.0169   -1.0795    1.7824 H       1  UNL1        0.0294
     42 H          -2.0859   -2.6146    1.3737 H       1  UNL1        0.0294
     43 H          -4.8585   -2.0132    0.9061 H       1  UNL1        0.0560
     44 H          -3.9559   -3.5798    0.6167 H       1  UNL1        0.0560
     45 H          -4.3130   -0.4391    0.0634 H       1  UNL1        0.0565
     46 H          -3.6585   -0.3423   -1.6952 H       1  UNL1        0.0565
     47 H          -1.5256    0.2639    1.3286 H       1  UNL1        0.0365
     48 H          -3.4337    1.2101   -0.5236 H       1  UNL1        0.0700
     49 H          -2.6321    2.1076    0.7214 H       1  UNL1        0.0700
     50 H           1.0969    5.6207   -1.1147 H       1  UNL1        0.0648
     51 H           2.7464    4.1443    0.0636 H       1  UNL1        0.0647
@<TRIPOS>BOND
     1     1     2    2
     2     2     3    2
     3     2     4    1
     4     4     5   ar
     5     5     6   ar
     6     6     7   ar
     7     7     8    1
     8     7     9   ar
     9     9    10   ar
    10    11     2    1
    11    11    12    1
    12    12    13    1
    13    13    14    1
    14    15    14    1
    15    15    16    1
    16    16    17    1
    17    17    18    1
    18    18    19    1
    19    15    20    1
    20    20    21    1
    21    21    22    1
    22    22    23    1
    23    23    24   ar
    24    24    25    1
    25    24    26   ar
    26    26    27   ar
    27    27    28   ar
    28    28    29    1
    29    28    30   ar
    30    10     4   ar
    31    20    11    1
    32    30    23   ar
    33    30    11    1
    34    19    15    1
    35     5    31    1
    36     6    32    1
    37     9    33    1
    38    10    34    1
    39    12    35    1
    40    12    36    1
    41    13    37    1
    42    13    38    1
    43    14    39    1
    44    14    40    1
    45    16    41    1
    46    16    42    1
    47    17    43    1
    48    17    44    1
    49    19    45    1
    50    19    46    1
    51    20    47    1
    52    21    48    1
    53    21    49    1
    54    26    50    1
    55    27    51    1
