@<TRIPOS>MOLECULE
*****
 63 67 0 0 0
SMALL
GASTEIGER

@<TRIPOS>ATOM
      1 C          -6.3141   -2.9872    0.6043 C.3     1  UNL1       -0.0391
      2 C          -4.9495   -2.5042    0.3144 C.ar    1  UNL1       -0.0426
      3 C          -3.8816   -3.3933    0.2583 C.ar    1  UNL1       -0.0565
      4 C          -2.5782   -2.9671   -0.0071 C.ar    1  UNL1       -0.0402
      5 C          -2.3413   -1.6542   -0.2163 C.ar    1  UNL1        0.0343
      6 N          -1.0911   -1.0915   -0.4906 N.am    1  UNL1       -0.2815
      7 C           0.1216   -1.7803   -0.5934 C.2     1  UNL1        0.2483
      8 O           0.1498   -3.0054   -0.4355 O.2     1  UNL1       -0.2699
      9 C           1.4141   -1.1416   -0.8849 C.ar    1  UNL1        0.0370
     10 C           1.5077    0.2103   -1.0807 C.ar    1  UNL1       -0.0493
     11 C           2.7458    0.7712   -1.3531 C.ar    1  UNL1       -0.0566
     12 C           3.9060    0.0076   -1.4359 C.ar    1  UNL1       -0.0333
     13 C           5.2154    0.6539   -1.7315 C.3     1  UNL1        0.0241
     14 N           5.8162    1.0225   -0.4688 N.3     1  UNL1       -0.2957
     15 C           6.0513   -0.0774    0.3947 C.3     1  UNL1        0.0120
     16 C           6.9633    0.1469    1.5427 C.3     1  UNL1        0.0114
     17 N           7.8590    1.2614    1.4303 N.3     1  UNL1       -0.3029
     18 C           9.0016    0.8222    0.6288 C.3     1  UNL1       -0.0127
     19 C           7.2781    2.4095    0.8056 C.3     1  UNL1        0.0114
     20 C           6.8660    1.9774   -0.5995 C.3     1  UNL1        0.0120
     21 C           3.7746   -1.3349   -1.2354 C.ar    1  UNL1       -0.0566
     22 C           2.5614   -1.9267   -0.9628 C.ar    1  UNL1       -0.0493
     23 C          -3.4331   -0.7578   -0.1574 C.ar    1  UNL1       -0.0325
     24 C          -4.7139   -1.1695    0.1023 C.ar    1  UNL1       -0.0131
     25 C          -5.8263   -0.2274    0.1512 C.ar    1  UNL1       -0.0140
     26 C          -5.6271    0.9287    0.9138 C.ar    1  UNL1       -0.0531
     27 C          -6.6306    1.8692    1.0012 C.ar    1  UNL1       -0.0470
     28 C          -7.8401    1.7116    0.3565 C.ar    1  UNL1        0.0626
     29 C          -8.9998    2.4538    0.2572 C.ar    1  UNL1        0.1667
     30 N          -9.1899    3.6967    0.8923 N.pl3   1  UNL1       -0.3400
     31 N          -9.8170    1.7367   -0.5331 N.ar    1  UNL1       -0.0624
     32 O          -9.2270    0.6328   -0.9045 O.2     1  UNL1       -0.3528
     33 C          -8.0278    0.5718   -0.3916 C.ar    1  UNL1        0.1697
     34 C          -7.0209   -0.3816   -0.4849 C.ar    1  UNL1       -0.0083
     35 H          -6.9651   -2.2526    1.0971 H       1  UNL1        0.0278
     36 H          -6.2054   -3.8506    1.3279 H       1  UNL1        0.0278
     37 H          -6.7993   -3.4773   -0.2892 H       1  UNL1        0.0278
     38 H          -4.0559   -4.4312    0.4216 H       1  UNL1        0.0621
     39 H          -1.8116   -3.7083   -0.0344 H       1  UNL1        0.0636
     40 H          -1.0241   -0.0330   -0.6415 H       1  UNL1        0.1551
     41 H           0.6558    0.8513   -1.0308 H       1  UNL1        0.0625
     42 H           2.8633    1.8342   -1.5138 H       1  UNL1        0.0621
     43 H           5.8760    0.0223   -2.3473 H       1  UNL1        0.0476
     44 H           5.0443    1.6032   -2.3013 H       1  UNL1        0.0476
     45 H           5.0514   -0.4877    0.7022 H       1  UNL1        0.0439
     46 H           6.5039   -0.9035   -0.2292 H       1  UNL1        0.0439
     47 H           7.5080   -0.7928    1.8149 H       1  UNL1        0.0439
     48 H           6.3154    0.3540    2.4454 H       1  UNL1        0.0439
     49 H           9.7592    0.3361    1.2697 H       1  UNL1        0.0391
     50 H           8.6211    0.0795   -0.1270 H       1  UNL1        0.0391
     51 H           9.4082    1.7310    0.1144 H       1  UNL1        0.0391
     52 H           6.3703    2.7006    1.3669 H       1  UNL1        0.0439
     53 H           8.0421    3.2012    0.7672 H       1  UNL1        0.0439
     54 H           7.7191    1.6112   -1.1728 H       1  UNL1        0.0439
     55 H           6.4473    2.8825   -1.1076 H       1  UNL1        0.0439
     56 H           4.6482   -1.9932   -1.2871 H       1  UNL1        0.0621
     57 H           2.4641   -2.9791   -0.8062 H       1  UNL1        0.0625
     58 H          -3.2640    0.3024   -0.3230 H       1  UNL1        0.0642
     59 H          -4.6906    1.0739    1.4264 H       1  UNL1        0.0624
     60 H          -6.5103    2.7798    1.5850 H       1  UNL1        0.0626
     61 H          -9.8640    3.8043    1.6660 H       1  UNL1        0.1438
     62 H          -8.6441    4.5187    0.5783 H       1  UNL1        0.1438
     63 H          -7.1856   -1.2610   -1.0745 H       1  UNL1        0.0661
@<TRIPOS>BOND
     1     1     2    1
     2     2     3   ar
     3     3     4   ar
     4     4     5   ar
     5     5     6    1
     6     6     7   am
     7     7     8    2
     8     7     9    1
     9     9    10   ar
    10    10    11   ar
    11    11    12   ar
    12    12    13    1
    13    13    14    1
    14    14    15    1
    15    15    16    1
    16    16    17    1
    17    17    18    1
    18    17    19    1
    19    19    20    1
    20    12    21   ar
    21    21    22   ar
    22     5    23   ar
    23    23    24   ar
    24    24    25    1
    25    25    26   ar
    26    26    27   ar
    27    27    28   ar
    28    28    29   ar
    29    29    30    1
    30    29    31   ar
    31    31    32   ar
    32    32    33   ar
    33    33    34   ar
    34    24     2   ar
    35    34    25   ar
    36    22     9   ar
    37    33    28   ar
    38    20    14    1
    39     1    35    1
    40     1    36    1
    41     1    37    1
    42     3    38    1
    43     4    39    1
    44     6    40    1
    45    10    41    1
    46    11    42    1
    47    13    43    1
    48    13    44    1
    49    15    45    1
    50    15    46    1
    51    16    47    1
    52    16    48    1
    53    18    49    1
    54    18    50    1
    55    18    51    1
    56    19    52    1
    57    19    53    1
    58    20    54    1
    59    20    55    1
    60    21    56    1
    61    22    57    1
    62    23    58    1
    63    26    59    1
    64    27    60    1
    65    30    61    1
    66    30    62    1
    67    34    63    1
