
     RDKit          3D

 63 67  0  0  0  0  0  0  0  0999 V2000
   -6.3141   -2.9872    0.6043 C   0  0  0  0  0  0  0  0  0  0  0  0
   -4.9495   -2.5042    0.3144 C   0  0  0  0  0  0  0  0  0  0  0  0
   -3.8816   -3.3933    0.2583 C   0  0  0  0  0  0  0  0  0  0  0  0
   -2.5782   -2.9671   -0.0071 C   0  0  0  0  0  0  0  0  0  0  0  0
   -2.3413   -1.6542   -0.2163 C   0  0  0  0  0  0  0  0  0  0  0  0
   -1.0911   -1.0915   -0.4906 N   0  0  0  0  0  0  0  0  0  0  0  0
    0.1216   -1.7803   -0.5934 C   0  0  0  0  0  0  0  0  0  0  0  0
    0.1498   -3.0054   -0.4355 O   0  0  0  0  0  0  0  0  0  0  0  0
    1.4141   -1.1416   -0.8849 C   0  0  0  0  0  0  0  0  0  0  0  0
    1.5077    0.2103   -1.0807 C   0  0  0  0  0  0  0  0  0  0  0  0
    2.7458    0.7712   -1.3531 C   0  0  0  0  0  0  0  0  0  0  0  0
    3.9060    0.0076   -1.4359 C   0  0  0  0  0  0  0  0  0  0  0  0
    5.2154    0.6539   -1.7315 C   0  0  0  0  0  0  0  0  0  0  0  0
    5.8162    1.0225   -0.4688 N   0  0  0  0  0  0  0  0  0  0  0  0
    6.0513   -0.0774    0.3947 C   0  0  0  0  0  0  0  0  0  0  0  0
    6.9633    0.1469    1.5427 C   0  0  0  0  0  0  0  0  0  0  0  0
    7.8590    1.2614    1.4303 N   0  0  0  0  0  0  0  0  0  0  0  0
    9.0016    0.8222    0.6288 C   0  0  0  0  0  0  0  0  0  0  0  0
    7.2781    2.4095    0.8056 C   0  0  0  0  0  0  0  0  0  0  0  0
    6.8660    1.9774   -0.5995 C   0  0  0  0  0  0  0  0  0  0  0  0
    3.7746   -1.3349   -1.2354 C   0  0  0  0  0  0  0  0  0  0  0  0
    2.5614   -1.9267   -0.9628 C   0  0  0  0  0  0  0  0  0  0  0  0
   -3.4331   -0.7578   -0.1574 C   0  0  0  0  0  0  0  0  0  0  0  0
   -4.7139   -1.1695    0.1023 C   0  0  0  0  0  0  0  0  0  0  0  0
   -5.8263   -0.2274    0.1512 C   0  0  0  0  0  0  0  0  0  0  0  0
   -5.6271    0.9287    0.9138 C   0  0  0  0  0  0  0  0  0  0  0  0
   -6.6306    1.8692    1.0012 C   0  0  0  0  0  0  0  0  0  0  0  0
   -7.8401    1.7116    0.3565 C   0  0  0  0  0  0  0  0  0  0  0  0
   -8.9998    2.4538    0.2572 C   0  0  0  0  0  0  0  0  0  0  0  0
   -9.1899    3.6967    0.8923 N   0  0  0  0  0  0  0  0  0  0  0  0
   -9.8170    1.7367   -0.5331 N   0  0  0  0  0  0  0  0  0  0  0  0
   -9.2270    0.6328   -0.9045 O   0  0  0  0  0  0  0  0  0  0  0  0
   -8.0278    0.5718   -0.3916 C   0  0  0  0  0  0  0  0  0  0  0  0
   -7.0209   -0.3816   -0.4849 C   0  0  0  0  0  0  0  0  0  0  0  0
   -6.9651   -2.2526    1.0971 H   0  0  0  0  0  0  0  0  0  0  0  0
   -6.2054   -3.8506    1.3279 H   0  0  0  0  0  0  0  0  0  0  0  0
   -6.7993   -3.4773   -0.2892 H   0  0  0  0  0  0  0  0  0  0  0  0
   -4.0559   -4.4312    0.4216 H   0  0  0  0  0  0  0  0  0  0  0  0
   -1.8116   -3.7083   -0.0344 H   0  0  0  0  0  0  0  0  0  0  0  0
   -1.0241   -0.0330   -0.6415 H   0  0  0  0  0  0  0  0  0  0  0  0
    0.6558    0.8513   -1.0308 H   0  0  0  0  0  0  0  0  0  0  0  0
    2.8633    1.8342   -1.5138 H   0  0  0  0  0  0  0  0  0  0  0  0
    5.8760    0.0223   -2.3473 H   0  0  0  0  0  0  0  0  0  0  0  0
    5.0443    1.6032   -2.3013 H   0  0  0  0  0  0  0  0  0  0  0  0
    5.0514   -0.4877    0.7022 H   0  0  0  0  0  0  0  0  0  0  0  0
    6.5039   -0.9035   -0.2292 H   0  0  0  0  0  0  0  0  0  0  0  0
    7.5080   -0.7928    1.8149 H   0  0  0  0  0  0  0  0  0  0  0  0
    6.3154    0.3540    2.4454 H   0  0  0  0  0  0  0  0  0  0  0  0
    9.7592    0.3361    1.2697 H   0  0  0  0  0  0  0  0  0  0  0  0
    8.6211    0.0795   -0.1270 H   0  0  0  0  0  0  0  0  0  0  0  0
    9.4082    1.7310    0.1144 H   0  0  0  0  0  0  0  0  0  0  0  0
    6.3703    2.7006    1.3669 H   0  0  0  0  0  0  0  0  0  0  0  0
    8.0421    3.2012    0.7672 H   0  0  0  0  0  0  0  0  0  0  0  0
    7.7191    1.6112   -1.1728 H   0  0  0  0  0  0  0  0  0  0  0  0
    6.4473    2.8825   -1.1076 H   0  0  0  0  0  0  0  0  0  0  0  0
    4.6482   -1.9932   -1.2871 H   0  0  0  0  0  0  0  0  0  0  0  0
    2.4641   -2.9791   -0.8062 H   0  0  0  0  0  0  0  0  0  0  0  0
   -3.2640    0.3024   -0.3230 H   0  0  0  0  0  0  0  0  0  0  0  0
   -4.6906    1.0739    1.4264 H   0  0  0  0  0  0  0  0  0  0  0  0
   -6.5103    2.7798    1.5850 H   0  0  0  0  0  0  0  0  0  0  0  0
   -9.8640    3.8043    1.6660 H   0  0  0  0  0  0  0  0  0  0  0  0
   -8.6441    4.5187    0.5783 H   0  0  0  0  0  0  0  0  0  0  0  0
   -7.1856   -1.2610   -1.0745 H   0  0  0  0  0  0  0  0  0  0  0  0
  1  2  1  0
  2  3  2  0
  3  4  1  0
  4  5  2  0
  5  6  1  0
  6  7  1  0
  7  8  2  0
  7  9  1  0
  9 10  2  0
 10 11  1  0
 11 12  2  0
 12 13  1  0
 13 14  1  0
 14 15  1  0
 15 16  1  0
 16 17  1  0
 17 18  1  0
 17 19  1  0
 19 20  1  0
 12 21  1  0
 21 22  2  0
  5 23  1  0
 23 24  2  0
 24 25  1  0
 25 26  2  0
 26 27  1  0
 27 28  2  0
 28 29  1  0
 29 30  1  0
 29 31  2  0
 31 32  1  0
 32 33  1  0
 33 34  2  0
 24  2  1  0
 34 25  1  0
 22  9  1  0
 33 28  1  0
 20 14  1  0
  1 35  1  0
  1 36  1  0
  1 37  1  0
  3 38  1  0
  4 39  1  0
  6 40  1  0
 10 41  1  0
 11 42  1  0
 13 43  1  0
 13 44  1  0
 15 45  1  0
 15 46  1  0
 16 47  1  0
 16 48  1  0
 18 49  1  0
 18 50  1  0
 18 51  1  0
 19 52  1  0
 19 53  1  0
 20 54  1  0
 20 55  1  0
 21 56  1  0
 22 57  1  0
 23 58  1  0
 26 59  1  0
 27 60  1  0
 30 61  1  0
 30 62  1  0
 34 63  1  0
M  END
$$$$
