@<TRIPOS>MOLECULE
*****
 78 78 0 0 0
SMALL
GASTEIGER

@<TRIPOS>ATOM
      1 C           4.7788    4.6552    2.7062 C.1     1  UNL1       -0.1138
      2 C           4.4129    3.5302    2.4470 C.1     1  UNL1       -0.0660
      3 C           3.9967    2.2219    2.1225 C.ar    1  UNL1        0.0663
      4 C           3.1025    1.5053    2.9181 C.ar    1  UNL1       -0.0421
      5 C           2.7573    0.2359    2.5754 C.ar    1  UNL1       -0.0482
      6 C           3.2207   -0.4356    1.4763 C.ar    1  UNL1        0.0404
      7 C           2.8484   -1.8185    1.2147 C.2     1  UNL1        0.2470
      8 O           3.7526   -2.6624    1.6294 O.2     1  UNL1       -0.2700
      9 N           1.7083   -2.3481    0.6158 N.am    1  UNL1       -0.2934
     10 C           0.6582   -1.5590    0.0501 C.3     1  UNL1        0.0328
     11 C          -0.3038   -1.0147    1.0152 C.3     1  UNL1        0.0471
     12 N          -0.9611   -1.9438    1.8327 N.3     1  UNL1       -0.3239
     13 C          -1.3167   -0.0697    0.3416 C.3     1  UNL1        0.0725
     14 O          -0.8730    0.7268   -0.6276 O.3     1  UNL1       -0.3902
     15 C          -2.6705   -0.6377    0.3920 C.3     1  UNL1       -0.0145
     16 C          -3.7520    0.1647   -0.3006 C.3     1  UNL1        0.0351
     17 C          -3.5183    0.2128   -1.7737 C.3     1  UNL1       -0.0540
     18 C          -5.0509   -0.4375    0.0386 C.2     1  UNL1        0.2159
     19 O          -5.0488   -1.2947    0.9776 O.2     1  UNL1       -0.2755
     20 N          -6.2681   -0.1370   -0.5840 N.am    1  UNL1       -0.3151
     21 C          -7.4844   -0.7870   -0.1044 C.3     1  UNL1        0.0116
     22 C          -7.7211   -0.3274    1.3211 C.3     1  UNL1       -0.0376
     23 C          -7.8659    1.1887    1.3592 C.3     1  UNL1       -0.0545
     24 C          -9.0341    1.6531    0.5270 C.3     1  UNL1       -0.0652
     25 C           1.6657   -3.8243    0.5189 C.3     1  UNL1        0.0207
     26 C           0.5554   -4.4807    1.2555 C.3     1  UNL1       -0.0467
     27 C           1.6460   -4.2252   -0.9256 C.3     1  UNL1       -0.0467
     28 C           4.1146    0.2691    0.6697 C.ar    1  UNL1       -0.0066
     29 C           4.4950    1.5782    0.9957 C.ar    1  UNL1        0.1365
     30 O           5.3874    2.2322    0.1906 O.3     1  UNL1       -0.4906
     31 C           5.9067    1.6339   -0.9698 C.3     1  UNL1        0.0917
     32 C           6.9582    2.6359   -1.4979 C.3     1  UNL1        0.0049
     33 C           7.5294    2.1249   -2.7734 C.3     1  UNL1        0.0504
     34 O           6.5941    1.9994   -3.8037 O.3     1  UNL1       -0.3829
     35 C           6.0568    3.2391   -4.1466 C.3     1  UNL1        0.0364
     36 H           5.0971    5.6509    2.9458 H       1  UNL1        0.1232
     37 H           2.7214    2.0366    3.7979 H       1  UNL1        0.0631
     38 H           2.0673   -0.3056    3.2279 H       1  UNL1        0.0625
     39 H           0.1496   -2.1820   -0.7589 H       1  UNL1        0.0481
     40 H           1.2198   -0.7214   -0.5007 H       1  UNL1        0.0481
     41 H           0.2936   -0.3656    1.7297 H       1  UNL1        0.0499
     42 H          -0.7394   -1.9720    2.8276 H       1  UNL1        0.1186
     43 H          -1.7436   -2.4826    1.4676 H       1  UNL1        0.1186
     44 H          -1.4176    0.7525    1.2380 H       1  UNL1        0.0609
     45 H          -0.2731    0.3707   -1.2989 H       1  UNL1        0.2098
     46 H          -2.7442   -1.6593   -0.0854 H       1  UNL1        0.0298
     47 H          -2.9998   -0.8344    1.4659 H       1  UNL1        0.0298
     48 H          -3.7131    1.2417    0.1221 H       1  UNL1        0.0392
     49 H          -4.1501   -0.6376   -2.2038 H       1  UNL1        0.0237
     50 H          -3.7769    1.1855   -2.2062 H       1  UNL1        0.0237
     51 H          -2.4871   -0.0778   -2.0881 H       1  UNL1        0.0237
     52 H          -6.2791    0.5444   -1.3862 H       1  UNL1        0.1487
     53 H          -8.3451   -0.6698   -0.7562 H       1  UNL1        0.0462
     54 H          -7.2438   -1.8904   -0.0148 H       1  UNL1        0.0462
     55 H          -6.9045   -0.6184    1.9716 H       1  UNL1        0.0280
     56 H          -8.6704   -0.7919    1.6714 H       1  UNL1        0.0280
     57 H          -8.0217    1.4962    2.3962 H       1  UNL1        0.0263
     58 H          -6.9104    1.6280    0.9691 H       1  UNL1        0.0263
     59 H          -8.6433    2.2253   -0.3295 H       1  UNL1        0.0230
     60 H          -9.6735    2.3609    1.1319 H       1  UNL1        0.0230
     61 H          -9.6617    0.8153    0.1476 H       1  UNL1        0.0230
     62 H           2.6211   -4.2478    0.9733 H       1  UNL1        0.0495
     63 H           0.4752   -4.1804    2.3236 H       1  UNL1        0.0247
     64 H          -0.4347   -4.3756    0.7784 H       1  UNL1        0.0247
     65 H           0.8034   -5.5999    1.3459 H       1  UNL1        0.0247
     66 H           1.9503   -3.3882   -1.5971 H       1  UNL1        0.0247
     67 H           2.3807   -5.0344   -1.0858 H       1  UNL1        0.0247
     68 H           0.6549   -4.6405   -1.2569 H       1  UNL1        0.0247
     69 H           4.4855   -0.2475   -0.2017 H       1  UNL1        0.0662
     70 H           6.3527    0.6638   -0.7623 H       1  UNL1        0.0697
     71 H           5.0633    1.5498   -1.6981 H       1  UNL1        0.0697
     72 H           6.4549    3.5883   -1.5041 H       1  UNL1        0.0320
     73 H           7.7727    2.5478   -0.7023 H       1  UNL1        0.0320
     74 H           7.9095    1.0700   -2.6126 H       1  UNL1        0.0561
     75 H           8.4234    2.7010   -3.0851 H       1  UNL1        0.0561
     76 H           5.3213    3.0728   -4.9592 H       1  UNL1        0.0523
     77 H           5.5114    3.6947   -3.2957 H       1  UNL1        0.0523
     78 H           6.8268    3.9230   -4.5648 H       1  UNL1        0.0523
@<TRIPOS>BOND
     1     1     2    3
     2     2     3    1
     3     3     4   ar
     4     4     5   ar
     5     5     6   ar
     6     6     7    1
     7     7     8    2
     8     7     9   am
     9     9    10    1
    10    10    11    1
    11    11    12    1
    12    11    13    1
    13    13    14    1
    14    13    15    1
    15    15    16    1
    16    16    17    1
    17    16    18    1
    18    18    19    2
    19    18    20   am
    20    20    21    1
    21    21    22    1
    22    22    23    1
    23    23    24    1
    24     9    25    1
    25    25    26    1
    26    25    27    1
    27     6    28   ar
    28    28    29   ar
    29    29    30    1
    30    30    31    1
    31    31    32    1
    32    32    33    1
    33    33    34    1
    34    34    35    1
    35    29     3   ar
    36     1    36    1
    37     4    37    1
    38     5    38    1
    39    10    39    1
    40    10    40    1
    41    11    41    1
    42    12    42    1
    43    12    43    1
    44    13    44    1
    45    14    45    1
    46    15    46    1
    47    15    47    1
    48    16    48    1
    49    17    49    1
    50    17    50    1
    51    17    51    1
    52    20    52    1
    53    21    53    1
    54    21    54    1
    55    22    55    1
    56    22    56    1
    57    23    57    1
    58    23    58    1
    59    24    59    1
    60    24    60    1
    61    24    61    1
    62    25    62    1
    63    26    63    1
    64    26    64    1
    65    26    65    1
    66    27    66    1
    67    27    67    1
    68    27    68    1
    69    28    69    1
    70    31    70    1
    71    31    71    1
    72    32    72    1
    73    32    73    1
    74    33    74    1
    75    33    75    1
    76    35    76    1
    77    35    77    1
    78    35    78    1
