
     RDKit          3D

 78 78  0  0  0  0  0  0  0  0999 V2000
    4.7788    4.6552    2.7062 C   0  0  0  0  0  0  0  0  0  0  0  0
    4.4129    3.5302    2.4470 C   0  0  0  0  0  0  0  0  0  0  0  0
    3.9967    2.2219    2.1225 C   0  0  0  0  0  0  0  0  0  0  0  0
    3.1025    1.5053    2.9181 C   0  0  0  0  0  0  0  0  0  0  0  0
    2.7573    0.2359    2.5754 C   0  0  0  0  0  0  0  0  0  0  0  0
    3.2207   -0.4356    1.4763 C   0  0  0  0  0  0  0  0  0  0  0  0
    2.8484   -1.8185    1.2147 C   0  0  0  0  0  0  0  0  0  0  0  0
    3.7526   -2.6624    1.6294 O   0  0  0  0  0  0  0  0  0  0  0  0
    1.7083   -2.3481    0.6158 N   0  0  0  0  0  0  0  0  0  0  0  0
    0.6582   -1.5590    0.0501 C   0  0  0  0  0  0  0  0  0  0  0  0
   -0.3038   -1.0147    1.0152 C   0  0  2  0  0  0  0  0  0  0  0  0
   -0.9611   -1.9438    1.8327 N   0  0  0  0  0  0  0  0  0  0  0  0
   -1.3167   -0.0697    0.3416 C   0  0  1  0  0  0  0  0  0  0  0  0
   -0.8730    0.7268   -0.6276 O   0  0  0  0  0  0  0  0  0  0  0  0
   -2.6705   -0.6377    0.3920 C   0  0  0  0  0  0  0  0  0  0  0  0
   -3.7520    0.1647   -0.3006 C   0  0  1  0  0  0  0  0  0  0  0  0
   -3.5183    0.2128   -1.7737 C   0  0  0  0  0  0  0  0  0  0  0  0
   -5.0509   -0.4375    0.0386 C   0  0  0  0  0  0  0  0  0  0  0  0
   -5.0488   -1.2947    0.9776 O   0  0  0  0  0  0  0  0  0  0  0  0
   -6.2681   -0.1370   -0.5840 N   0  0  0  0  0  0  0  0  0  0  0  0
   -7.4844   -0.7870   -0.1044 C   0  0  0  0  0  0  0  0  0  0  0  0
   -7.7211   -0.3274    1.3211 C   0  0  0  0  0  0  0  0  0  0  0  0
   -7.8659    1.1887    1.3592 C   0  0  0  0  0  0  0  0  0  0  0  0
   -9.0341    1.6531    0.5270 C   0  0  0  0  0  0  0  0  0  0  0  0
    1.6657   -3.8243    0.5189 C   0  0  0  0  0  0  0  0  0  0  0  0
    0.5554   -4.4807    1.2555 C   0  0  0  0  0  0  0  0  0  0  0  0
    1.6460   -4.2252   -0.9256 C   0  0  0  0  0  0  0  0  0  0  0  0
    4.1146    0.2691    0.6697 C   0  0  0  0  0  0  0  0  0  0  0  0
    4.4950    1.5782    0.9957 C   0  0  0  0  0  0  0  0  0  0  0  0
    5.3874    2.2322    0.1906 O   0  0  0  0  0  0  0  0  0  0  0  0
    5.9067    1.6339   -0.9698 C   0  0  0  0  0  0  0  0  0  0  0  0
    6.9582    2.6359   -1.4979 C   0  0  0  0  0  0  0  0  0  0  0  0
    7.5294    2.1249   -2.7734 C   0  0  0  0  0  0  0  0  0  0  0  0
    6.5941    1.9994   -3.8037 O   0  0  0  0  0  0  0  0  0  0  0  0
    6.0568    3.2391   -4.1466 C   0  0  0  0  0  0  0  0  0  0  0  0
    5.0971    5.6509    2.9458 H   0  0  0  0  0  0  0  0  0  0  0  0
    2.7214    2.0366    3.7979 H   0  0  0  0  0  0  0  0  0  0  0  0
    2.0673   -0.3056    3.2279 H   0  0  0  0  0  0  0  0  0  0  0  0
    0.1496   -2.1820   -0.7589 H   0  0  0  0  0  0  0  0  0  0  0  0
    1.2198   -0.7214   -0.5007 H   0  0  0  0  0  0  0  0  0  0  0  0
    0.2936   -0.3656    1.7297 H   0  0  0  0  0  0  0  0  0  0  0  0
   -0.7394   -1.9720    2.8276 H   0  0  0  0  0  0  0  0  0  0  0  0
   -1.7436   -2.4826    1.4676 H   0  0  0  0  0  0  0  0  0  0  0  0
   -1.4176    0.7525    1.2380 H   0  0  0  0  0  0  0  0  0  0  0  0
   -0.2731    0.3707   -1.2989 H   0  0  0  0  0  0  0  0  0  0  0  0
   -2.7442   -1.6593   -0.0854 H   0  0  0  0  0  0  0  0  0  0  0  0
   -2.9998   -0.8344    1.4659 H   0  0  0  0  0  0  0  0  0  0  0  0
   -3.7131    1.2417    0.1221 H   0  0  0  0  0  0  0  0  0  0  0  0
   -4.1501   -0.6376   -2.2038 H   0  0  0  0  0  0  0  0  0  0  0  0
   -3.7769    1.1855   -2.2062 H   0  0  0  0  0  0  0  0  0  0  0  0
   -2.4871   -0.0778   -2.0881 H   0  0  0  0  0  0  0  0  0  0  0  0
   -6.2791    0.5444   -1.3862 H   0  0  0  0  0  0  0  0  0  0  0  0
   -8.3451   -0.6698   -0.7562 H   0  0  0  0  0  0  0  0  0  0  0  0
   -7.2438   -1.8904   -0.0148 H   0  0  0  0  0  0  0  0  0  0  0  0
   -6.9045   -0.6184    1.9716 H   0  0  0  0  0  0  0  0  0  0  0  0
   -8.6704   -0.7919    1.6714 H   0  0  0  0  0  0  0  0  0  0  0  0
   -8.0217    1.4962    2.3962 H   0  0  0  0  0  0  0  0  0  0  0  0
   -6.9104    1.6280    0.9691 H   0  0  0  0  0  0  0  0  0  0  0  0
   -8.6433    2.2253   -0.3295 H   0  0  0  0  0  0  0  0  0  0  0  0
   -9.6735    2.3609    1.1319 H   0  0  0  0  0  0  0  0  0  0  0  0
   -9.6617    0.8153    0.1476 H   0  0  0  0  0  0  0  0  0  0  0  0
    2.6211   -4.2478    0.9733 H   0  0  0  0  0  0  0  0  0  0  0  0
    0.4752   -4.1804    2.3236 H   0  0  0  0  0  0  0  0  0  0  0  0
   -0.4347   -4.3756    0.7784 H   0  0  0  0  0  0  0  0  0  0  0  0
    0.8034   -5.5999    1.3459 H   0  0  0  0  0  0  0  0  0  0  0  0
    1.9503   -3.3882   -1.5971 H   0  0  0  0  0  0  0  0  0  0  0  0
    2.3807   -5.0344   -1.0858 H   0  0  0  0  0  0  0  0  0  0  0  0
    0.6549   -4.6405   -1.2569 H   0  0  0  0  0  0  0  0  0  0  0  0
    4.4855   -0.2475   -0.2017 H   0  0  0  0  0  0  0  0  0  0  0  0
    6.3527    0.6638   -0.7623 H   0  0  0  0  0  0  0  0  0  0  0  0
    5.0633    1.5498   -1.6981 H   0  0  0  0  0  0  0  0  0  0  0  0
    6.4549    3.5883   -1.5041 H   0  0  0  0  0  0  0  0  0  0  0  0
    7.7727    2.5478   -0.7023 H   0  0  0  0  0  0  0  0  0  0  0  0
    7.9095    1.0700   -2.6126 H   0  0  0  0  0  0  0  0  0  0  0  0
    8.4234    2.7010   -3.0851 H   0  0  0  0  0  0  0  0  0  0  0  0
    5.3213    3.0728   -4.9592 H   0  0  0  0  0  0  0  0  0  0  0  0
    5.5114    3.6947   -3.2957 H   0  0  0  0  0  0  0  0  0  0  0  0
    6.8268    3.9230   -4.5648 H   0  0  0  0  0  0  0  0  0  0  0  0
  1  2  3  0
  2  3  1  0
  3  4  2  0
  4  5  1  0
  5  6  2  0
  6  7  1  0
  7  8  2  0
  7  9  1  0
  9 10  1  0
 10 11  1  0
 11 12  1  0
 11 13  1  0
 13 14  1  0
 13 15  1  0
 15 16  1  0
 16 17  1  0
 16 18  1  0
 18 19  2  0
 18 20  1  0
 20 21  1  0
 21 22  1  0
 22 23  1  0
 23 24  1  0
  9 25  1  0
 25 26  1  0
 25 27  1  0
  6 28  1  0
 28 29  2  0
 29 30  1  0
 30 31  1  0
 31 32  1  0
 32 33  1  0
 33 34  1  0
 34 35  1  0
 29  3  1  0
  1 36  1  0
  4 37  1  0
  5 38  1  0
 10 39  1  0
 10 40  1  0
 11 41  1  1
 12 42  1  0
 12 43  1  0
 13 44  1  1
 14 45  1  0
 15 46  1  0
 15 47  1  0
 16 48  1  1
 17 49  1  0
 17 50  1  0
 17 51  1  0
 20 52  1  0
 21 53  1  0
 21 54  1  0
 22 55  1  0
 22 56  1  0
 23 57  1  0
 23 58  1  0
 24 59  1  0
 24 60  1  0
 24 61  1  0
 25 62  1  0
 26 63  1  0
 26 64  1  0
 26 65  1  0
 27 66  1  0
 27 67  1  0
 27 68  1  0
 28 69  1  0
 31 70  1  0
 31 71  1  0
 32 72  1  0
 32 73  1  0
 33 74  1  0
 33 75  1  0
 35 76  1  0
 35 77  1  0
 35 78  1  0
M  END
$$$$
