
     RDKit          3D

 65 70  0  0  0  0  0  0  0  0999 V2000
   -6.4772    2.7166    0.4873 C   0  0  0  0  0  0  0  0  0  0  0  0
   -6.9557    2.6442   -0.8881 N   0  0  0  0  0  0  0  0  0  0  0  0
   -8.2635    3.1526   -1.2281 C   0  0  0  0  0  0  0  0  0  0  0  0
   -6.0838    2.0595   -1.8443 C   0  0  0  0  0  0  0  0  0  0  0  0
   -6.5017    2.0019   -3.0277 O   0  0  0  0  0  0  0  0  0  0  0  0
   -4.7743    1.5555   -1.4609 C   0  0  0  0  0  0  0  0  0  0  0  0
   -3.5479    2.1890   -1.6099 C   0  0  0  0  0  0  0  0  0  0  0  0
   -2.6219    1.3104   -1.0931 C   0  0  0  0  0  0  0  0  0  0  0  0
   -1.2469    1.4577   -0.9975 C   0  0  0  0  0  0  0  0  0  0  0  0
   -0.5437    0.4498   -0.4445 N   0  0  0  0  0  0  0  0  0  0  0  0
   -1.1493   -0.6622    0.0008 C   0  0  0  0  0  0  0  0  0  0  0  0
   -0.3727   -1.6873    0.5732 N   0  0  0  0  0  0  0  0  0  0  0  0
    1.0361   -1.5477    0.6310 C   0  0  0  0  0  0  0  0  0  0  0  0
    1.8508   -2.4934    1.1976 C   0  0  0  0  0  0  0  0  0  0  0  0
    3.2147   -2.3677    1.2453 C   0  0  0  0  0  0  0  0  0  0  0  0
    3.8047   -1.2489    0.7050 C   0  0  0  0  0  0  0  0  0  0  0  0
    5.2132   -1.0605    0.7246 N   0  0  0  0  0  0  0  0  0  0  0  0
    5.8256   -0.3557    1.8091 C   0  0  0  0  0  0  0  0  0  0  0  0
    6.6563    0.8229    1.3304 C   0  0  0  0  0  0  0  0  0  0  0  0
    8.1030    0.5869    1.7000 C   0  0  0  0  0  0  0  0  0  0  0  0
    8.5632   -0.3607    0.6244 C   0  0  0  0  0  0  0  0  0  0  0  0
    7.7237   -0.0003   -0.5600 C   0  0  0  0  0  0  0  0  0  0  0  0
    7.0928   -1.2545   -1.1261 C   0  0  0  0  0  0  0  0  0  0  0  0
    5.8518   -1.6367   -0.4190 C   0  0  0  0  0  0  0  0  0  0  0  0
    5.2883   -2.6343   -0.9289 O   0  0  0  0  0  0  0  0  0  0  0  0
    6.6986    0.9158   -0.0975 N   0  0  0  0  0  0  0  0  0  0  0  0
    2.9715   -0.2995    0.1351 C   0  0  0  0  0  0  0  0  0  0  0  0
    1.6411   -0.4470    0.1016 N   0  0  0  0  0  0  0  0  0  0  0  0
   -2.5023   -0.7795   -0.1066 N   0  0  0  0  0  0  0  0  0  0  0  0
   -3.2806    0.1731   -0.6429 C   0  0  0  0  0  0  0  0  0  0  0  0
   -4.5899    0.3368   -0.8740 N   0  0  0  0  0  0  0  0  0  0  0  0
   -5.6239   -0.5923   -0.5705 C   0  0  0  0  0  0  0  0  0  0  0  0
   -5.8128   -1.0298    0.8443 C   0  0  0  0  0  0  0  0  0  0  0  0
   -6.1912   -2.4053    0.2719 C   0  0  0  0  0  0  0  0  0  0  0  0
   -5.2472   -2.0395   -0.8835 C   0  0  0  0  0  0  0  0  0  0  0  0
   -5.3610    2.7541    0.5294 H   0  0  0  0  0  0  0  0  0  0  0  0
   -6.7882    1.8204    1.0546 H   0  0  0  0  0  0  0  0  0  0  0  0
   -6.8624    3.5944    1.0312 H   0  0  0  0  0  0  0  0  0  0  0  0
   -8.7441    3.5354   -0.3092 H   0  0  0  0  0  0  0  0  0  0  0  0
   -8.0992    3.9753   -1.9733 H   0  0  0  0  0  0  0  0  0  0  0  0
   -8.8553    2.3128   -1.6697 H   0  0  0  0  0  0  0  0  0  0  0  0
   -3.3890    3.1767   -2.0491 H   0  0  0  0  0  0  0  0  0  0  0  0
   -0.7654    2.3644   -1.3616 H   0  0  0  0  0  0  0  0  0  0  0  0
   -0.8101   -2.5448    0.9531 H   0  0  0  0  0  0  0  0  0  0  0  0
    1.4154   -3.3766    1.6265 H   0  0  0  0  0  0  0  0  0  0  0  0
    3.8424   -3.1421    1.7073 H   0  0  0  0  0  0  0  0  0  0  0  0
    4.9938    0.0760    2.4245 H   0  0  0  0  0  0  0  0  0  0  0  0
    6.4063   -1.0351    2.4578 H   0  0  0  0  0  0  0  0  0  0  0  0
    6.3570    1.7726    1.8214 H   0  0  0  0  0  0  0  0  0  0  0  0
    8.1275    0.1352    2.7083 H   0  0  0  0  0  0  0  0  0  0  0  0
    8.6205    1.5731    1.6605 H   0  0  0  0  0  0  0  0  0  0  0  0
    9.6549   -0.2500    0.4311 H   0  0  0  0  0  0  0  0  0  0  0  0
    8.3091   -1.3905    0.9603 H   0  0  0  0  0  0  0  0  0  0  0  0
    8.3320    0.4714   -1.3803 H   0  0  0  0  0  0  0  0  0  0  0  0
    6.8299   -1.1244   -2.2032 H   0  0  0  0  0  0  0  0  0  0  0  0
    7.8211   -2.0975   -1.1133 H   0  0  0  0  0  0  0  0  0  0  0  0
    6.9356    1.9009   -0.3747 H   0  0  0  0  0  0  0  0  0  0  0  0
    3.4576    0.5830   -0.2903 H   0  0  0  0  0  0  0  0  0  0  0  0
   -6.6096   -0.4080   -1.0549 H   0  0  0  0  0  0  0  0  0  0  0  0
   -4.9329   -1.1367    1.4765 H   0  0  0  0  0  0  0  0  0  0  0  0
   -6.7262   -0.6224    1.3526 H   0  0  0  0  0  0  0  0  0  0  0  0
   -7.2292   -2.3962   -0.1271 H   0  0  0  0  0  0  0  0  0  0  0  0
   -5.8860   -3.2568    0.8763 H   0  0  0  0  0  0  0  0  0  0  0  0
   -4.2234   -2.3368   -0.5822 H   0  0  0  0  0  0  0  0  0  0  0  0
   -5.5704   -2.3978   -1.8747 H   0  0  0  0  0  0  0  0  0  0  0  0
  1  2  1  0
  2  3  1  0
  2  4  1  0
  4  5  2  0
  4  6  1  0
  6  7  2  0
  7  8  1  0
  8  9  2  0
  9 10  1  0
 10 11  2  0
 11 12  1  0
 12 13  1  0
 13 14  2  0
 14 15  1  0
 15 16  2  0
 16 17  1  0
 17 18  1  0
 18 19  1  0
 19 20  1  0
 20 21  1  0
 21 22  1  0
 22 23  1  0
 23 24  1  0
 24 25  2  0
 22 26  1  0
 16 27  1  0
 27 28  2  0
 11 29  1  0
 29 30  2  0
 30 31  1  0
 31 32  1  0
 32 33  1  0
 33 34  1  0
 34 35  1  0
 31  6  1  0
 35 32  1  0
 30  8  1  0
 28 13  1  0
 24 17  1  0
 26 19  1  0
  1 36  1  0
  1 37  1  0
  1 38  1  0
  3 39  1  0
  3 40  1  0
  3 41  1  0
  7 42  1  0
  9 43  1  0
 12 44  1  0
 14 45  1  0
 15 46  1  0
 18 47  1  0
 18 48  1  0
 19 49  1  0
 20 50  1  0
 20 51  1  0
 21 52  1  0
 21 53  1  0
 22 54  1  0
 23 55  1  0
 23 56  1  0
 26 57  1  0
 27 58  1  0
 32 59  1  0
 33 60  1  0
 33 61  1  0
 34 62  1  0
 34 63  1  0
 35 64  1  0
 35 65  1  0
M  END
$$$$
