@<TRIPOS>MOLECULE
*****
 65 70 0 0 0
SMALL
GASTEIGER

@<TRIPOS>ATOM
      1 C          -6.4772    2.7166    0.4873 C.3     1  UNL1        0.0032
      2 N          -6.9557    2.6442   -0.8881 N.am    1  UNL1       -0.3024
      3 C          -8.2635    3.1526   -1.2281 C.3     1  UNL1        0.0032
      4 C          -6.0838    2.0595   -1.8443 C.2     1  UNL1        0.2627
      5 O          -6.5017    2.0019   -3.0277 O.2     1  UNL1       -0.2684
      6 C          -4.7743    1.5555   -1.4609 C.ar    1  UNL1        0.1070
      7 C          -3.5479    2.1890   -1.6099 C.ar    1  UNL1       -0.0209
      8 C          -2.6219    1.3104   -1.0931 C.ar    1  UNL1        0.0378
      9 C          -1.2469    1.4577   -0.9975 C.ar    1  UNL1        0.0419
     10 N          -0.5437    0.4498   -0.4445 N.ar    1  UNL1       -0.2219
     11 C          -1.1493   -0.6622    0.0008 C.ar    1  UNL1        0.2224
     12 N          -0.3727   -1.6873    0.5732 N.pl3   1  UNL1       -0.2684
     13 C           1.0361   -1.5477    0.6310 C.ar    1  UNL1        0.1251
     14 C           1.8508   -2.4934    1.1976 C.ar    1  UNL1       -0.0197
     15 C           3.2147   -2.3677    1.2453 C.ar    1  UNL1       -0.0355
     16 C           3.8047   -1.2489    0.7050 C.ar    1  UNL1        0.0545
     17 N           5.2132   -1.0605    0.7246 N.am    1  UNL1       -0.2685
     18 C           5.8256   -0.3557    1.8091 C.3     1  UNL1        0.0352
     19 C           6.6563    0.8229    1.3304 C.3     1  UNL1        0.0241
     20 C           8.1030    0.5869    1.7000 C.3     1  UNL1       -0.0347
     21 C           8.5632   -0.3607    0.6244 C.3     1  UNL1       -0.0356
     22 C           7.7237   -0.0003   -0.5600 C.3     1  UNL1        0.0162
     23 C           7.0928   -1.2545   -1.1261 C.3     1  UNL1        0.0399
     24 C           5.8518   -1.6367   -0.4190 C.2     1  UNL1        0.2213
     25 O           5.2883   -2.6343   -0.9289 O.2     1  UNL1       -0.2752
     26 N           6.6986    0.9158   -0.0975 N.3     1  UNL1       -0.3086
     27 C           2.9715   -0.2995    0.1351 C.ar    1  UNL1        0.0511
     28 N           1.6411   -0.4470    0.1016 N.ar    1  UNL1       -0.2383
     29 N          -2.5023   -0.7795   -0.1066 N.ar    1  UNL1       -0.1962
     30 C          -3.2806    0.1731   -0.6429 C.ar    1  UNL1        0.1466
     31 N          -4.5899    0.3368   -0.8740 N.ar    1  UNL1       -0.3180
     32 C          -5.6239   -0.5923   -0.5705 C.3     1  UNL1        0.0366
     33 C          -5.8128   -1.0298    0.8443 C.3     1  UNL1       -0.0320
     34 C          -6.1912   -2.4053    0.2719 C.3     1  UNL1       -0.0493
     35 C          -5.2472   -2.0395   -0.8835 C.3     1  UNL1       -0.0320
     36 H          -5.3610    2.7541    0.5294 H       1  UNL1        0.0428
     37 H          -6.7882    1.8204    1.0546 H       1  UNL1        0.0428
     38 H          -6.8624    3.5944    1.0312 H       1  UNL1        0.0428
     39 H          -8.7441    3.5354   -0.3092 H       1  UNL1        0.0428
     40 H          -8.0992    3.9753   -1.9733 H       1  UNL1        0.0428
     41 H          -8.8553    2.3128   -1.6697 H       1  UNL1        0.0428
     42 H          -3.3890    3.1767   -2.0491 H       1  UNL1        0.0647
     43 H          -0.7654    2.3644   -1.3616 H       1  UNL1        0.0838
     44 H          -0.8101   -2.5448    0.9531 H       1  UNL1        0.1564
     45 H           1.4154   -3.3766    1.6265 H       1  UNL1        0.0652
     46 H           3.8424   -3.1421    1.7073 H       1  UNL1        0.0638
     47 H           4.9938    0.0760    2.4245 H       1  UNL1        0.0484
     48 H           6.4063   -1.0351    2.4578 H       1  UNL1        0.0484
     49 H           6.3570    1.7726    1.8214 H       1  UNL1        0.0476
     50 H           8.1275    0.1352    2.7083 H       1  UNL1        0.0281
     51 H           8.6205    1.5731    1.6605 H       1  UNL1        0.0281
     52 H           9.6549   -0.2500    0.4311 H       1  UNL1        0.0281
     53 H           8.3091   -1.3905    0.9603 H       1  UNL1        0.0281
     54 H           8.3320    0.4714   -1.3803 H       1  UNL1        0.0465
     55 H           6.8299   -1.1244   -2.2032 H       1  UNL1        0.0374
     56 H           7.8211   -2.0975   -1.1133 H       1  UNL1        0.0374
     57 H           6.9356    1.9009   -0.3747 H       1  UNL1        0.1225
     58 H           3.4576    0.5830   -0.2903 H       1  UNL1        0.0849
     59 H          -6.6096   -0.4080   -1.0549 H       1  UNL1        0.0528
     60 H          -4.9329   -1.1367    1.4765 H       1  UNL1        0.0285
     61 H          -6.7262   -0.6224    1.3526 H       1  UNL1        0.0285
     62 H          -7.2292   -2.3962   -0.1271 H       1  UNL1        0.0267
     63 H          -5.8860   -3.2568    0.8763 H       1  UNL1        0.0267
     64 H          -4.2234   -2.3368   -0.5822 H       1  UNL1        0.0285
     65 H          -5.5704   -2.3978   -1.8747 H       1  UNL1        0.0285
@<TRIPOS>BOND
     1     1     2    1
     2     2     3    1
     3     2     4   am
     4     4     5    2
     5     4     6    1
     6     6     7   ar
     7     7     8   ar
     8     8     9   ar
     9     9    10   ar
    10    10    11   ar
    11    11    12    1
    12    12    13    1
    13    13    14   ar
    14    14    15   ar
    15    15    16   ar
    16    16    17    1
    17    17    18    1
    18    18    19    1
    19    19    20    1
    20    20    21    1
    21    21    22    1
    22    22    23    1
    23    23    24    1
    24    24    25    2
    25    22    26    1
    26    16    27   ar
    27    27    28   ar
    28    11    29   ar
    29    29    30   ar
    30    30    31   ar
    31    31    32    1
    32    32    33    1
    33    33    34    1
    34    34    35    1
    35    31     6   ar
    36    35    32    1
    37    30     8   ar
    38    28    13   ar
    39    24    17   am
    40    26    19    1
    41     1    36    1
    42     1    37    1
    43     1    38    1
    44     3    39    1
    45     3    40    1
    46     3    41    1
    47     7    42    1
    48     9    43    1
    49    12    44    1
    50    14    45    1
    51    15    46    1
    52    18    47    1
    53    18    48    1
    54    19    49    1
    55    20    50    1
    56    20    51    1
    57    21    52    1
    58    21    53    1
    59    22    54    1
    60    23    55    1
    61    23    56    1
    62    26    57    1
    63    27    58    1
    64    32    59    1
    65    33    60    1
    66    33    61    1
    67    34    62    1
    68    34    63    1
    69    35    64    1
    70    35    65    1
