@<TRIPOS>MOLECULE
*****
 36 37 0 0 0
SMALL
GASTEIGER

@<TRIPOS>ATOM
      1 C          -2.3122   -3.5600    0.5130 C.3     1  UNL1        0.0790
      2 O          -2.7579   -2.3713    1.0875 O.3     1  UNL1       -0.4913
      3 C          -2.2639   -1.1271    0.7199 C.ar    1  UNL1        0.1652
      4 C          -1.2847   -1.0796   -0.2632 C.ar    1  UNL1       -0.0126
      5 C          -0.7583    0.1298   -0.6670 C.ar    1  UNL1       -0.0358
      6 C           0.2778    0.1547   -1.7212 C.3     1  UNL1        0.0025
      7 C           1.6408   -0.1057   -1.2618 C.ar    1  UNL1        0.0146
      8 C           2.1521   -1.3871   -1.5013 C.ar    1  UNL1        0.0379
      9 N           3.3789   -1.6503   -1.0875 N.ar    1  UNL1       -0.2227
     10 C           4.1489   -0.7496   -0.4530 C.ar    1  UNL1        0.2142
     11 N           5.4509   -1.1635   -0.0597 N.pl3   1  UNL1       -0.3274
     12 N           3.6817    0.4825   -0.2128 N.ar    1  UNL1       -0.1999
     13 C           2.4213    0.8192   -0.6149 C.ar    1  UNL1        0.1247
     14 N           1.9013    2.1187   -0.3791 N.pl3   1  UNL1       -0.3428
     15 C          -1.2212    1.2827   -0.0787 C.ar    1  UNL1       -0.0126
     16 C          -2.1976    1.2746    0.9059 C.ar    1  UNL1        0.1652
     17 O          -2.6866    2.4179    1.5196 O.3     1  UNL1       -0.4913
     18 C          -2.1630    3.6724    1.1231 C.3     1  UNL1        0.0790
     19 C          -2.7050    0.0475    1.2887 C.ar    1  UNL1        0.2010
     20 O          -3.6883   -0.0115    2.2752 O.3     1  UNL1       -0.5009
     21 H          -2.4019   -3.4593   -0.5878 H       1  UNL1        0.0660
     22 H          -1.2545   -3.7336    0.8243 H       1  UNL1        0.0660
     23 H          -2.9227   -4.4060    0.8969 H       1  UNL1        0.0660
     24 H          -0.9499   -2.0115   -0.6994 H       1  UNL1        0.0658
     25 H          -0.0487   -0.5650   -2.5136 H       1  UNL1        0.0363
     26 H           0.2800    1.1450   -2.2416 H       1  UNL1        0.0363
     27 H           1.5387   -2.1137   -2.0094 H       1  UNL1        0.0834
     28 H           5.4906   -1.7523    0.8184 H       1  UNL1        0.1452
     29 H           6.2895   -0.9003   -0.6037 H       1  UNL1        0.1452
     30 H           1.4311    2.6367   -1.1576 H       1  UNL1        0.1437
     31 H           1.9770    2.5692    0.5509 H       1  UNL1        0.1437
     32 H          -0.8574    2.2596   -0.3504 H       1  UNL1        0.0658
     33 H          -1.0748    3.6825    1.3578 H       1  UNL1        0.0660
     34 H          -2.6905    4.5163    1.6114 H       1  UNL1        0.0660
     35 H          -2.2435    3.7083    0.0172 H       1  UNL1        0.0660
     36 H          -3.5779   -0.7703    2.9540 H       1  UNL1        0.2924
@<TRIPOS>BOND
     1     1     2    1
     2     2     3    1
     3     3     4   ar
     4     4     5   ar
     5     5     6    1
     6     6     7    1
     7     7     8   ar
     8     8     9   ar
     9     9    10   ar
    10    10    11    1
    11    10    12   ar
    12    12    13   ar
    13    13    14    1
    14     5    15   ar
    15    15    16   ar
    16    16    17    1
    17    17    18    1
    18    16    19   ar
    19    19    20    1
    20    19     3   ar
    21    13     7   ar
    22     1    21    1
    23     1    22    1
    24     1    23    1
    25     4    24    1
    26     6    25    1
    27     6    26    1
    28     8    27    1
    29    11    28    1
    30    11    29    1
    31    14    30    1
    32    14    31    1
    33    15    32    1
    34    18    33    1
    35    18    34    1
    36    18    35    1
    37    20    36    1
