@<TRIPOS>MOLECULE
*****
 41 44 0 0 0
SMALL
GASTEIGER

@<TRIPOS>ATOM
      1 N          -5.3170    1.4075   -1.7616 N.pl3   1  UNL1       -0.3134
      2 C          -4.4438    0.5065   -1.0961 C.2     1  UNL1        0.2764
      3 N          -3.4361    0.8807   -0.4051 N.2     1  UNL1       -0.2194
      4 C          -2.5321   -0.0059    0.2878 C.3     1  UNL1        0.1603
      5 C          -1.2789    0.8105    0.4356 C.ar    1  UNL1        0.0228
      6 C          -0.0770    0.2638    0.0430 C.ar    1  UNL1       -0.0321
      7 C           1.1265    0.9630    0.2530 C.ar    1  UNL1        0.0342
      8 N           2.3882    0.4339   -0.1389 N.am    1  UNL1       -0.2802
      9 C           3.2045   -0.3693    0.6903 C.2     1  UNL1        0.2681
     10 O           2.7712   -0.6207    1.8422 O.2     1  UNL1       -0.2681
     11 C           4.4942   -0.9059    0.2798 C.ar    1  UNL1        0.1437
     12 C           5.2162   -1.6788    1.1600 C.ar    1  UNL1        0.0597
     13 N           6.4290   -2.2034    0.8211 N.ar    1  UNL1       -0.2397
     14 C           6.9532   -1.9798   -0.3831 C.ar    1  UNL1        0.1472
     15 CL          8.5159   -2.6437   -0.8483 Cl      1  UNL1       -0.0604
     16 C           6.2422   -1.2075   -1.2763 C.ar    1  UNL1        0.0652
     17 N           5.0283   -0.6841   -0.9332 N.ar    1  UNL1       -0.2458
     18 C           1.0315    2.1912    0.8586 C.ar    1  UNL1       -0.0377
     19 C          -0.1732    2.7342    1.2500 C.ar    1  UNL1       -0.0243
     20 C          -1.3480    2.0462    1.0408 C.ar    1  UNL1        0.1292
     21 F          -2.5522    2.5452    1.3627 F       1  UNL1       -0.2051
     22 C          -3.1209   -0.4331    1.5680 C.3     1  UNL1        0.2686
     23 F          -4.3309   -1.0909    1.3279 F       1  UNL1       -0.2062
     24 F          -3.4747    0.6292    2.3550 F       1  UNL1       -0.2062
     25 C          -2.2744   -1.1536   -0.6711 C.3     1  UNL1        0.0344
     26 C          -2.8379   -2.4813   -0.4411 C.3     1  UNL1       -0.0064
     27 C          -3.4592   -1.6027   -1.4616 C.3     1  UNL1        0.1091
     28 O          -4.6193   -0.8888   -1.1479 O.2     1  UNL1       -0.4622
     29 H          -6.1946    1.6727   -1.2743 H       1  UNL1        0.1466
     30 H          -5.1251    1.8059   -2.6920 H       1  UNL1        0.1466
     31 H           0.0823   -0.6930   -0.4090 H       1  UNL1        0.0640
     32 H           2.7370    0.6495   -1.0974 H       1  UNL1        0.1552
     33 H           4.8434   -1.8941    2.1488 H       1  UNL1        0.0853
     34 H           6.6429   -1.0124   -2.2538 H       1  UNL1        0.0860
     35 H           1.9500    2.7616    1.0374 H       1  UNL1        0.0637
     36 H          -0.2599    3.7005    1.7282 H       1  UNL1        0.0647
     37 H          -2.5040   -1.1812    2.1244 H       1  UNL1        0.1047
     38 H          -1.3786   -1.0556   -1.3068 H       1  UNL1        0.0366
     39 H          -2.2608   -3.3433   -0.9236 H       1  UNL1        0.0306
     40 H          -3.3369   -2.8458    0.4522 H       1  UNL1        0.0306
     41 H          -3.3211   -1.8193   -2.5455 H       1  UNL1        0.0737
@<TRIPOS>BOND
     1     1     2    1
     2     2     3    2
     3     3     4    1
     4     4     5    1
     5     5     6   ar
     6     6     7   ar
     7     7     8    1
     8     8     9   am
     9     9    10    2
    10     9    11    1
    11    11    12   ar
    12    12    13   ar
    13    13    14   ar
    14    14    15    1
    15    14    16   ar
    16    16    17   ar
    17     7    18   ar
    18    18    19   ar
    19    19    20   ar
    20    20    21    1
    21     4    22    1
    22    22    23    1
    23    22    24    1
    24     4    25    1
    25    25    26    1
    26    26    27    1
    27    27    28    1
    28    28     2    1
    29    20     5   ar
    30    27    25    1
    31    17    11   ar
    32     1    29    1
    33     1    30    1
    34     6    31    1
    35     8    32    1
    36    12    33    1
    37    16    34    1
    38    18    35    1
    39    19    36    1
    40    22    37    1
    41    25    38    1
    42    26    39    1
    43    26    40    1
    44    27    41    1
