
     RDKit          3D

 41 44  0  0  0  0  0  0  0  0999 V2000
   -5.3170    1.4075   -1.7616 N   0  0  0  0  0  0  0  0  0  0  0  0
   -4.4438    0.5065   -1.0961 C   0  0  0  0  0  0  0  0  0  0  0  0
   -3.4361    0.8807   -0.4051 N   0  0  0  0  0  0  0  0  0  0  0  0
   -2.5321   -0.0059    0.2878 C   0  0  1  0  0  0  0  0  0  0  0  0
   -1.2789    0.8105    0.4356 C   0  0  0  0  0  0  0  0  0  0  0  0
   -0.0770    0.2638    0.0430 C   0  0  0  0  0  0  0  0  0  0  0  0
    1.1265    0.9630    0.2530 C   0  0  0  0  0  0  0  0  0  0  0  0
    2.3882    0.4339   -0.1389 N   0  0  0  0  0  0  0  0  0  0  0  0
    3.2045   -0.3693    0.6903 C   0  0  0  0  0  0  0  0  0  0  0  0
    2.7712   -0.6207    1.8422 O   0  0  0  0  0  0  0  0  0  0  0  0
    4.4942   -0.9059    0.2798 C   0  0  0  0  0  0  0  0  0  0  0  0
    5.2162   -1.6788    1.1600 C   0  0  0  0  0  0  0  0  0  0  0  0
    6.4290   -2.2034    0.8211 N   0  0  0  0  0  0  0  0  0  0  0  0
    6.9532   -1.9798   -0.3831 C   0  0  0  0  0  0  0  0  0  0  0  0
    8.5159   -2.6437   -0.8483 Cl  0  0  0  0  0  0  0  0  0  0  0  0
    6.2422   -1.2075   -1.2763 C   0  0  0  0  0  0  0  0  0  0  0  0
    5.0283   -0.6841   -0.9332 N   0  0  0  0  0  0  0  0  0  0  0  0
    1.0315    2.1912    0.8586 C   0  0  0  0  0  0  0  0  0  0  0  0
   -0.1732    2.7342    1.2500 C   0  0  0  0  0  0  0  0  0  0  0  0
   -1.3480    2.0462    1.0408 C   0  0  0  0  0  0  0  0  0  0  0  0
   -2.5522    2.5452    1.3627 F   0  0  0  0  0  0  0  0  0  0  0  0
   -3.1209   -0.4331    1.5680 C   0  0  0  0  0  0  0  0  0  0  0  0
   -4.3309   -1.0909    1.3279 F   0  0  0  0  0  0  0  0  0  0  0  0
   -3.4747    0.6292    2.3550 F   0  0  0  0  0  0  0  0  0  0  0  0
   -2.2744   -1.1536   -0.6711 C   0  0  1  0  0  0  0  0  0  0  0  0
   -2.8379   -2.4813   -0.4411 C   0  0  0  0  0  0  0  0  0  0  0  0
   -3.4592   -1.6027   -1.4616 C   0  0  0  0  0  0  0  0  0  0  0  0
   -4.6193   -0.8888   -1.1479 O   0  0  0  0  0  0  0  0  0  0  0  0
   -6.1946    1.6727   -1.2743 H   0  0  0  0  0  0  0  0  0  0  0  0
   -5.1251    1.8059   -2.6920 H   0  0  0  0  0  0  0  0  0  0  0  0
    0.0823   -0.6930   -0.4090 H   0  0  0  0  0  0  0  0  0  0  0  0
    2.7370    0.6495   -1.0974 H   0  0  0  0  0  0  0  0  0  0  0  0
    4.8434   -1.8941    2.1488 H   0  0  0  0  0  0  0  0  0  0  0  0
    6.6429   -1.0124   -2.2538 H   0  0  0  0  0  0  0  0  0  0  0  0
    1.9500    2.7616    1.0374 H   0  0  0  0  0  0  0  0  0  0  0  0
   -0.2599    3.7005    1.7282 H   0  0  0  0  0  0  0  0  0  0  0  0
   -2.5040   -1.1812    2.1244 H   0  0  0  0  0  0  0  0  0  0  0  0
   -1.3786   -1.0556   -1.3068 H   0  0  0  0  0  0  0  0  0  0  0  0
   -2.2608   -3.3433   -0.9236 H   0  0  0  0  0  0  0  0  0  0  0  0
   -3.3369   -2.8458    0.4522 H   0  0  0  0  0  0  0  0  0  0  0  0
   -3.3211   -1.8193   -2.5455 H   0  0  0  0  0  0  0  0  0  0  0  0
  1  2  1  0
  2  3  2  0
  3  4  1  0
  4  5  1  0
  5  6  2  0
  6  7  1  0
  7  8  1  0
  8  9  1  0
  9 10  2  0
  9 11  1  0
 11 12  2  0
 12 13  1  0
 13 14  2  0
 14 15  1  0
 14 16  1  0
 16 17  2  0
  7 18  2  0
 18 19  1  0
 19 20  2  0
 20 21  1  0
  4 22  1  1
 22 23  1  0
 22 24  1  0
  4 25  1  0
 25 26  1  0
 26 27  1  0
 27 28  1  0
 28  2  1  0
 20  5  1  0
 27 25  1  0
 17 11  1  0
  1 29  1  0
  1 30  1  0
  6 31  1  0
  8 32  1  0
 12 33  1  0
 16 34  1  0
 18 35  1  0
 19 36  1  0
 22 37  1  0
 25 38  1  6
 26 39  1  0
 26 40  1  0
 27 41  1  0
M  END
$$$$
