
     RDKit          3D

 66 70  0  0  0  0  0  0  0  0999 V2000
    9.7009    1.3153    0.5249 C   0  0  0  0  0  0  0  0  0  0  0  0
    9.0071    0.1845    0.0383 O   0  0  0  0  0  0  0  0  0  0  0  0
    7.5998    0.2532   -0.0195 C   0  0  0  0  0  0  0  0  0  0  0  0
    6.8954   -0.8329   -0.4891 C   0  0  0  0  0  0  0  0  0  0  0  0
    5.5132   -0.7932   -0.5568 C   0  0  0  0  0  0  0  0  0  0  0  0
    4.8318    0.3091   -0.1645 C   0  0  0  0  0  0  0  0  0  0  0  0
    3.3671    0.4446   -0.1994 C   0  0  0  0  0  0  0  0  0  0  0  0
    2.5854   -0.5996   -0.6571 C   0  0  0  0  0  0  0  0  0  0  0  0
    1.2215   -0.4374   -0.6755 C   0  0  0  0  0  0  0  0  0  0  0  0
    0.7129    0.7645   -0.2337 C   0  0  0  0  0  0  0  0  0  0  0  0
    1.5126    1.7877    0.2169 C   0  0  0  0  0  0  0  0  0  0  0  0
    1.0081    2.8780    0.6152 O   0  0  0  0  0  0  0  0  0  0  0  0
    2.8047    1.5750    0.2112 O   0  0  0  0  0  0  0  0  0  0  0  0
   -0.7737    0.8716   -0.2852 C   0  0  0  0  0  0  0  0  0  0  0  0
   -1.3071   -0.3401    0.4094 C   0  0  1  0  0  0  0  0  0  0  0  0
   -0.6465   -0.3902    1.6638 O   0  0  0  0  0  0  0  0  0  0  0  0
   -2.7804   -0.2937    0.7458 C   0  0  1  0  0  0  0  0  0  0  0  0
   -2.9743   -1.4492    1.7566 C   0  0  0  0  0  0  0  0  0  0  0  0
   -3.1030    0.9253    1.5548 C   0  0  0  0  0  0  0  0  0  0  0  0
   -4.6204    1.1111    1.6630 C   0  0  0  0  0  0  0  0  0  0  0  0
   -5.0920    1.3675    0.2877 C   0  0  0  0  0  0  0  0  0  0  0  0
   -6.0228    2.1293    0.1204 O   0  0  0  0  0  0  0  0  0  0  0  0
   -4.4508    0.7146   -0.8729 C   0  0  0  0  0  0  0  0  0  0  0  0
   -5.6087    0.1783   -1.7357 C   0  0  0  0  0  0  0  0  0  0  0  0
   -3.7382    1.7145   -1.6683 C   0  0  0  0  0  0  0  0  0  0  0  0
   -3.6817   -0.5012   -0.4336 C   0  0  2  0  0  0  0  0  0  0  0  0
   -4.7160   -1.3720    0.0215 O   0  0  0  0  0  0  0  0  0  0  0  0
   -3.0463   -1.2192   -1.5834 C   0  0  0  0  0  0  0  0  0  0  0  0
   -1.9672   -2.1769   -1.1819 C   0  0  0  0  0  0  0  0  0  0  0  0
   -0.8929   -1.5704   -0.3246 C   0  0  2  0  0  0  0  0  0  0  0  0
   -0.4609   -2.6918    0.6411 C   0  0  0  0  0  0  0  0  0  0  0  0
    0.2937   -1.3619   -1.0950 O   0  0  0  0  0  0  0  0  0  0  0  0
    5.5671    1.3994    0.3086 C   0  0  0  0  0  0  0  0  0  0  0  0
    6.9394    1.3933    0.3890 C   0  0  0  0  0  0  0  0  0  0  0  0
   10.7819    1.1325    0.4709 H   0  0  0  0  0  0  0  0  0  0  0  0
    9.3669    1.5397    1.5707 H   0  0  0  0  0  0  0  0  0  0  0  0
    9.4341    2.2392   -0.0570 H   0  0  0  0  0  0  0  0  0  0  0  0
    7.4299   -1.7195   -0.8055 H   0  0  0  0  0  0  0  0  0  0  0  0
    4.9561   -1.6498   -0.9272 H   0  0  0  0  0  0  0  0  0  0  0  0
    2.9783   -1.5307   -1.0008 H   0  0  0  0  0  0  0  0  0  0  0  0
   -0.9927    0.8488   -1.3965 H   0  0  0  0  0  0  0  0  0  0  0  0
   -1.0246    1.8354    0.1421 H   0  0  0  0  0  0  0  0  0  0  0  0
    0.1878    0.1070    1.6526 H   0  0  0  0  0  0  0  0  0  0  0  0
   -2.0688   -1.6290    2.3386 H   0  0  0  0  0  0  0  0  0  0  0  0
   -3.7571   -1.1718    2.5254 H   0  0  0  0  0  0  0  0  0  0  0  0
   -3.4112   -2.3345    1.2579 H   0  0  0  0  0  0  0  0  0  0  0  0
   -2.7180    1.8721    1.2214 H   0  0  0  0  0  0  0  0  0  0  0  0
   -2.7506    0.7937    2.6203 H   0  0  0  0  0  0  0  0  0  0  0  0
   -4.7689    1.9781    2.3388 H   0  0  0  0  0  0  0  0  0  0  0  0
   -5.1406    0.2387    2.0492 H   0  0  0  0  0  0  0  0  0  0  0  0
   -5.2059   -0.3721   -2.5869 H   0  0  0  0  0  0  0  0  0  0  0  0
   -6.3414   -0.3500   -1.1281 H   0  0  0  0  0  0  0  0  0  0  0  0
   -6.1004    1.1056   -2.1524 H   0  0  0  0  0  0  0  0  0  0  0  0
   -3.1352    1.3869   -2.5078 H   0  0  0  0  0  0  0  0  0  0  0  0
   -3.0892    2.4267   -1.0784 H   0  0  0  0  0  0  0  0  0  0  0  0
   -4.5212    2.4014   -2.1128 H   0  0  0  0  0  0  0  0  0  0  0  0
   -5.0713   -1.9025   -0.7391 H   0  0  0  0  0  0  0  0  0  0  0  0
   -2.6450   -0.5778   -2.3771 H   0  0  0  0  0  0  0  0  0  0  0  0
   -3.8284   -1.8510   -2.1070 H   0  0  0  0  0  0  0  0  0  0  0  0
   -1.4778   -2.5193   -2.1349 H   0  0  0  0  0  0  0  0  0  0  0  0
   -2.3857   -3.1312   -0.7525 H   0  0  0  0  0  0  0  0  0  0  0  0
   -1.2859   -3.3650    0.8895 H   0  0  0  0  0  0  0  0  0  0  0  0
    0.0833   -2.2752    1.5132 H   0  0  0  0  0  0  0  0  0  0  0  0
    0.3012   -3.3663    0.1428 H   0  0  0  0  0  0  0  0  0  0  0  0
    5.0373    2.2823    0.6239 H   0  0  0  0  0  0  0  0  0  0  0  0
    7.4854    2.2704    0.7668 H   0  0  0  0  0  0  0  0  0  0  0  0
  1  2  1  0
  2  3  1  0
  3  4  2  0
  4  5  1  0
  5  6  2  0
  6  7  1  0
  7  8  2  0
  8  9  1  0
  9 10  2  0
 10 11  1  0
 11 12  2  0
 11 13  1  0
 10 14  1  0
 14 15  1  0
 15 16  1  1
 15 17  1  0
 17 18  1  1
 17 19  1  0
 19 20  1  0
 20 21  1  0
 21 22  2  0
 21 23  1  0
 23 24  1  0
 23 25  1  0
 23 26  1  0
 26 27  1  1
 26 28  1  0
 28 29  1  0
 29 30  1  0
 30 31  1  1
 30 32  1  0
  6 33  1  0
 33 34  2  0
 34  3  1  0
 13  7  1  0
 30 15  1  0
 32  9  1  0
 26 17  1  0
  1 35  1  0
  1 36  1  0
  1 37  1  0
  4 38  1  0
  5 39  1  0
  8 40  1  0
 14 41  1  0
 14 42  1  0
 16 43  1  0
 18 44  1  0
 18 45  1  0
 18 46  1  0
 19 47  1  0
 19 48  1  0
 20 49  1  0
 20 50  1  0
 24 51  1  0
 24 52  1  0
 24 53  1  0
 25 54  1  0
 25 55  1  0
 25 56  1  0
 27 57  1  0
 28 58  1  0
 28 59  1  0
 29 60  1  0
 29 61  1  0
 31 62  1  0
 31 63  1  0
 31 64  1  0
 33 65  1  0
 34 66  1  0
M  END
$$$$
