@<TRIPOS>MOLECULE
*****
 66 70 0 0 0
SMALL
GASTEIGER

@<TRIPOS>ATOM
      1 C           9.7009    1.3153    0.5249 C.3     1  UNL1        0.0788
      2 O           9.0071    0.1845    0.0383 O.3     1  UNL1       -0.4951
      3 C           7.5998    0.2532   -0.0195 C.ar    1  UNL1        0.1201
      4 C           6.8954   -0.8329   -0.4891 C.ar    1  UNL1       -0.0193
      5 C           5.5132   -0.7932   -0.5568 C.ar    1  UNL1       -0.0476
      6 C           4.8318    0.3091   -0.1645 C.ar    1  UNL1        0.0177
      7 C           3.3671    0.4446   -0.1994 C.ar    1  UNL1        0.1425
      8 C           2.5854   -0.5996   -0.6571 C.ar    1  UNL1        0.0236
      9 C           1.2215   -0.4374   -0.6755 C.ar    1  UNL1        0.1350
     10 C           0.7129    0.7645   -0.2337 C.ar    1  UNL1        0.0814
     11 C           1.5126    1.7877    0.2169 C.ar    1  UNL1        0.3441
     12 O           1.0081    2.8780    0.6152 O.2     1  UNL1       -0.2447
     13 O           2.8047    1.5750    0.2112 O.2     1  UNL1       -0.4218
     14 C          -0.7737    0.8716   -0.2852 C.3     1  UNL1        0.0160
     15 C          -1.3071   -0.3401    0.4094 C.3     1  UNL1        0.1174
     16 O          -0.6465   -0.3902    1.6638 O.3     1  UNL1       -0.3837
     17 C          -2.7804   -0.2937    0.7458 C.3     1  UNL1        0.0308
     18 C          -2.9743   -1.4492    1.7566 C.3     1  UNL1       -0.0541
     19 C          -3.1030    0.9253    1.5548 C.3     1  UNL1       -0.0355
     20 C          -4.6204    1.1111    1.6630 C.3     1  UNL1        0.0071
     21 C          -5.0920    1.3675    0.2877 C.2     1  UNL1        0.1417
     22 O          -6.0228    2.1293    0.1204 O.2     1  UNL1       -0.2967
     23 C          -4.4508    0.7146   -0.8729 C.3     1  UNL1        0.0526
     24 C          -5.6087    0.1783   -1.7357 C.3     1  UNL1       -0.0504
     25 C          -3.7382    1.7145   -1.6683 C.3     1  UNL1       -0.0504
     26 C          -3.6817   -0.5012   -0.4336 C.3     1  UNL1        0.0860
     27 O          -4.7160   -1.3720    0.0215 O.3     1  UNL1       -0.3870
     28 C          -3.0463   -1.2192   -1.5834 C.3     1  UNL1       -0.0188
     29 C          -1.9672   -2.1769   -1.1819 C.3     1  UNL1       -0.0078
     30 C          -0.8929   -1.5704   -0.3246 C.3     1  UNL1        0.1373
     31 C          -0.4609   -2.6918    0.6411 C.3     1  UNL1       -0.0221
     32 O           0.2937   -1.3619   -1.0950 O.3     1  UNL1       -0.4825
     33 C           5.5671    1.3994    0.3086 C.ar    1  UNL1       -0.0476
     34 C           6.9394    1.3933    0.3890 C.ar    1  UNL1       -0.0193
     35 H          10.7819    1.1325    0.4709 H       1  UNL1        0.0660
     36 H           9.3669    1.5397    1.5707 H       1  UNL1        0.0660
     37 H           9.4341    2.2392   -0.0570 H       1  UNL1        0.0660
     38 H           7.4299   -1.7195   -0.8055 H       1  UNL1        0.0654
     39 H           4.9561   -1.6498   -0.9272 H       1  UNL1        0.0626
     40 H           2.9783   -1.5307   -1.0008 H       1  UNL1        0.0691
     41 H          -0.9927    0.8488   -1.3965 H       1  UNL1        0.0346
     42 H          -1.0246    1.8354    0.1421 H       1  UNL1        0.0346
     43 H           0.1878    0.1070    1.6526 H       1  UNL1        0.2104
     44 H          -2.0688   -1.6290    2.3386 H       1  UNL1        0.0237
     45 H          -3.7571   -1.1718    2.5254 H       1  UNL1        0.0237
     46 H          -3.4112   -2.3345    1.2579 H       1  UNL1        0.0237
     47 H          -2.7180    1.8721    1.2214 H       1  UNL1        0.0276
     48 H          -2.7506    0.7937    2.6203 H       1  UNL1        0.0276
     49 H          -4.7689    1.9781    2.3388 H       1  UNL1        0.0342
     50 H          -5.1406    0.2387    2.0492 H       1  UNL1        0.0342
     51 H          -5.2059   -0.3721   -2.5869 H       1  UNL1        0.0240
     52 H          -6.3414   -0.3500   -1.1281 H       1  UNL1        0.0240
     53 H          -6.1004    1.1056   -2.1524 H       1  UNL1        0.0240
     54 H          -3.1352    1.3869   -2.5078 H       1  UNL1        0.0240
     55 H          -3.0892    2.4267   -1.0784 H       1  UNL1        0.0240
     56 H          -4.5212    2.4014   -2.1128 H       1  UNL1        0.0240
     57 H          -5.0713   -1.9025   -0.7391 H       1  UNL1        0.2102
     58 H          -2.6450   -0.5778   -2.3771 H       1  UNL1        0.0295
     59 H          -3.8284   -1.8510   -2.1070 H       1  UNL1        0.0295
     60 H          -1.4778   -2.5193   -2.1349 H       1  UNL1        0.0305
     61 H          -2.3857   -3.1312   -0.7525 H       1  UNL1        0.0305
     62 H          -1.2859   -3.3650    0.8895 H       1  UNL1        0.0269
     63 H           0.0833   -2.2752    1.5132 H       1  UNL1        0.0269
     64 H           0.3012   -3.3663    0.1428 H       1  UNL1        0.0269
     65 H           5.0373    2.2823    0.6239 H       1  UNL1        0.0626
     66 H           7.4854    2.2704    0.7668 H       1  UNL1        0.0654
@<TRIPOS>BOND
     1     1     2    1
     2     2     3    1
     3     3     4   ar
     4     4     5   ar
     5     5     6   ar
     6     6     7    1
     7     7     8   ar
     8     8     9   ar
     9     9    10   ar
    10    10    11   ar
    11    11    12    2
    12    11    13   ar
    13    10    14    1
    14    14    15    1
    15    15    16    1
    16    15    17    1
    17    17    18    1
    18    17    19    1
    19    19    20    1
    20    20    21    1
    21    21    22    2
    22    21    23    1
    23    23    24    1
    24    23    25    1
    25    23    26    1
    26    26    27    1
    27    26    28    1
    28    28    29    1
    29    29    30    1
    30    30    31    1
    31    30    32    1
    32     6    33   ar
    33    33    34   ar
    34    34     3   ar
    35    13     7   ar
    36    30    15    1
    37    32     9    1
    38    26    17    1
    39     1    35    1
    40     1    36    1
    41     1    37    1
    42     4    38    1
    43     5    39    1
    44     8    40    1
    45    14    41    1
    46    14    42    1
    47    16    43    1
    48    18    44    1
    49    18    45    1
    50    18    46    1
    51    19    47    1
    52    19    48    1
    53    20    49    1
    54    20    50    1
    55    24    51    1
    56    24    52    1
    57    24    53    1
    58    25    54    1
    59    25    55    1
    60    25    56    1
    61    27    57    1
    62    28    58    1
    63    28    59    1
    64    29    60    1
    65    29    61    1
    66    31    62    1
    67    31    63    1
    68    31    64    1
    69    33    65    1
    70    34    66    1
