
     RDKit          3D

 54 57  0  0  0  0  0  0  0  0999 V2000
   -3.2287   -0.3638    0.9499 C   0  0  2  0  0  0  0  0  0  0  0  0
   -3.8563    0.9526    1.3536 C   0  0  0  0  0  0  0  0  0  0  0  0
   -5.1968    1.1340    0.6747 C   0  0  0  0  0  0  0  0  0  0  0  0
   -6.1142    0.0784    1.0299 N   0  0  0  0  0  0  0  0  0  0  0  0
   -1.9140   -0.4348    1.6784 C   0  0  0  0  0  0  0  0  0  0  0  0
   -1.2912    0.3868    2.4130 O   0  0  0  0  0  0  0  0  0  0  0  0
   -1.1711   -1.6456    1.5568 N   0  0  0  0  0  0  0  0  0  0  0  0
    0.0683   -1.5977    2.2959 C   0  0  0  0  0  0  0  0  0  0  0  0
    0.1679   -1.9987    3.6124 C   0  0  0  0  0  0  0  0  0  0  0  0
    1.4255   -1.8979    4.2005 C   0  0  0  0  0  0  0  0  0  0  0  0
    2.5196   -1.4214    3.5048 C   0  0  0  0  0  0  0  0  0  0  0  0
    3.8001   -1.2068    3.7559 N   0  0  0  0  0  0  0  0  0  0  0  0
    4.4339   -0.7188    2.6948 N   0  0  0  0  0  0  0  0  0  0  0  0
    3.5883   -0.5788    1.6541 C   0  0  0  0  0  0  0  0  0  0  0  0
    3.8187   -0.1010    0.3353 N   0  0  0  0  0  0  0  0  0  0  0  0
    3.7548    1.1831   -0.2564 C   0  0  0  0  0  0  0  0  0  0  0  0
    3.4279    2.1265    0.5196 O   0  0  0  0  0  0  0  0  0  0  0  0
    4.0645    1.3050   -1.6776 C   0  0  0  0  0  0  0  0  0  0  0  0
    4.4247    0.3111   -2.5636 C   0  0  0  0  0  0  0  0  0  0  0  0
    4.6809    0.6240   -3.8825 C   0  0  0  0  0  0  0  0  0  0  0  0
    4.5985    1.9004   -4.3885 C   0  0  0  0  0  0  0  0  0  0  0  0
    4.2372    2.8838   -3.4910 C   0  0  0  0  0  0  0  0  0  0  0  0
    3.9734    2.6086   -2.1646 C   0  0  0  0  0  0  0  0  0  0  0  0
    2.3749   -1.0251    2.1706 C   0  0  0  0  0  0  0  0  0  0  0  0
    1.1237   -1.1137    1.5491 C   0  0  0  0  0  0  0  0  0  0  0  0
   -3.0635   -0.5375   -0.4941 C   0  0  0  0  0  0  0  0  0  0  0  0
   -3.6329   -1.4999   -1.3143 C   0  0  0  0  0  0  0  0  0  0  0  0
   -3.3651   -1.5176   -2.6750 C   0  0  0  0  0  0  0  0  0  0  0  0
   -4.1430   -2.7820   -3.6085 Cl  0  0  0  0  0  0  0  0  0  0  0  0
   -2.5227   -0.5713   -3.2350 C   0  0  0  0  0  0  0  0  0  0  0  0
   -1.9546    0.3843   -2.4344 C   0  0  0  0  0  0  0  0  0  0  0  0
   -2.2137    0.4170   -1.0600 C   0  0  0  0  0  0  0  0  0  0  0  0
   -3.9168   -1.1665    1.2966 H   0  0  0  0  0  0  0  0  0  0  0  0
   -4.0735    0.8508    2.4450 H   0  0  0  0  0  0  0  0  0  0  0  0
   -3.2068    1.8204    1.2597 H   0  0  0  0  0  0  0  0  0  0  0  0
   -5.1045    1.1315   -0.4388 H   0  0  0  0  0  0  0  0  0  0  0  0
   -5.6768    2.0823    0.9363 H   0  0  0  0  0  0  0  0  0  0  0  0
   -6.0155   -0.7680    0.4497 H   0  0  0  0  0  0  0  0  0  0  0  0
   -6.0470   -0.1484    2.0296 H   0  0  0  0  0  0  0  0  0  0  0  0
   -1.4946   -2.4824    0.9884 H   0  0  0  0  0  0  0  0  0  0  0  0
   -0.7072   -2.3658    4.1252 H   0  0  0  0  0  0  0  0  0  0  0  0
    1.5513   -2.2004    5.2303 H   0  0  0  0  0  0  0  0  0  0  0  0
    4.2666   -1.3931    4.6687 H   0  0  0  0  0  0  0  0  0  0  0  0
    4.0699   -0.9903   -0.1503 H   0  0  0  0  0  0  0  0  0  0  0  0
    4.4766   -0.6719   -2.1236 H   0  0  0  0  0  0  0  0  0  0  0  0
    4.9578   -0.1900   -4.5298 H   0  0  0  0  0  0  0  0  0  0  0  0
    4.8060    2.1126   -5.4288 H   0  0  0  0  0  0  0  0  0  0  0  0
    4.1719    3.8954   -3.8920 H   0  0  0  0  0  0  0  0  0  0  0  0
    3.6951    3.4586   -1.5354 H   0  0  0  0  0  0  0  0  0  0  0  0
    1.0449   -0.8009    0.5214 H   0  0  0  0  0  0  0  0  0  0  0  0
   -4.2830   -2.2056   -0.7908 H   0  0  0  0  0  0  0  0  0  0  0  0
   -2.3317   -0.6113   -4.3075 H   0  0  0  0  0  0  0  0  0  0  0  0
   -1.2915    1.1194   -2.9115 H   0  0  0  0  0  0  0  0  0  0  0  0
   -1.7063    1.2160   -0.5463 H   0  0  0  0  0  0  0  0  0  0  0  0
  1  2  1  0
  2  3  1  0
  3  4  1  0
  1  5  1  0
  5  6  2  0
  5  7  1  0
  7  8  1  0
  8  9  2  0
  9 10  1  0
 10 11  2  0
 11 12  1  0
 12 13  1  0
 13 14  2  0
 14 15  1  0
 15 16  1  0
 16 17  2  0
 16 18  1  0
 18 19  2  0
 19 20  1  0
 20 21  2  0
 21 22  1  0
 22 23  2  0
 14 24  1  0
 24 25  2  0
  1 26  1  0
 26 27  2  0
 27 28  1  0
 28 29  1  0
 28 30  2  0
 30 31  1  0
 31 32  2  0
 25  8  1  0
 32 26  1  0
 24 11  1  0
 23 18  1  0
  1 33  1  1
  2 34  1  0
  2 35  1  0
  3 36  1  0
  3 37  1  0
  4 38  1  0
  4 39  1  0
  7 40  1  0
  9 41  1  0
 10 42  1  0
 12 43  1  0
 15 44  1  0
 19 45  1  0
 20 46  1  0
 21 47  1  0
 22 48  1  0
 23 49  1  0
 25 50  1  0
 27 51  1  0
 30 52  1  0
 31 53  1  0
 32 54  1  0
M  END
$$$$
