@<TRIPOS>MOLECULE
*****
 35 36 0 0 0
SMALL
GASTEIGER

@<TRIPOS>ATOM
      1 C           6.0625   -0.7731    0.8195 C.3     1  UNL1        0.0788
      2 O           5.0060    0.1262    1.0337 O.3     1  UNL1       -0.4950
      3 C           3.7534   -0.1896    0.5134 C.ar    1  UNL1        0.1236
      4 C           3.5626   -1.3486   -0.1883 C.ar    1  UNL1       -0.0190
      5 C           2.3203   -1.6436   -0.6924 C.ar    1  UNL1       -0.0440
      6 C           1.1926   -0.8073   -0.5310 C.ar    1  UNL1        0.0635
      7 C          -0.0550   -1.2423   -1.0083 C.2     1  UNL1        0.1896
      8 O           0.1099   -2.3012   -1.8529 O.2     1  UNL1       -0.2872
      9 C          -1.4268   -0.9588   -0.9099 C.2     1  UNL1       -0.0136
     10 C          -2.1253   -0.1296   -0.2323 C.2     1  UNL1       -0.0495
     11 C          -3.6053    0.0061   -0.2895 C.ar    1  UNL1       -0.0068
     12 C          -4.1942    0.9643    0.5183 C.ar    1  UNL1       -0.0517
     13 C          -5.5506    1.1224    0.4968 C.ar    1  UNL1       -0.0430
     14 C          -6.3510    0.3455   -0.3154 C.ar    1  UNL1        0.0276
     15 N          -5.7443   -0.5710   -1.0827 N.ar    1  UNL1       -0.2627
     16 C          -4.3928   -0.7462   -1.0775 C.ar    1  UNL1        0.0347
     17 C           1.4414    0.3286    0.1704 C.ar    1  UNL1        0.1343
     18 O           0.4591    1.2424    0.3997 O.3     1  UNL1       -0.4943
     19 C           0.7008    2.4144    1.1190 C.3     1  UNL1        0.0788
     20 C           2.6921    0.6474    0.6915 C.ar    1  UNL1        0.0225
     21 H           6.4046   -0.7379   -0.2338 H       1  UNL1        0.0660
     22 H           5.7521   -1.7855    1.1417 H       1  UNL1        0.0660
     23 H           6.9095   -0.4360    1.4617 H       1  UNL1        0.0660
     24 H           4.3955   -2.0570   -0.3583 H       1  UNL1        0.0654
     25 H           2.2361   -2.5700   -1.2319 H       1  UNL1        0.0627
     26 H          -2.0935   -1.6061   -1.5852 H       1  UNL1        0.0656
     27 H          -1.6312    0.5048    0.4679 H       1  UNL1        0.0625
     28 H          -3.6034    1.6104    1.1845 H       1  UNL1        0.0624
     29 H          -6.0361    1.8754    1.1289 H       1  UNL1        0.0633
     30 H          -7.4208    0.5005   -0.3046 H       1  UNL1        0.0829
     31 H          -3.9838   -1.5227   -1.7405 H       1  UNL1        0.0835
     32 H           1.5114    3.0357    0.6890 H       1  UNL1        0.0660
     33 H           1.0639    2.1302    2.1443 H       1  UNL1        0.0660
     34 H          -0.2167    3.0148    1.2988 H       1  UNL1        0.0660
     35 H           2.8569    1.5575    1.2465 H       1  UNL1        0.0691
@<TRIPOS>BOND
     1     1     2    1
     2     2     3    1
     3     3     4   ar
     4     4     5   ar
     5     5     6   ar
     6     6     7    1
     7     7     8    2
     8     7     9    1
     9     9    10    2
    10    10    11    1
    11    11    12   ar
    12    12    13   ar
    13    13    14   ar
    14    14    15   ar
    15    15    16   ar
    16     6    17   ar
    17    17    18    1
    18    18    19    1
    19    17    20   ar
    20    20     3   ar
    21    16    11   ar
    22     1    21    1
    23     1    22    1
    24     1    23    1
    25     4    24    1
    26     5    25    1
    27     9    26    1
    28    10    27    1
    29    12    28    1
    30    13    29    1
    31    14    30    1
    32    16    31    1
    33    19    32    1
    34    19    33    1
    35    19    34    1
    36    20    35    1
