@<TRIPOS>MOLECULE
*****
 55 57 0 0 0
SMALL
GASTEIGER

@<TRIPOS>ATOM
      1 C           7.4157    0.3356    2.3891 C.3     1  UNL1        0.0788
      2 O           6.9198    0.7104    1.1235 O.3     1  UNL1       -0.4951
      3 C           5.5668    0.4721    0.8306 C.ar    1  UNL1        0.1201
      4 C           5.0237    0.8140   -0.3837 C.ar    1  UNL1       -0.0197
      5 C           3.6795    0.5670   -0.6492 C.ar    1  UNL1       -0.0539
      6 C           2.8433   -0.0155    0.2618 C.ar    1  UNL1       -0.0299
      7 C           1.4254   -0.2885    0.0203 C.3     1  UNL1        0.0805
      8 S           1.2214   -1.1361   -1.5688 S.3     1  UNL1       -0.1111
      9 C          -0.3981   -1.8691   -1.5727 C.ar    1  UNL1        0.0300
     10 C          -0.4330   -2.9857   -2.3984 C.ar    1  UNL1       -0.0465
     11 C          -1.5670   -3.7411   -2.5812 C.ar    1  UNL1       -0.0606
     12 C          -2.6987   -3.3493   -1.9044 C.ar    1  UNL1       -0.0599
     13 C          -2.6679   -2.2201   -1.0678 C.ar    1  UNL1       -0.0392
     14 C          -1.5305   -1.4638   -0.8855 C.ar    1  UNL1        0.0498
     15 N          -1.7716   -0.3811    0.0109 N.am    1  UNL1       -0.2661
     16 C          -3.0354   -0.3115    0.7086 C.3     1  UNL1        0.0327
     17 C          -4.1023    0.4478    0.0159 C.3     1  UNL1        0.0145
     18 N          -5.3196    0.4359    0.8116 N.3     1  UNL1       -0.3068
     19 C          -5.9296   -0.8587    0.8963 C.3     1  UNL1       -0.0130
     20 C          -5.1787    1.0387    2.1012 C.3     1  UNL1       -0.0130
     21 C          -0.8475    0.6644    0.2878 C.2     1  UNL1        0.2622
     22 O          -1.3728    1.5776    1.0003 O.2     1  UNL1       -0.2711
     23 C           0.5686    0.9439   -0.0522 C.3     1  UNL1        0.1947
     24 O           0.6956    1.5396   -1.3200 O.3     1  UNL1       -0.4506
     25 C           1.2171    2.7986   -1.4973 C.2     1  UNL1        0.3047
     26 C           1.3277    3.3725   -2.8445 C.3     1  UNL1        0.0333
     27 O           1.6111    3.4891   -0.5174 O.2     1  UNL1       -0.2511
     28 C           3.4156   -0.3566    1.4930 C.ar    1  UNL1       -0.0539
     29 C           4.7371   -0.1166    1.7601 C.ar    1  UNL1       -0.0197
     30 H           8.4922    0.6039    2.4724 H       1  UNL1        0.0660
     31 H           7.3055   -0.7792    2.4572 H       1  UNL1        0.0660
     32 H           6.7908    0.7905    3.1681 H       1  UNL1        0.0660
     33 H           5.6468    1.2786   -1.1377 H       1  UNL1        0.0654
     34 H           3.2973    0.8444   -1.6168 H       1  UNL1        0.0622
     35 H           1.0580   -0.9830    0.8185 H       1  UNL1        0.0506
     36 H           0.4581   -3.3073   -2.9416 H       1  UNL1        0.0629
     37 H          -1.5865   -4.6080   -3.2258 H       1  UNL1        0.0618
     38 H          -3.6391   -3.8991   -1.9991 H       1  UNL1        0.0618
     39 H          -3.5412   -1.9135   -0.5413 H       1  UNL1        0.0636
     40 H          -2.8003    0.3558    1.6100 H       1  UNL1        0.0481
     41 H          -3.3292   -1.2155    1.2709 H       1  UNL1        0.0481
     42 H          -4.3636    0.2231   -1.0005 H       1  UNL1        0.0442
     43 H          -3.7807    1.5373    0.0030 H       1  UNL1        0.0442
     44 H          -6.8720   -0.7370    1.4762 H       1  UNL1        0.0391
     45 H          -6.2180   -1.2424   -0.1052 H       1  UNL1        0.0391
     46 H          -5.3225   -1.5997    1.4618 H       1  UNL1        0.0391
     47 H          -4.8509    0.2447    2.8186 H       1  UNL1        0.0391
     48 H          -4.4766    1.8824    2.0320 H       1  UNL1        0.0391
     49 H          -6.1501    1.4561    2.4507 H       1  UNL1        0.0391
     50 H           0.9848    1.6680    0.6928 H       1  UNL1        0.0848
     51 H           2.3624    3.7946   -2.9357 H       1  UNL1        0.0342
     52 H           0.5959    4.1639   -3.0587 H       1  UNL1        0.0342
     53 H           1.2397    2.5494   -3.5932 H       1  UNL1        0.0342
     54 H           2.7716   -0.8127    2.2142 H       1  UNL1        0.0622
     55 H           5.1120   -0.4090    2.7413 H       1  UNL1        0.0654
@<TRIPOS>BOND
     1     1     2    1
     2     2     3    1
     3     3     4   ar
     4     4     5   ar
     5     5     6   ar
     6     6     7    1
     7     7     8    1
     8     8     9    1
     9     9    10   ar
    10    10    11   ar
    11    11    12   ar
    12    12    13   ar
    13    13    14   ar
    14    14    15    1
    15    15    16    1
    16    16    17    1
    17    17    18    1
    18    18    19    1
    19    18    20    1
    20    15    21   am
    21    21    22    2
    22    21    23    1
    23    23    24    1
    24    24    25    1
    25    25    26    1
    26    25    27    2
    27     6    28   ar
    28    28    29   ar
    29    29     3   ar
    30    23     7    1
    31    14     9   ar
    32     1    30    1
    33     1    31    1
    34     1    32    1
    35     4    33    1
    36     5    34    1
    37     7    35    1
    38    10    36    1
    39    11    37    1
    40    12    38    1
    41    13    39    1
    42    16    40    1
    43    16    41    1
    44    17    42    1
    45    17    43    1
    46    19    44    1
    47    19    45    1
    48    19    46    1
    49    20    47    1
    50    20    48    1
    51    20    49    1
    52    23    50    1
    53    26    51    1
    54    26    52    1
    55    26    53    1
    56    28    54    1
    57    29    55    1
