@<TRIPOS>MOLECULE
*****
 22 22 0 0 0
SMALL
GASTEIGER

@<TRIPOS>ATOM
      1 N          -3.7459   -0.3742   -0.8227 N.3     1  UNL1       -0.2035
      2 S          -2.8230   -0.2410    0.6493 S.O2    1  UNL1        0.0561
      3 O          -2.8097   -1.5823    1.3135 O.2     1  UNL1       -0.1533
      4 O          -3.5172    0.7452    1.5400 O.2     1  UNL1       -0.1533
      5 C          -1.1926    0.3085    0.2871 C.ar    1  UNL1        0.1083
      6 C          -0.1818   -0.5931    0.0215 C.ar    1  UNL1       -0.0075
      7 C           1.1298   -0.2297   -0.2725 C.ar    1  UNL1        0.1265
      8 C           1.3912    1.1432   -0.2881 C.ar    1  UNL1        0.0856
      9 CL          3.0245    1.6798   -0.6514 Cl      1  UNL1       -0.0800
     10 C           0.4150    2.1085   -0.0285 C.ar    1  UNL1        0.0630
     11 CL          0.8176    3.8133   -0.0660 Cl      1  UNL1       -0.0819
     12 C          -0.8659    1.6543    0.2553 C.ar    1  UNL1       -0.0155
     13 S           2.3922   -1.3733   -0.6047 S.O2    1  UNL1        0.0574
     14 N           3.7071   -1.2764    0.4907 N.3     1  UNL1       -0.2035
     15 O           2.9003   -1.3115   -2.0041 O.2     1  UNL1       -0.1532
     16 O           1.7833   -2.7499   -0.4057 O.2     1  UNL1       -0.1532
     17 H          -4.1127    0.5552   -1.1046 H       1  UNL1        0.1442
     18 H          -4.4411   -1.1285   -0.7655 H       1  UNL1        0.1442
     19 H          -0.4164   -1.6632    0.0409 H       1  UNL1        0.0657
     20 H          -1.6260    2.3965    0.4572 H       1  UNL1        0.0652
     21 H           3.5438   -0.7124    1.3285 H       1  UNL1        0.1442
     22 H           4.6274   -1.1691    0.0259 H       1  UNL1        0.1442
@<TRIPOS>BOND
     1     1     2    1
     2     2     3    2
     3     2     4    2
     4     2     5    1
     5     5     6   ar
     6     6     7   ar
     7     7     8   ar
     8     8     9    1
     9     8    10   ar
    10    10    11    1
    11    10    12   ar
    12     7    13    1
    13    13    14    1
    14    13    15    2
    15    13    16    2
    16    12     5   ar
    17     1    17    1
    18     1    18    1
    19     6    19    1
    20    12    20    1
    21    14    21    1
    22    14    22    1
