@<TRIPOS>MOLECULE
*****
 53 57 0 0 0
SMALL
GASTEIGER

@<TRIPOS>ATOM
      1 O          -1.6965   -0.2347    2.2484 O.2     1  UNL1       -0.2526
      2 C          -1.2810    0.5664    1.3671 C.2     1  UNL1        0.3024
      3 N          -2.2711    1.1505    0.5287 N.am    1  UNL1       -0.2958
      4 C          -3.6971    0.8365    0.6833 C.3     1  UNL1        0.0320
      5 C          -4.6604    1.9444    0.3285 C.3     1  UNL1       -0.0254
      6 C          -4.4446    0.8300   -0.6384 C.3     1  UNL1        0.0043
      7 C          -5.4677   -0.2344   -0.7670 C.ar    1  UNL1       -0.0425
      8 C          -6.1892   -0.5914    0.3442 C.ar    1  UNL1       -0.0582
      9 C          -7.1593   -1.5947    0.2411 C.ar    1  UNL1       -0.0615
     10 C          -7.4059   -2.2319   -0.9518 C.ar    1  UNL1       -0.0617
     11 C          -6.6822   -1.8703   -2.0559 C.ar    1  UNL1       -0.0615
     12 C          -5.7258   -0.8880   -1.9749 C.ar    1  UNL1       -0.0582
     13 N           0.0884    0.8246    1.2698 N.am    1  UNL1       -0.2854
     14 C           1.0005    0.1490    2.2032 C.3     1  UNL1        0.0197
     15 C           1.8820   -0.7383    1.3305 C.3     1  UNL1        0.0030
     16 C           2.6337    0.0835    0.2927 C.3     1  UNL1        0.1138
     17 C           3.6371    0.9173    1.0237 C.3     1  UNL1       -0.0087
     18 C           4.8571    1.2432    0.1929 C.3     1  UNL1       -0.0205
     19 C           5.4008    0.0651   -0.4997 C.ar    1  UNL1       -0.0028
     20 C           6.7459    0.0071   -0.7539 C.ar    1  UNL1       -0.0198
     21 C           7.2235   -1.1171   -1.4078 C.ar    1  UNL1        0.1239
     22 F           8.5557   -1.2562   -1.7013 F       1  UNL1       -0.2055
     23 C           6.3942   -2.1519   -1.7979 C.ar    1  UNL1       -0.0230
     24 C           5.0370   -2.0592   -1.5239 C.ar    1  UNL1       -0.0169
     25 C           4.5555   -0.9428   -0.8733 C.ar    1  UNL1        0.1246
     26 O           3.2198   -0.8460   -0.6009 O.3     1  UNL1       -0.4853
     27 C           1.6963    0.9438   -0.5254 C.3     1  UNL1        0.0030
     28 C           0.7229    1.7080    0.3251 C.3     1  UNL1        0.0197
     29 H          -1.9375    1.8122   -0.2010 H       1  UNL1        0.1505
     30 H          -3.9961    0.1377    1.4622 H       1  UNL1        0.0505
     31 H          -5.6243    2.0062    0.8785 H       1  UNL1        0.0290
     32 H          -4.2191    2.9316    0.0926 H       1  UNL1        0.0290
     33 H          -3.8938    1.0807   -1.5677 H       1  UNL1        0.0367
     34 H          -6.0152   -0.1021    1.3068 H       1  UNL1        0.0620
     35 H          -7.7166   -1.8597    1.1325 H       1  UNL1        0.0618
     36 H          -8.1764   -3.0047   -0.9603 H       1  UNL1        0.0618
     37 H          -6.8679   -2.3616   -2.9890 H       1  UNL1        0.0618
     38 H          -5.1256   -0.5685   -2.8305 H       1  UNL1        0.0620
     39 H           0.4642   -0.5134    2.8926 H       1  UNL1        0.0466
     40 H           1.6151    0.9228    2.6856 H       1  UNL1        0.0466
     41 H           2.6473   -1.2646    1.9341 H       1  UNL1        0.0319
     42 H           1.1925   -1.4295    0.7997 H       1  UNL1        0.0319
     43 H           3.1664    1.8847    1.2895 H       1  UNL1        0.0307
     44 H           3.9184    0.4060    1.9817 H       1  UNL1        0.0307
     45 H           4.6797    2.0934   -0.4744 H       1  UNL1        0.0316
     46 H           5.6421    1.5858    0.9246 H       1  UNL1        0.0316
     47 H           7.4303    0.8037   -0.4613 H       1  UNL1        0.0650
     48 H           6.7605   -3.0370   -2.3111 H       1  UNL1        0.0647
     49 H           4.3297   -2.8323   -1.8008 H       1  UNL1        0.0655
     50 H           2.3300    1.6861   -1.0636 H       1  UNL1        0.0319
     51 H           1.1422    0.3667   -1.2760 H       1  UNL1        0.0319
     52 H           1.2502    2.4923    0.9435 H       1  UNL1        0.0466
     53 H           0.0348    2.2510   -0.3217 H       1  UNL1        0.0466
@<TRIPOS>BOND
     1     1     2    2
     2     2     3   am
     3     3     4    1
     4     4     5    1
     5     5     6    1
     6     6     7    1
     7     7     8   ar
     8     8     9   ar
     9     9    10   ar
    10    10    11   ar
    11    11    12   ar
    12     2    13   am
    13    13    14    1
    14    14    15    1
    15    15    16    1
    16    16    17    1
    17    17    18    1
    18    18    19    1
    19    19    20   ar
    20    20    21   ar
    21    21    22    1
    22    21    23   ar
    23    23    24   ar
    24    24    25   ar
    25    25    26    1
    26    16    27    1
    27    27    28    1
    28     6     4    1
    29    12     7   ar
    30    28    13    1
    31    26    16    1
    32    25    19   ar
    33     3    29    1
    34     4    30    1
    35     5    31    1
    36     5    32    1
    37     6    33    1
    38     8    34    1
    39     9    35    1
    40    10    36    1
    41    11    37    1
    42    12    38    1
    43    14    39    1
    44    14    40    1
    45    15    41    1
    46    15    42    1
    47    17    43    1
    48    17    44    1
    49    18    45    1
    50    18    46    1
    51    20    47    1
    52    23    48    1
    53    24    49    1
    54    27    50    1
    55    27    51    1
    56    28    52    1
    57    28    53    1
