@<TRIPOS>MOLECULE
*****
 47 50 0 0 0
SMALL
GASTEIGER

@<TRIPOS>ATOM
      1 C          -3.1214   -3.1314    1.4933 C.3     1  UNL1        0.0790
      2 O          -3.2357   -1.7279    1.4930 O.3     1  UNL1       -0.4913
      3 C          -2.3408   -0.9816    0.7489 C.ar    1  UNL1        0.1657
      4 C          -1.3556   -1.6140    0.0252 C.ar    1  UNL1       -0.0082
      5 C          -0.4368   -0.9247   -0.7339 C.ar    1  UNL1       -0.0054
      6 C           0.6164   -1.5541   -1.5308 C.2     1  UNL1        0.0493
      7 C           1.8688   -1.1838   -1.7137 C.2     1  UNL1       -0.0085
      8 C           2.4593   -0.0049   -1.1063 C.ar    1  UNL1        0.0054
      9 C           3.1416    0.9911   -1.7640 C.ar    1  UNL1        0.0102
     10 N           3.5753    1.9101   -0.8545 N.ar    1  UNL1       -0.3601
     11 C           3.1894    1.5305    0.3764 C.ar    1  UNL1        0.0471
     12 C           3.3822    2.0914    1.5954 C.ar    1  UNL1       -0.0378
     13 C           2.9101    1.5257    2.7487 C.ar    1  UNL1       -0.0598
     14 C           2.2152    0.3351    2.6192 C.ar    1  UNL1       -0.0611
     15 C           2.0082   -0.2541    1.3773 C.ar    1  UNL1       -0.0520
     16 C           2.4872    0.3239    0.2186 C.ar    1  UNL1        0.0071
     17 C           2.5601   -2.1509   -2.6378 C.3     1  UNL1        0.0385
     18 N           1.5885   -3.1503   -2.9414 N.am    1  UNL1       -0.3072
     19 C           0.3868   -2.8018   -2.2926 C.2     1  UNL1        0.2452
     20 O          -0.6910   -3.4549   -2.3613 O.2     1  UNL1       -0.2702
     21 C          -0.5466    0.4380   -0.7383 C.ar    1  UNL1       -0.0082
     22 C          -1.5429    1.1339   -0.0097 C.ar    1  UNL1        0.1657
     23 O          -1.6408    2.4233   -0.0196 O.3     1  UNL1       -0.4913
     24 C          -1.7179    3.7130   -0.0456 C.3     1  UNL1        0.0790
     25 C          -2.4449    0.3818    0.7404 C.ar    1  UNL1        0.2035
     26 O          -3.4484    0.9894    1.4807 O.3     1  UNL1       -0.4885
     27 C          -4.7264    1.3092    1.0282 C.3     1  UNL1        0.0791
     28 H          -2.1554   -3.3599    2.0021 H       1  UNL1        0.0660
     29 H          -3.0624   -3.4758    0.4404 H       1  UNL1        0.0660
     30 H          -3.9781   -3.6106    2.0237 H       1  UNL1        0.0660
     31 H          -1.2595   -2.6932    0.0233 H       1  UNL1        0.0661
     32 H           3.3046    1.0340   -2.8298 H       1  UNL1        0.0813
     33 H           4.1144    2.7510   -1.1343 H       1  UNL1        0.1654
     34 H           3.9271    3.0197    1.6893 H       1  UNL1        0.0638
     35 H           3.0524    1.9515    3.7262 H       1  UNL1        0.0618
     36 H           1.8182   -0.1566    3.5137 H       1  UNL1        0.0618
     37 H           1.4645   -1.2062    1.3173 H       1  UNL1        0.0624
     38 H           2.8445   -1.6158   -3.5903 H       1  UNL1        0.0512
     39 H           3.4359   -2.5484   -2.1212 H       1  UNL1        0.0512
     40 H           1.7671   -3.9819   -3.5426 H       1  UNL1        0.1493
     41 H           0.1427    1.0419   -1.3141 H       1  UNL1        0.0661
     42 H          -1.2148    4.2734    0.8002 H       1  UNL1        0.0660
     43 H          -1.2097    4.1441   -0.9767 H       1  UNL1        0.0660
     44 H          -2.7861    4.1329   -0.0662 H       1  UNL1        0.0660
     45 H          -4.8196    1.3768   -0.0610 H       1  UNL1        0.0660
     46 H          -5.1007    2.2488    1.5308 H       1  UNL1        0.0660
     47 H          -5.4251    0.5126    1.3735 H       1  UNL1        0.0660
@<TRIPOS>BOND
     1     1     2    1
     2     2     3    1
     3     3     4   ar
     4     4     5   ar
     5     5     6    1
     6     6     7    2
     7     7     8    1
     8     8     9   ar
     9     9    10   ar
    10    10    11   ar
    11    11    12   ar
    12    12    13   ar
    13    13    14   ar
    14    14    15   ar
    15    15    16   ar
    16     7    17    1
    17    17    18    1
    18    18    19   am
    19    19    20    2
    20     5    21   ar
    21    21    22   ar
    22    22    23    1
    23    23    24    1
    24    22    25   ar
    25    25    26    1
    26    26    27    1
    27    25     3   ar
    28    19     6    1
    29    16     8   ar
    30    16    11   ar
    31     1    28    1
    32     1    29    1
    33     1    30    1
    34     4    31    1
    35     9    32    1
    36    10    33    1
    37    12    34    1
    38    13    35    1
    39    14    36    1
    40    15    37    1
    41    17    38    1
    42    17    39    1
    43    18    40    1
    44    21    41    1
    45    24    42    1
    46    24    43    1
    47    24    44    1
    48    27    45    1
    49    27    46    1
    50    27    47    1
