
     RDKit          3D

 47 50  0  0  0  0  0  0  0  0999 V2000
   -3.1214   -3.1314    1.4933 C   0  0  0  0  0  0  0  0  0  0  0  0
   -3.2357   -1.7279    1.4930 O   0  0  0  0  0  0  0  0  0  0  0  0
   -2.3408   -0.9816    0.7489 C   0  0  0  0  0  0  0  0  0  0  0  0
   -1.3556   -1.6140    0.0252 C   0  0  0  0  0  0  0  0  0  0  0  0
   -0.4368   -0.9247   -0.7339 C   0  0  0  0  0  0  0  0  0  0  0  0
    0.6164   -1.5541   -1.5308 C   0  0  0  0  0  0  0  0  0  0  0  0
    1.8688   -1.1838   -1.7137 C   0  0  0  0  0  0  0  0  0  0  0  0
    2.4593   -0.0049   -1.1063 C   0  0  0  0  0  0  0  0  0  0  0  0
    3.1416    0.9911   -1.7640 C   0  0  0  0  0  0  0  0  0  0  0  0
    3.5753    1.9101   -0.8545 N   0  0  0  0  0  0  0  0  0  0  0  0
    3.1894    1.5305    0.3764 C   0  0  0  0  0  0  0  0  0  0  0  0
    3.3822    2.0914    1.5954 C   0  0  0  0  0  0  0  0  0  0  0  0
    2.9101    1.5257    2.7487 C   0  0  0  0  0  0  0  0  0  0  0  0
    2.2152    0.3351    2.6192 C   0  0  0  0  0  0  0  0  0  0  0  0
    2.0082   -0.2541    1.3773 C   0  0  0  0  0  0  0  0  0  0  0  0
    2.4872    0.3239    0.2186 C   0  0  0  0  0  0  0  0  0  0  0  0
    2.5601   -2.1509   -2.6378 C   0  0  0  0  0  0  0  0  0  0  0  0
    1.5885   -3.1503   -2.9414 N   0  0  0  0  0  0  0  0  0  0  0  0
    0.3868   -2.8018   -2.2926 C   0  0  0  0  0  0  0  0  0  0  0  0
   -0.6910   -3.4549   -2.3613 O   0  0  0  0  0  0  0  0  0  0  0  0
   -0.5466    0.4380   -0.7383 C   0  0  0  0  0  0  0  0  0  0  0  0
   -1.5429    1.1339   -0.0097 C   0  0  0  0  0  0  0  0  0  0  0  0
   -1.6408    2.4233   -0.0196 O   0  0  0  0  0  0  0  0  0  0  0  0
   -1.7179    3.7130   -0.0456 C   0  0  0  0  0  0  0  0  0  0  0  0
   -2.4449    0.3818    0.7404 C   0  0  0  0  0  0  0  0  0  0  0  0
   -3.4484    0.9894    1.4807 O   0  0  0  0  0  0  0  0  0  0  0  0
   -4.7264    1.3092    1.0282 C   0  0  0  0  0  0  0  0  0  0  0  0
   -2.1554   -3.3599    2.0021 H   0  0  0  0  0  0  0  0  0  0  0  0
   -3.0624   -3.4758    0.4404 H   0  0  0  0  0  0  0  0  0  0  0  0
   -3.9781   -3.6106    2.0237 H   0  0  0  0  0  0  0  0  0  0  0  0
   -1.2595   -2.6932    0.0233 H   0  0  0  0  0  0  0  0  0  0  0  0
    3.3046    1.0340   -2.8298 H   0  0  0  0  0  0  0  0  0  0  0  0
    4.1144    2.7510   -1.1343 H   0  0  0  0  0  0  0  0  0  0  0  0
    3.9271    3.0197    1.6893 H   0  0  0  0  0  0  0  0  0  0  0  0
    3.0524    1.9515    3.7262 H   0  0  0  0  0  0  0  0  0  0  0  0
    1.8182   -0.1566    3.5137 H   0  0  0  0  0  0  0  0  0  0  0  0
    1.4645   -1.2062    1.3173 H   0  0  0  0  0  0  0  0  0  0  0  0
    2.8445   -1.6158   -3.5903 H   0  0  0  0  0  0  0  0  0  0  0  0
    3.4359   -2.5484   -2.1212 H   0  0  0  0  0  0  0  0  0  0  0  0
    1.7671   -3.9819   -3.5426 H   0  0  0  0  0  0  0  0  0  0  0  0
    0.1427    1.0419   -1.3141 H   0  0  0  0  0  0  0  0  0  0  0  0
   -1.2148    4.2734    0.8002 H   0  0  0  0  0  0  0  0  0  0  0  0
   -1.2097    4.1441   -0.9767 H   0  0  0  0  0  0  0  0  0  0  0  0
   -2.7861    4.1329   -0.0662 H   0  0  0  0  0  0  0  0  0  0  0  0
   -4.8196    1.3768   -0.0610 H   0  0  0  0  0  0  0  0  0  0  0  0
   -5.1007    2.2488    1.5308 H   0  0  0  0  0  0  0  0  0  0  0  0
   -5.4251    0.5126    1.3735 H   0  0  0  0  0  0  0  0  0  0  0  0
  1  2  1  0
  2  3  1  0
  3  4  2  0
  4  5  1  0
  5  6  1  0
  6  7  2  0
  7  8  1  0
  8  9  2  0
  9 10  1  0
 10 11  1  0
 11 12  2  0
 12 13  1  0
 13 14  2  0
 14 15  1  0
 15 16  2  0
  7 17  1  0
 17 18  1  0
 18 19  1  0
 19 20  2  0
  5 21  2  0
 21 22  1  0
 22 23  1  0
 23 24  1  0
 22 25  2  0
 25 26  1  0
 26 27  1  0
 25  3  1  0
 19  6  1  0
 16  8  1  0
 16 11  1  0
  1 28  1  0
  1 29  1  0
  1 30  1  0
  4 31  1  0
  9 32  1  0
 10 33  1  0
 12 34  1  0
 13 35  1  0
 14 36  1  0
 15 37  1  0
 17 38  1  0
 17 39  1  0
 18 40  1  0
 21 41  1  0
 24 42  1  0
 24 43  1  0
 24 44  1  0
 27 45  1  0
 27 46  1  0
 27 47  1  0
M  END
$$$$
