@<TRIPOS>MOLECULE
*****
 37 40 0 0 0
SMALL
GASTEIGER

@<TRIPOS>ATOM
      1 C          -2.9399    1.5847   -1.0464 C.3     1  UNL1       -0.0390
      2 C          -3.5036    0.4732   -0.2573 C.ar    1  UNL1       -0.0399
      3 C          -4.8649    0.3304   -0.1117 C.ar    1  UNL1       -0.0401
      4 C          -5.3620   -0.7176    0.6261 C.ar    1  UNL1        0.0278
      5 N          -4.5129   -1.5812    1.1901 N.ar    1  UNL1       -0.2626
      6 C          -3.1878   -1.4669    1.0653 C.ar    1  UNL1        0.0355
      7 C          -2.6399   -0.4230    0.3287 C.ar    1  UNL1        0.0032
      8 C          -1.1872   -0.3552    0.2369 C.ar    1  UNL1       -0.0131
      9 C          -0.4926   -1.4994   -0.0602 C.ar    1  UNL1       -0.0166
     10 C           0.9066   -1.5027   -0.1600 C.ar    1  UNL1        0.1480
     11 F           1.4363   -2.6697   -0.4499 F       1  UNL1       -0.2033
     12 C           1.5753   -0.3257    0.0476 C.ar    1  UNL1        0.0877
     13 C           0.8919    0.8468    0.3501 C.ar    1  UNL1       -0.0197
     14 C          -0.5063    0.8139    0.4421 C.ar    1  UNL1       -0.0486
     15 C           1.4801    2.1595    0.5928 C.3     1  UNL1       -0.0187
     16 C           2.9362    2.2267    0.5051 C.3     1  UNL1        0.0118
     17 C           3.6095    0.9587    0.1820 C.ar    1  UNL1        0.1383
     18 N           4.9486    0.7567    0.0430 N.ar    1  UNL1       -0.1340
     19 N           5.1350   -0.4900   -0.2408 N.ar    1  UNL1       -0.1343
     20 C           3.9200   -1.1612   -0.3001 C.ar    1  UNL1        0.1349
     21 C           3.8248   -2.5954   -0.6050 C.3     1  UNL1       -0.0041
     22 N           3.0150   -0.2345   -0.0346 N.ar    1  UNL1       -0.2801
     23 H          -1.9698    1.3600   -1.5165 H       1  UNL1        0.0278
     24 H          -2.9795    2.5459   -0.5024 H       1  UNL1        0.0278
     25 H          -3.6486    1.7319   -1.9163 H       1  UNL1        0.0278
     26 H          -5.5534    1.0512   -0.5831 H       1  UNL1        0.0635
     27 H          -6.4526   -0.8356    0.7453 H       1  UNL1        0.0829
     28 H          -2.5734   -2.2131    1.5568 H       1  UNL1        0.0836
     29 H          -0.9943   -2.4546   -0.2316 H       1  UNL1        0.0653
     30 H          -1.0782    1.6992    0.6770 H       1  UNL1        0.0627
     31 H           1.1607    2.5394    1.6048 H       1  UNL1        0.0318
     32 H           0.9772    2.8784   -0.1216 H       1  UNL1        0.0318
     33 H           3.2197    2.9450   -0.3217 H       1  UNL1        0.0347
     34 H           3.4463    2.6512    1.4059 H       1  UNL1        0.0347
     35 H           3.4456   -2.8599   -1.5998 H       1  UNL1        0.0308
     36 H           3.5801   -3.2545    0.2436 H       1  UNL1        0.0308
     37 H           4.9380   -2.9127   -0.7574 H       1  UNL1        0.0308
@<TRIPOS>BOND
     1     1     2    1
     2     2     3   ar
     3     3     4   ar
     4     4     5   ar
     5     5     6   ar
     6     6     7   ar
     7     7     8    1
     8     8     9   ar
     9     9    10   ar
    10    10    11    1
    11    10    12   ar
    12    12    13   ar
    13    13    14   ar
    14    13    15    1
    15    15    16    1
    16    16    17    1
    17    17    18   ar
    18    18    19   ar
    19    19    20   ar
    20    20    21    1
    21    20    22   ar
    22     7     2   ar
    23    14     8   ar
    24    22    17   ar
    25    22    12    1
    26     1    23    1
    27     1    24    1
    28     1    25    1
    29     3    26    1
    30     4    27    1
    31     6    28    1
    32     9    29    1
    33    14    30    1
    34    15    31    1
    35    15    32    1
    36    16    33    1
    37    16    34    1
    38    21    35    1
    39    21    36    1
    40    21    37    1
