
     RDKit          3D

 38 38  0  0  0  0  0  0  0  0999 V2000
   -3.2760   -1.4562   -0.3651 C   0  0  0  0  0  0  0  0  0  0  0  0
   -2.6767   -0.0522   -0.5868 C   0  0  0  0  0  0  0  0  0  0  0  0
   -3.8216    0.9301   -0.4920 C   0  0  0  0  0  0  0  0  0  0  0  0
   -2.1171    0.0344   -1.9869 C   0  0  0  0  0  0  0  0  0  0  0  0
   -1.6930    0.1114    0.4207 N   0  0  0  0  0  0  0  0  0  0  0  0
   -1.0486    1.3723    0.4779 C   0  0  0  0  0  0  0  0  0  0  0  0
   -0.0312    1.4013    1.6020 C   0  0  0  0  0  0  0  0  0  0  0  0
    0.5626    2.6618    1.6033 O   0  0  0  0  0  0  0  0  0  0  0  0
    0.9799    0.3240    1.4471 C   0  0  0  0  0  0  0  0  0  0  0  0
    1.9097    0.6141    0.4490 C   0  0  0  0  0  0  0  0  0  0  0  0
    2.9531   -0.2481    0.1204 C   0  0  0  0  0  0  0  0  0  0  0  0
    3.9429    0.0458   -0.9317 C   0  0  0  0  0  0  0  0  0  0  0  0
    3.7397   -0.6576   -2.0984 O   0  0  0  0  0  0  0  0  0  0  0  0
    3.0216   -1.4273    0.8471 C   0  0  0  0  0  0  0  0  0  0  0  0
    4.0401   -2.3379    0.5720 O   0  0  0  0  0  0  0  0  0  0  0  0
    2.1117   -1.7423    1.8448 C   0  0  0  0  0  0  0  0  0  0  0  0
    1.0849   -0.8656    2.1491 C   0  0  0  0  0  0  0  0  0  0  0  0
   -4.1789   -1.6084   -0.9626 H   0  0  0  0  0  0  0  0  0  0  0  0
   -2.4484   -2.1672   -0.5701 H   0  0  0  0  0  0  0  0  0  0  0  0
   -3.5036   -1.4946    0.7265 H   0  0  0  0  0  0  0  0  0  0  0  0
   -3.5888    1.8614   -1.0173 H   0  0  0  0  0  0  0  0  0  0  0  0
   -4.1612    1.0825    0.5563 H   0  0  0  0  0  0  0  0  0  0  0  0
   -4.6754    0.4547   -1.0336 H   0  0  0  0  0  0  0  0  0  0  0  0
   -1.6912   -0.9532   -2.2723 H   0  0  0  0  0  0  0  0  0  0  0  0
   -2.8722    0.3826   -2.7218 H   0  0  0  0  0  0  0  0  0  0  0  0
   -1.2771    0.7399   -1.9845 H   0  0  0  0  0  0  0  0  0  0  0  0
   -1.1151   -0.7294    0.5025 H   0  0  0  0  0  0  0  0  0  0  0  0
   -1.8319    2.1214    0.8005 H   0  0  0  0  0  0  0  0  0  0  0  0
   -0.6089    1.7753   -0.4262 H   0  0  0  0  0  0  0  0  0  0  0  0
   -0.5673    1.3063    2.5659 H   0  0  0  0  0  0  0  0  0  0  0  0
    0.5361    3.0000    0.6755 H   0  0  0  0  0  0  0  0  0  0  0  0
    1.9153    1.5259   -0.1626 H   0  0  0  0  0  0  0  0  0  0  0  0
    3.8483    1.1380   -1.1691 H   0  0  0  0  0  0  0  0  0  0  0  0
    4.9912   -0.0778   -0.5308 H   0  0  0  0  0  0  0  0  0  0  0  0
    4.6195   -0.6661   -2.5919 H   0  0  0  0  0  0  0  0  0  0  0  0
    4.4750   -2.7614    1.3832 H   0  0  0  0  0  0  0  0  0  0  0  0
    2.1413   -2.6521    2.4266 H   0  0  0  0  0  0  0  0  0  0  0  0
    0.3111   -0.9857    2.9006 H   0  0  0  0  0  0  0  0  0  0  0  0
  1  2  1  0
  2  3  1  0
  2  4  1  0
  2  5  1  0
  5  6  1  0
  6  7  1  0
  7  8  1  0
  7  9  1  0
  9 10  2  0
 10 11  1  0
 11 12  1  0
 12 13  1  0
 11 14  2  0
 14 15  1  0
 14 16  1  0
 16 17  2  0
 17  9  1  0
  1 18  1  0
  1 19  1  0
  1 20  1  0
  3 21  1  0
  3 22  1  0
  3 23  1  0
  4 24  1  0
  4 25  1  0
  4 26  1  0
  5 27  1  0
  6 28  1  0
  6 29  1  0
  7 30  1  0
  8 31  1  0
 10 32  1  0
 12 33  1  0
 12 34  1  0
 13 35  1  0
 15 36  1  0
 16 37  1  0
 17 38  1  0
M  END
$$$$
