
     RDKit          3D

 31 31  0  0  0  0  0  0  0  0999 V2000
   -3.2357    2.0634   -0.0848 C   0  0  0  0  0  0  0  0  0  0  0  0
   -3.2127    0.8656   -0.0350 C   0  0  0  0  0  0  0  0  0  0  0  0
   -3.1660   -0.5816    0.0308 C   0  0  0  0  0  0  0  0  0  0  0  0
   -1.9143   -0.9717    0.6714 N   0  0  0  0  0  0  0  0  0  0  0  0
   -1.8228   -2.3754    0.7579 C   0  0  0  0  0  0  0  0  0  0  0  0
   -0.7972   -0.2717    0.1425 C   0  0  2  0  0  0  0  0  0  0  0  0
   -0.5325   -0.4688   -1.3065 C   0  0  0  0  0  0  0  0  0  0  0  0
    0.4260   -0.4489    1.0110 C   0  0  0  0  0  0  0  0  0  0  0  0
    1.6085    0.2767    0.4761 C   0  0  0  0  0  0  0  0  0  0  0  0
    2.4530   -0.3549   -0.3926 C   0  0  0  0  0  0  0  0  0  0  0  0
    3.5472    0.3094   -0.8899 C   0  0  0  0  0  0  0  0  0  0  0  0
    3.7771    1.6076   -0.5033 C   0  0  0  0  0  0  0  0  0  0  0  0
    2.9631    2.2981    0.3688 C   0  0  0  0  0  0  0  0  0  0  0  0
    1.8721    1.5720    0.8375 C   0  0  0  0  0  0  0  0  0  0  0  0
   -3.2489    3.1263   -0.1425 H   0  0  0  0  0  0  0  0  0  0  0  0
   -4.0018   -0.9941    0.6340 H   0  0  0  0  0  0  0  0  0  0  0  0
   -3.1751   -1.0063   -0.9841 H   0  0  0  0  0  0  0  0  0  0  0  0
   -2.4824   -2.7296    1.5893 H   0  0  0  0  0  0  0  0  0  0  0  0
   -0.8496   -2.8287    0.8716 H   0  0  0  0  0  0  0  0  0  0  0  0
   -2.2847   -2.8310   -0.1664 H   0  0  0  0  0  0  0  0  0  0  0  0
   -1.0586    0.8293    0.2442 H   0  0  0  0  0  0  0  0  0  0  0  0
   -0.0477   -1.4210   -1.5720 H   0  0  0  0  0  0  0  0  0  0  0  0
    0.1523    0.3439   -1.6462 H   0  0  0  0  0  0  0  0  0  0  0  0
   -1.4588   -0.3582   -1.8708 H   0  0  0  0  0  0  0  0  0  0  0  0
    0.6918   -1.5227    1.0941 H   0  0  0  0  0  0  0  0  0  0  0  0
    0.2616   -0.0852    2.0448 H   0  0  0  0  0  0  0  0  0  0  0  0
    2.2877   -1.3922   -0.7145 H   0  0  0  0  0  0  0  0  0  0  0  0
    4.2376   -0.1989   -1.5966 H   0  0  0  0  0  0  0  0  0  0  0  0
    4.6529    2.1198   -0.9092 H   0  0  0  0  0  0  0  0  0  0  0  0
    3.1484    3.3208    0.6703 H   0  0  0  0  0  0  0  0  0  0  0  0
    1.2094    2.1080    1.5363 H   0  0  0  0  0  0  0  0  0  0  0  0
  1  2  3  0
  2  3  1  0
  3  4  1  0
  4  5  1  0
  4  6  1  0
  6  7  1  0
  6  8  1  0
  8  9  1  0
  9 10  2  0
 10 11  1  0
 11 12  2  0
 12 13  1  0
 13 14  2  0
 14  9  1  0
  1 15  1  0
  3 16  1  0
  3 17  1  0
  5 18  1  0
  5 19  1  0
  5 20  1  0
  6 21  1  6
  7 22  1  0
  7 23  1  0
  7 24  1  0
  8 25  1  0
  8 26  1  0
 10 27  1  0
 11 28  1  0
 12 29  1  0
 13 30  1  0
 14 31  1  0
M  END
$$$$
