@<TRIPOS>MOLECULE
*****
 31 31 0 0 0
SMALL
GASTEIGER

@<TRIPOS>ATOM
      1 C          -3.2357    2.0634   -0.0848 C.1     1  UNL1       -0.1179
      2 C          -3.2127    0.8656   -0.0350 C.1     1  UNL1       -0.0900
      3 C          -3.1660   -0.5816    0.0308 C.3     1  UNL1        0.0606
      4 N          -1.9143   -0.9717    0.6714 N.3     1  UNL1       -0.2916
      5 C          -1.8228   -2.3754    0.7579 C.3     1  UNL1       -0.0116
      6 C          -0.7972   -0.2717    0.1425 C.3     1  UNL1        0.0121
      7 C          -0.5325   -0.4688   -1.3065 C.3     1  UNL1       -0.0492
      8 C           0.4260   -0.4489    1.0110 C.3     1  UNL1       -0.0122
      9 C           1.6085    0.2767    0.4761 C.ar    1  UNL1       -0.0459
     10 C           2.4530   -0.3549   -0.3926 C.ar    1  UNL1       -0.0585
     11 C           3.5472    0.3094   -0.8899 C.ar    1  UNL1       -0.0615
     12 C           3.7771    1.6076   -0.5033 C.ar    1  UNL1       -0.0617
     13 C           2.9631    2.2981    0.3688 C.ar    1  UNL1       -0.0615
     14 C           1.8721    1.5720    0.8375 C.ar    1  UNL1       -0.0585
     15 H          -3.2489    3.1263   -0.1425 H       1  UNL1        0.1228
     16 H          -4.0018   -0.9941    0.6340 H       1  UNL1        0.0563
     17 H          -3.1751   -1.0063   -0.9841 H       1  UNL1        0.0563
     18 H          -2.4824   -2.7296    1.5893 H       1  UNL1        0.0391
     19 H          -0.8496   -2.8287    0.8716 H       1  UNL1        0.0391
     20 H          -2.2847   -2.8310   -0.1664 H       1  UNL1        0.0391
     21 H          -1.0586    0.8293    0.2442 H       1  UNL1        0.0463
     22 H          -0.0477   -1.4210   -1.5720 H       1  UNL1        0.0245
     23 H           0.1523    0.3439   -1.6462 H       1  UNL1        0.0245
     24 H          -1.4588   -0.3582   -1.8708 H       1  UNL1        0.0245
     25 H           0.6918   -1.5227    1.0941 H       1  UNL1        0.0328
     26 H           0.2616   -0.0852    2.0448 H       1  UNL1        0.0328
     27 H           2.2877   -1.3922   -0.7145 H       1  UNL1        0.0620
     28 H           4.2376   -0.1989   -1.5966 H       1  UNL1        0.0618
     29 H           4.6529    2.1198   -0.9092 H       1  UNL1        0.0618
     30 H           3.1484    3.3208    0.6703 H       1  UNL1        0.0618
     31 H           1.2094    2.1080    1.5363 H       1  UNL1        0.0620
@<TRIPOS>BOND
     1     1     2    3
     2     2     3    1
     3     3     4    1
     4     4     5    1
     5     4     6    1
     6     6     7    1
     7     6     8    1
     8     8     9    1
     9     9    10   ar
    10    10    11   ar
    11    11    12   ar
    12    12    13   ar
    13    13    14   ar
    14    14     9   ar
    15     1    15    1
    16     3    16    1
    17     3    17    1
    18     5    18    1
    19     5    19    1
    20     5    20    1
    21     6    21    1
    22     7    22    1
    23     7    23    1
    24     7    24    1
    25     8    25    1
    26     8    26    1
    27    10    27    1
    28    11    28    1
    29    12    29    1
    30    13    30    1
    31    14    31    1
