
     RDKit          3D

 47 50  0  0  0  0  0  0  0  0999 V2000
    5.2561   -0.8113    1.4334 C   0  0  0  0  0  0  0  0  0  0  0  0
    4.1649    0.2370    1.5174 C   0  0  0  0  0  0  0  0  0  0  0  0
    3.2591    0.1398    0.4485 O   0  0  0  0  0  0  0  0  0  0  0  0
    3.5890    0.2632   -0.8797 C   0  0  0  0  0  0  0  0  0  0  0  0
    4.7848    0.4802   -1.1870 O   0  0  0  0  0  0  0  0  0  0  0  0
    2.5518    0.1389   -1.8859 C   0  0  0  0  0  0  0  0  0  0  0  0
    2.7496    0.2424   -3.2718 C   0  0  0  0  0  0  0  0  0  0  0  0
    1.5883    0.0754   -3.9151 N   0  0  0  0  0  0  0  0  0  0  0  0
    0.6735   -0.1307   -2.9354 C   0  0  0  0  0  0  0  0  0  0  0  0
   -0.6888   -0.3633   -3.0165 C   0  0  0  0  0  0  0  0  0  0  0  0
   -1.4304   -0.5509   -1.8761 C   0  0  0  0  0  0  0  0  0  0  0  0
   -0.8383   -0.5123   -0.6299 C   0  0  0  0  0  0  0  0  0  0  0  0
   -1.6783   -0.7225    0.5442 C   0  0  0  0  0  0  0  0  0  0  0  0
   -2.6516    0.1883    0.9419 C   0  0  0  0  0  0  0  0  0  0  0  0
   -3.0159    1.4757    0.3440 C   0  0  0  0  0  0  0  0  0  0  0  0
   -4.0687    1.4908   -0.5455 C   0  0  0  0  0  0  0  0  0  0  0  0
   -4.4574    2.6928   -1.1308 C   0  0  0  0  0  0  0  0  0  0  0  0
   -3.8188    3.8747   -0.8470 C   0  0  0  0  0  0  0  0  0  0  0  0
   -4.1854    5.0438   -1.4033 F   0  0  0  0  0  0  0  0  0  0  0  0
   -2.7587    3.8589    0.0479 C   0  0  0  0  0  0  0  0  0  0  0  0
   -2.3789    2.6612    0.6248 C   0  0  0  0  0  0  0  0  0  0  0  0
   -3.2247   -0.3545    2.0345 N   0  0  0  0  0  0  0  0  0  0  0  0
   -2.6458   -1.5298    2.3005 C   0  0  0  0  0  0  0  0  0  0  0  0
   -1.6774   -1.7714    1.3766 N   0  0  0  0  0  0  0  0  0  0  0  0
   -0.8425   -2.9391    1.3510 C   0  0  0  0  0  0  0  0  0  0  0  0
    0.3850   -2.8158    2.1780 C   0  0  0  0  0  0  0  0  0  0  0  0
    0.0983   -2.5855    3.5249 F   0  0  0  0  0  0  0  0  0  0  0  0
    1.0340   -4.0608    2.1205 F   0  0  0  0  0  0  0  0  0  0  0  0
    0.5191   -0.2779   -0.5878 C   0  0  0  0  0  0  0  0  0  0  0  0
    1.2527   -0.0921   -1.7251 N   0  0  0  0  0  0  0  0  0  0  0  0
    5.8546   -0.7997    2.3654 H   0  0  0  0  0  0  0  0  0  0  0  0
    5.9344   -0.4916    0.6118 H   0  0  0  0  0  0  0  0  0  0  0  0
    4.8663   -1.8223    1.3057 H   0  0  0  0  0  0  0  0  0  0  0  0
    4.6149    1.2441    1.6177 H   0  0  0  0  0  0  0  0  0  0  0  0
    3.5907    0.0414    2.4520 H   0  0  0  0  0  0  0  0  0  0  0  0
    3.7384    0.4338   -3.7127 H   0  0  0  0  0  0  0  0  0  0  0  0
   -1.2158   -0.4046   -3.9663 H   0  0  0  0  0  0  0  0  0  0  0  0
   -2.4925   -0.7337   -1.9527 H   0  0  0  0  0  0  0  0  0  0  0  0
   -4.6259    0.5927   -0.8215 H   0  0  0  0  0  0  0  0  0  0  0  0
   -5.2819    2.6909   -1.8237 H   0  0  0  0  0  0  0  0  0  0  0  0
   -2.2463    4.7711    0.2862 H   0  0  0  0  0  0  0  0  0  0  0  0
   -1.5533    2.6068    1.3321 H   0  0  0  0  0  0  0  0  0  0  0  0
   -2.8993   -2.1972    3.1245 H   0  0  0  0  0  0  0  0  0  0  0  0
   -0.5286   -3.1347    0.3040 H   0  0  0  0  0  0  0  0  0  0  0  0
   -1.4295   -3.8131    1.7566 H   0  0  0  0  0  0  0  0  0  0  0  0
    1.1172   -2.0957    1.7990 H   0  0  0  0  0  0  0  0  0  0  0  0
    1.0118   -0.2337    0.3707 H   0  0  0  0  0  0  0  0  0  0  0  0
  1  2  1  0
  2  3  1  0
  3  4  1  0
  4  5  2  0
  4  6  1  0
  6  7  2  0
  7  8  1  0
  8  9  2  0
  9 10  1  0
 10 11  2  0
 11 12  1  0
 12 13  1  0
 13 14  2  0
 14 15  1  0
 15 16  2  0
 16 17  1  0
 17 18  2  0
 18 19  1  0
 18 20  1  0
 20 21  2  0
 14 22  1  0
 22 23  2  0
 23 24  1  0
 24 25  1  0
 25 26  1  0
 26 27  1  0
 26 28  1  0
 12 29  2  0
 29 30  1  0
 30  6  1  0
 30  9  1  0
 24 13  1  0
 21 15  1  0
  1 31  1  0
  1 32  1  0
  1 33  1  0
  2 34  1  0
  2 35  1  0
  7 36  1  0
 10 37  1  0
 11 38  1  0
 16 39  1  0
 17 40  1  0
 20 41  1  0
 21 42  1  0
 23 43  1  0
 25 44  1  0
 25 45  1  0
 26 46  1  0
 29 47  1  0
M  END
$$$$
