@<TRIPOS>MOLECULE
*****
 47 50 0 0 0
SMALL
GASTEIGER

@<TRIPOS>ATOM
      1 C           5.2561   -0.8113    1.4334 C.3     1  UNL1       -0.0306
      2 C           4.1649    0.2370    1.5174 C.3     1  UNL1        0.0900
      3 O           3.2591    0.1398    0.4485 O.3     1  UNL1       -0.4604
      4 C           3.5890    0.2632   -0.8797 C.2     1  UNL1        0.3577
      5 O           4.7848    0.4802   -1.1870 O.2     1  UNL1       -0.2432
      6 C           2.5518    0.1389   -1.8859 C.ar    1  UNL1        0.1508
      7 C           2.7496    0.2424   -3.2718 C.ar    1  UNL1        0.0608
      8 N           1.5883    0.0754   -3.9151 N.ar    1  UNL1       -0.2353
      9 C           0.6735   -0.1307   -2.9354 C.ar    1  UNL1        0.1382
     10 C          -0.6888   -0.3633   -3.0165 C.ar    1  UNL1       -0.0182
     11 C          -1.4304   -0.5509   -1.8761 C.ar    1  UNL1       -0.0477
     12 C          -0.8383   -0.5123   -0.6299 C.ar    1  UNL1        0.0173
     13 C          -1.6783   -0.7225    0.5442 C.ar    1  UNL1        0.0780
     14 C          -2.6516    0.1883    0.9419 C.ar    1  UNL1        0.0967
     15 C          -3.0159    1.4757    0.3440 C.ar    1  UNL1        0.0026
     16 C          -4.0687    1.4908   -0.5455 C.ar    1  UNL1       -0.0498
     17 C          -4.4574    2.6928   -1.1308 C.ar    1  UNL1       -0.0258
     18 C          -3.8188    3.8747   -0.8470 C.ar    1  UNL1        0.1234
     19 F          -4.1854    5.0438   -1.4033 F       1  UNL1       -0.2055
     20 C          -2.7587    3.8589    0.0479 C.ar    1  UNL1       -0.0258
     21 C          -2.3789    2.6612    0.6248 C.ar    1  UNL1       -0.0498
     22 N          -3.2247   -0.3545    2.0345 N.ar    1  UNL1       -0.2351
     23 C          -2.6458   -1.5298    2.3005 C.ar    1  UNL1        0.0972
     24 N          -1.6774   -1.7714    1.3766 N.ar    1  UNL1       -0.3241
     25 C          -0.8425   -2.9391    1.3510 C.3     1  UNL1        0.0852
     26 C           0.3850   -2.8158    2.1780 C.3     1  UNL1        0.2569
     27 F           0.0983   -2.5855    3.5249 F       1  UNL1       -0.2073
     28 F           1.0340   -4.0608    2.1205 F       1  UNL1       -0.2073
     29 C           0.5191   -0.2779   -0.5878 C.ar    1  UNL1        0.0211
     30 N           1.2527   -0.0921   -1.7251 N.ar    1  UNL1       -0.2934
     31 H           5.8546   -0.7997    2.3654 H       1  UNL1        0.0262
     32 H           5.9344   -0.4916    0.6118 H       1  UNL1        0.0262
     33 H           4.8663   -1.8223    1.3057 H       1  UNL1        0.0262
     34 H           4.6149    1.2441    1.6177 H       1  UNL1        0.0695
     35 H           3.5907    0.0414    2.4520 H       1  UNL1        0.0695
     36 H           3.7384    0.4338   -3.7127 H       1  UNL1        0.0854
     37 H          -1.2158   -0.4046   -3.9663 H       1  UNL1        0.0654
     38 H          -2.4925   -0.7337   -1.9527 H       1  UNL1        0.0626
     39 H          -4.6259    0.5927   -0.8215 H       1  UNL1        0.0625
     40 H          -5.2819    2.6909   -1.8237 H       1  UNL1        0.0646
     41 H          -2.2463    4.7711    0.2862 H       1  UNL1        0.0646
     42 H          -1.5533    2.6068    1.3321 H       1  UNL1        0.0625
     43 H          -2.8993   -2.1972    3.1245 H       1  UNL1        0.1029
     44 H          -0.5286   -3.1347    0.3040 H       1  UNL1        0.0548
     45 H          -1.4295   -3.8131    1.7566 H       1  UNL1        0.0548
     46 H           1.1172   -2.0957    1.7990 H       1  UNL1        0.1037
     47 H           1.0118   -0.2337    0.3707 H       1  UNL1        0.0820
@<TRIPOS>BOND
     1     1     2    1
     2     2     3    1
     3     3     4    1
     4     4     5    2
     5     4     6    1
     6     6     7   ar
     7     7     8   ar
     8     8     9   ar
     9     9    10   ar
    10    10    11   ar
    11    11    12   ar
    12    12    13    1
    13    13    14   ar
    14    14    15    1
    15    15    16   ar
    16    16    17   ar
    17    17    18   ar
    18    18    19    1
    19    18    20   ar
    20    20    21   ar
    21    14    22   ar
    22    22    23   ar
    23    23    24   ar
    24    24    25    1
    25    25    26    1
    26    26    27    1
    27    26    28    1
    28    12    29   ar
    29    29    30   ar
    30    30     6   ar
    31    30     9   ar
    32    24    13   ar
    33    21    15   ar
    34     1    31    1
    35     1    32    1
    36     1    33    1
    37     2    34    1
    38     2    35    1
    39     7    36    1
    40    10    37    1
    41    11    38    1
    42    16    39    1
    43    17    40    1
    44    20    41    1
    45    21    42    1
    46    23    43    1
    47    25    44    1
    48    25    45    1
    49    26    46    1
    50    29    47    1
