@<TRIPOS>MOLECULE
*****
 28 31 0 0 0
SMALL
GASTEIGER

@<TRIPOS>ATOM
      1 O           4.6954    0.3583    0.6005 O.3     1  UNL1       -0.5032
      2 C           3.3529    0.1573    0.3547 C.ar    1  UNL1        0.1628
      3 C           2.8076   -0.8593   -0.3865 C.ar    1  UNL1        0.2022
      4 O           3.6817   -1.7792   -0.9472 O.3     1  UNL1       -0.5009
      5 C           1.4545   -0.9451   -0.5541 C.ar    1  UNL1        0.1854
      6 C           0.6693    0.0169    0.0426 C.ar    1  UNL1        0.0468
      7 C           1.1613    1.0764    0.8090 C.ar    1  UNL1        0.0744
      8 C           2.5420    1.1196    0.9496 C.ar    1  UNL1       -0.0017
      9 C           0.3168    2.0068    1.3793 C.ar    1  UNL1        0.3454
     10 O           0.8427    2.9421    2.0631 O.2     1  UNL1       -0.2445
     11 O          -0.9751    1.8816    1.1895 O.2     1  UNL1       -0.4178
     12 C          -1.4931    0.9072    0.4795 C.ar    1  UNL1        0.1854
     13 C          -0.7080   -0.0504   -0.1143 C.ar    1  UNL1        0.0468
     14 C          -1.2287   -1.0930   -0.8714 C.ar    1  UNL1        0.0744
     15 C          -2.6028   -1.1224   -1.0020 C.ar    1  UNL1       -0.0017
     16 C          -3.3916   -0.1577   -0.4037 C.ar    1  UNL1        0.1628
     17 O          -4.7766   -0.2892   -0.6052 O.3     1  UNL1       -0.5032
     18 C          -2.8671    0.8794    0.3499 C.ar    1  UNL1        0.2022
     19 O          -3.7461    1.7945    0.9070 O.3     1  UNL1       -0.5009
     20 C          -0.3667   -2.0334   -1.4471 C.ar    1  UNL1        0.3454
     21 O          -0.9383   -2.9350   -2.1115 O.2     1  UNL1       -0.2445
     22 O           0.9272   -1.9149   -1.2618 O.2     1  UNL1       -0.4178
     23 H           5.3589    0.5031   -0.1428 H       1  UNL1        0.2923
     24 H           4.2347   -2.4091   -0.3614 H       1  UNL1        0.2924
     25 H           2.9105    1.9565    1.5532 H       1  UNL1        0.0664
     26 H          -3.0322   -1.9241   -1.5865 H       1  UNL1        0.0664
     27 H          -5.2746   -0.8568    0.0931 H       1  UNL1        0.2923
     28 H          -3.5547    2.7699    1.0245 H       1  UNL1        0.2924
@<TRIPOS>BOND
     1     1     2    1
     2     2     3   ar
     3     3     4    1
     4     3     5   ar
     5     5     6   ar
     6     6     7   ar
     7     7     8   ar
     8     7     9   ar
     9     9    10    2
    10     9    11   ar
    11    11    12   ar
    12    12    13   ar
    13    13    14   ar
    14    14    15   ar
    15    15    16   ar
    16    16    17    1
    17    16    18   ar
    18    18    19    1
    19    14    20   ar
    20    20    21    2
    21    20    22   ar
    22     8     2   ar
    23    18    12   ar
    24    22     5   ar
    25    13     6   ar
    26     1    23    1
    27     4    24    1
    28     8    25    1
    29    15    26    1
    30    17    27    1
    31    19    28    1
