
     RDKit          3D

 28 31  0  0  0  0  0  0  0  0999 V2000
    4.6954    0.3583    0.6005 O   0  0  0  0  0  0  0  0  0  0  0  0
    3.3529    0.1573    0.3547 C   0  0  0  0  0  0  0  0  0  0  0  0
    2.8076   -0.8593   -0.3865 C   0  0  0  0  0  0  0  0  0  0  0  0
    3.6817   -1.7792   -0.9472 O   0  0  0  0  0  0  0  0  0  0  0  0
    1.4545   -0.9451   -0.5541 C   0  0  0  0  0  0  0  0  0  0  0  0
    0.6693    0.0169    0.0426 C   0  0  0  0  0  0  0  0  0  0  0  0
    1.1613    1.0764    0.8090 C   0  0  0  0  0  0  0  0  0  0  0  0
    2.5420    1.1196    0.9496 C   0  0  0  0  0  0  0  0  0  0  0  0
    0.3168    2.0068    1.3793 C   0  0  0  0  0  0  0  0  0  0  0  0
    0.8427    2.9421    2.0631 O   0  0  0  0  0  0  0  0  0  0  0  0
   -0.9751    1.8816    1.1895 O   0  0  0  0  0  0  0  0  0  0  0  0
   -1.4931    0.9072    0.4795 C   0  0  0  0  0  0  0  0  0  0  0  0
   -0.7080   -0.0504   -0.1143 C   0  0  0  0  0  0  0  0  0  0  0  0
   -1.2287   -1.0930   -0.8714 C   0  0  0  0  0  0  0  0  0  0  0  0
   -2.6028   -1.1224   -1.0020 C   0  0  0  0  0  0  0  0  0  0  0  0
   -3.3916   -0.1577   -0.4037 C   0  0  0  0  0  0  0  0  0  0  0  0
   -4.7766   -0.2892   -0.6052 O   0  0  0  0  0  0  0  0  0  0  0  0
   -2.8671    0.8794    0.3499 C   0  0  0  0  0  0  0  0  0  0  0  0
   -3.7461    1.7945    0.9070 O   0  0  0  0  0  0  0  0  0  0  0  0
   -0.3667   -2.0334   -1.4471 C   0  0  0  0  0  0  0  0  0  0  0  0
   -0.9383   -2.9350   -2.1115 O   0  0  0  0  0  0  0  0  0  0  0  0
    0.9272   -1.9149   -1.2618 O   0  0  0  0  0  0  0  0  0  0  0  0
    5.3589    0.5031   -0.1428 H   0  0  0  0  0  0  0  0  0  0  0  0
    4.2347   -2.4091   -0.3614 H   0  0  0  0  0  0  0  0  0  0  0  0
    2.9105    1.9565    1.5532 H   0  0  0  0  0  0  0  0  0  0  0  0
   -3.0322   -1.9241   -1.5865 H   0  0  0  0  0  0  0  0  0  0  0  0
   -5.2746   -0.8568    0.0931 H   0  0  0  0  0  0  0  0  0  0  0  0
   -3.5547    2.7699    1.0245 H   0  0  0  0  0  0  0  0  0  0  0  0
  1  2  1  0
  2  3  2  0
  3  4  1  0
  3  5  1  0
  5  6  2  0
  6  7  1  0
  7  8  2  0
  7  9  1  0
  9 10  2  0
  9 11  1  0
 11 12  1  0
 12 13  2  0
 13 14  1  0
 14 15  2  0
 15 16  1  0
 16 17  1  0
 16 18  2  0
 18 19  1  0
 14 20  1  0
 20 21  2  0
 20 22  1  0
  8  2  1  0
 18 12  1  0
 22  5  1  0
 13  6  1  0
  1 23  1  0
  4 24  1  0
  8 25  1  0
 15 26  1  0
 17 27  1  0
 19 28  1  0
M  END
$$$$
