@<TRIPOS>MOLECULE
*****
 70 73 0 0 0
SMALL
GASTEIGER

@<TRIPOS>ATOM
      1 C          -8.6968    1.5830    2.5305 C.3     1  UNL1        0.0790
      2 O          -8.2047    1.2497    1.2531 O.3     1  UNL1       -0.4914
      3 C          -7.0560    0.4936    1.0708 C.ar    1  UNL1        0.1618
      4 C          -6.6487    0.2159   -0.2402 C.ar    1  UNL1        0.1618
      5 O          -7.4191    0.7128   -1.2697 O.3     1  UNL1       -0.4914
      6 C          -6.9683    0.4062   -2.5982 C.3     1  UNL1        0.0790
      7 C          -5.5020   -0.5380   -0.3750 C.ar    1  UNL1       -0.0125
      8 C          -4.8285   -0.9715    0.7481 C.ar    1  UNL1       -0.0359
      9 C          -3.6600   -1.7315    1.1831 C.3     1  UNL1        0.0012
     10 C          -2.3312   -1.0435    0.8283 C.3     1  UNL1        0.0057
     11 N          -2.2945   -0.9073   -0.5870 N.3     1  UNL1       -0.3047
     12 C          -2.1803   -2.0998   -1.3487 C.3     1  UNL1       -0.0127
     13 C          -1.7294    0.2750   -1.1174 C.3     1  UNL1        0.0000
     14 C          -0.2474    0.4452   -0.9233 C.3     1  UNL1       -0.0243
     15 C           0.5691   -0.6551   -1.5597 C.3     1  UNL1        0.0158
     16 N           1.9832   -0.3558   -1.2898 N.am    1  UNL1       -0.3009
     17 C           2.8587    0.4314   -2.1209 C.3     1  UNL1        0.0187
     18 C           3.5168    1.5454   -1.3151 C.3     1  UNL1       -0.0114
     19 C           4.6974    0.9498   -0.6376 C.ar    1  UNL1       -0.0386
     20 C           5.8645    1.7023   -0.7644 C.ar    1  UNL1       -0.0128
     21 C           7.0736    1.3339   -0.2122 C.ar    1  UNL1        0.1618
     22 O           8.2282    2.0774   -0.3369 O.3     1  UNL1       -0.4914
     23 C           8.2678    3.3019   -1.0546 C.3     1  UNL1        0.0790
     24 C           7.1496    0.1516    0.5126 C.ar    1  UNL1        0.1618
     25 O           8.3601   -0.2316    1.0739 O.3     1  UNL1       -0.4914
     26 C           8.3807   -1.4481    1.8037 C.3     1  UNL1        0.0790
     27 C           5.9964   -0.6021    0.6439 C.ar    1  UNL1       -0.0124
     28 C           4.7965   -0.2075    0.0788 C.ar    1  UNL1       -0.0317
     29 C           3.8199   -1.2420    0.4255 C.3     1  UNL1        0.0497
     30 C           2.4443   -0.9474   -0.0592 C.2     1  UNL1        0.2199
     31 O           1.5161   -1.2753    0.7549 O.2     1  UNL1       -0.2752
     32 C          -4.0504   -1.4708    2.5840 C.3     1  UNL1       -0.0193
     33 C          -5.1908   -0.7239    2.0335 C.ar    1  UNL1       -0.0396
     34 C          -6.3517    0.0397    2.1650 C.ar    1  UNL1       -0.0128
     35 H          -9.7702    1.9021    2.4766 H       1  UNL1        0.0660
     36 H          -8.6902    0.6751    3.1613 H       1  UNL1        0.0660
     37 H          -8.0700    2.3565    3.0162 H       1  UNL1        0.0660
     38 H          -7.8184    0.6679   -3.2519 H       1  UNL1        0.0660
     39 H          -6.0489    0.9504   -2.8450 H       1  UNL1        0.0660
     40 H          -6.8354   -0.7039   -2.6139 H       1  UNL1        0.0660
     41 H          -5.2015   -0.7434   -1.3939 H       1  UNL1        0.0658
     42 H          -3.7050   -2.7827    0.8304 H       1  UNL1        0.0364
     43 H          -2.4339   -0.0137    1.2656 H       1  UNL1        0.0432
     44 H          -1.4965   -1.6127    1.2743 H       1  UNL1        0.0432
     45 H          -1.6505   -2.9305   -0.8189 H       1  UNL1        0.0391
     46 H          -1.7266   -1.8726   -2.3286 H       1  UNL1        0.0391
     47 H          -3.2356   -2.4332   -1.5809 H       1  UNL1        0.0391
     48 H          -1.9677    0.2917   -2.2147 H       1  UNL1        0.0427
     49 H          -2.2792    1.1370   -0.6864 H       1  UNL1        0.0427
     50 H           0.0487    0.5235    0.1232 H       1  UNL1        0.0293
     51 H           0.0081    1.4231   -1.4220 H       1  UNL1        0.0293
     52 H           0.4751   -0.6368   -2.6787 H       1  UNL1        0.0465
     53 H           0.3344   -1.6285   -1.1330 H       1  UNL1        0.0465
     54 H           3.6442   -0.2532   -2.5135 H       1  UNL1        0.0468
     55 H           2.3354    0.8620   -3.0012 H       1  UNL1        0.0468
     56 H           3.8313    2.3825   -1.9849 H       1  UNL1        0.0328
     57 H           2.8446    1.8968   -0.4897 H       1  UNL1        0.0328
     58 H           5.8270    2.6260   -1.3255 H       1  UNL1        0.0658
     59 H           9.2986    3.5805   -1.3361 H       1  UNL1        0.0660
     60 H           7.6897    3.1241   -1.9926 H       1  UNL1        0.0660
     61 H           7.7108    4.0801   -0.5073 H       1  UNL1        0.0660
     62 H           7.6271   -1.4056    2.6354 H       1  UNL1        0.0660
     63 H           8.0589   -2.3102    1.1701 H       1  UNL1        0.0660
     64 H           9.3534   -1.6572    2.2674 H       1  UNL1        0.0660
     65 H           6.1140   -1.5124    1.2179 H       1  UNL1        0.0658
     66 H           3.7916   -1.2964    1.5501 H       1  UNL1        0.0407
     67 H           4.1166   -2.2639    0.0883 H       1  UNL1        0.0407
     68 H          -4.3185   -2.3603    3.1982 H       1  UNL1        0.0320
     69 H          -3.3334   -0.7961    3.1226 H       1  UNL1        0.0320
     70 H          -6.6910    0.2705    3.1806 H       1  UNL1        0.0658
@<TRIPOS>BOND
     1     1     2    1
     2     2     3    1
     3     3     4   ar
     4     4     5    1
     5     5     6    1
     6     4     7   ar
     7     7     8   ar
     8     8     9    1
     9     9    10    1
    10    10    11    1
    11    11    12    1
    12    11    13    1
    13    13    14    1
    14    14    15    1
    15    15    16    1
    16    16    17    1
    17    17    18    1
    18    18    19    1
    19    19    20   ar
    20    20    21   ar
    21    21    22    1
    22    22    23    1
    23    21    24   ar
    24    24    25    1
    25    25    26    1
    26    24    27   ar
    27    27    28   ar
    28    28    29    1
    29    29    30    1
    30    30    31    2
    31     9    32    1
    32    32    33    1
    33    33    34   ar
    34    34     3   ar
    35    33     8   ar
    36    30    16   am
    37    28    19   ar
    38     1    35    1
    39     1    36    1
    40     1    37    1
    41     6    38    1
    42     6    39    1
    43     6    40    1
    44     7    41    1
    45     9    42    1
    46    10    43    1
    47    10    44    1
    48    12    45    1
    49    12    46    1
    50    12    47    1
    51    13    48    1
    52    13    49    1
    53    14    50    1
    54    14    51    1
    55    15    52    1
    56    15    53    1
    57    17    54    1
    58    17    55    1
    59    18    56    1
    60    18    57    1
    61    20    58    1
    62    23    59    1
    63    23    60    1
    64    23    61    1
    65    26    62    1
    66    26    63    1
    67    26    64    1
    68    27    65    1
    69    29    66    1
    70    29    67    1
    71    32    68    1
    72    32    69    1
    73    34    70    1
