@<TRIPOS>MOLECULE
*****
 59 62 0 0 0
SMALL
GASTEIGER

@<TRIPOS>ATOM
      1 O           9.1428   -0.7205   -1.3483 O.2     1  UNL1       -0.2510
      2 C           8.3307    0.1273   -1.7825 C.2     1  UNL1        0.3062
      3 O           8.7959    1.0796   -2.6801 O.3     1  UNL1       -0.4806
      4 C           6.8993    0.1736   -1.3937 C.3     1  UNL1        0.0603
      5 C           6.7267    0.8334   -0.0469 C.3     1  UNL1        0.0220
      6 N           5.3550    0.9061    0.3769 N.am    1  UNL1       -0.3108
      7 C           4.5143   -0.2186    0.5819 C.2     1  UNL1        0.2441
      8 O           5.0256   -1.3478    0.3750 O.2     1  UNL1       -0.2702
      9 C           3.1274   -0.1535    1.0074 C.ar    1  UNL1        0.0367
     10 C           2.4526    1.0179    1.2465 C.ar    1  UNL1       -0.0493
     11 C           1.1218    0.9876    1.6522 C.ar    1  UNL1       -0.0561
     12 C           0.4162   -0.1691    1.8350 C.ar    1  UNL1       -0.0261
     13 C          -0.9858   -0.2769    2.2543 C.3     1  UNL1        0.0672
     14 N          -1.9091   -0.7046    1.2282 N.ar    1  UNL1       -0.2588
     15 N          -2.1057   -2.0292    1.0101 N.ar    1  UNL1       -0.1704
     16 C          -2.9785   -2.2434    0.0470 C.ar    1  UNL1        0.0934
     17 C          -3.4483   -3.5259   -0.4696 C.ar    1  UNL1        0.0049
     18 C          -4.3726   -3.5893   -1.4910 C.ar    1  UNL1       -0.0341
     19 C          -4.8104   -4.8287   -1.9705 C.ar    1  UNL1        0.0430
     20 CL         -5.9797   -4.9533   -3.2626 Cl      1  UNL1       -0.0835
     21 C          -4.2887   -5.9515   -1.3900 C.ar    1  UNL1       -0.0250
     22 C          -3.3633   -5.9203   -0.3675 C.ar    1  UNL1        0.0430
     23 CL         -2.7125   -7.3753    0.3577 Cl      1  UNL1       -0.0835
     24 C          -2.9450   -4.6801    0.0905 C.ar    1  UNL1       -0.0341
     25 C          -3.3717   -0.9977   -0.3862 C.ar    1  UNL1       -0.0084
     26 C          -2.6847   -0.0454    0.3724 C.ar    1  UNL1        0.0699
     27 C          -2.8816    1.3955    0.2264 C.ar    1  UNL1        0.0003
     28 C          -1.8698    2.3046    0.0452 C.ar    1  UNL1       -0.0491
     29 C          -2.1095    3.6777   -0.0659 C.ar    1  UNL1       -0.0190
     30 C          -3.3939    4.1570    0.0050 C.ar    1  UNL1        0.1300
     31 O          -3.6294    5.5119   -0.1045 O.3     1  UNL1       -0.4057
     32 C          -3.8620    6.0935   -1.3747 C.3     1  UNL1        0.5752
     33 F          -4.9844    5.4852   -1.9068 F       1  UNL1       -0.1328
     34 F          -3.9802    7.4552   -1.3101 F       1  UNL1       -0.1328
     35 F          -2.7543    5.7640   -2.1584 F       1  UNL1       -0.1328
     36 C          -4.4219    3.2636    0.1854 C.ar    1  UNL1       -0.0190
     37 C          -4.1837    1.9183    0.2942 C.ar    1  UNL1       -0.0491
     38 C           1.1110   -1.3580    1.5894 C.ar    1  UNL1       -0.0561
     39 C           2.4091   -1.3162    1.1942 C.ar    1  UNL1       -0.0493
     40 H           9.7476    1.4216   -2.6500 H       1  UNL1        0.2951
     41 H           6.3360    0.6569   -2.1886 H       1  UNL1        0.0393
     42 H           6.5760   -0.8858   -1.2875 H       1  UNL1        0.0393
     43 H           7.1358    1.8581   -0.1178 H       1  UNL1        0.0467
     44 H           7.3734    0.3172    0.7182 H       1  UNL1        0.0467
     45 H           4.9108    1.8505    0.5575 H       1  UNL1        0.1490
     46 H           2.9797    1.9469    1.1111 H       1  UNL1        0.0625
     47 H           0.6189    1.9273    1.8355 H       1  UNL1        0.0621
     48 H          -1.0308   -1.0224    3.1014 H       1  UNL1        0.0559
     49 H          -1.3105    0.6737    2.7347 H       1  UNL1        0.0559
     50 H          -4.7848   -2.7032   -1.9497 H       1  UNL1        0.0639
     51 H          -4.6271   -6.9269   -1.7611 H       1  UNL1        0.0647
     52 H          -2.2181   -4.6765    0.8939 H       1  UNL1        0.0639
     53 H          -4.0702   -0.7636   -1.1567 H       1  UNL1        0.0661
     54 H          -0.8690    1.9448   -0.0312 H       1  UNL1        0.0625
     55 H          -1.2982    4.3788   -0.2074 H       1  UNL1        0.0654
     56 H          -5.4389    3.6354    0.2422 H       1  UNL1        0.0654
     57 H          -4.9722    1.2032    0.4350 H       1  UNL1        0.0625
     58 H           0.5996   -2.3202    1.7179 H       1  UNL1        0.0621
     59 H           2.9405   -2.2625    1.0054 H       1  UNL1        0.0625
@<TRIPOS>BOND
     1     1     2    2
     2     2     3    1
     3     2     4    1
     4     4     5    1
     5     5     6    1
     6     6     7   am
     7     7     8    2
     8     7     9    1
     9     9    10   ar
    10    10    11   ar
    11    11    12   ar
    12    12    13    1
    13    13    14    1
    14    14    15   ar
    15    15    16   ar
    16    16    17    1
    17    17    18   ar
    18    18    19   ar
    19    19    20    1
    20    19    21   ar
    21    21    22   ar
    22    22    23    1
    23    22    24   ar
    24    16    25   ar
    25    25    26   ar
    26    26    27    1
    27    27    28   ar
    28    28    29   ar
    29    29    30   ar
    30    30    31    1
    31    31    32    1
    32    32    33    1
    33    32    34    1
    34    32    35    1
    35    30    36   ar
    36    36    37   ar
    37    12    38   ar
    38    38    39   ar
    39    39     9   ar
    40    26    14   ar
    41    37    27   ar
    42    24    17   ar
    43     3    40    1
    44     4    41    1
    45     4    42    1
    46     5    43    1
    47     5    44    1
    48     6    45    1
    49    10    46    1
    50    11    47    1
    51    13    48    1
    52    13    49    1
    53    18    50    1
    54    21    51    1
    55    24    52    1
    56    25    53    1
    57    28    54    1
    58    29    55    1
    59    36    56    1
    60    37    57    1
    61    38    58    1
    62    39    59    1
