
     RDKit          3D

 59 62  0  0  0  0  0  0  0  0999 V2000
    9.1428   -0.7205   -1.3483 O   0  0  0  0  0  0  0  0  0  0  0  0
    8.3307    0.1273   -1.7825 C   0  0  0  0  0  0  0  0  0  0  0  0
    8.7959    1.0796   -2.6801 O   0  0  0  0  0  0  0  0  0  0  0  0
    6.8993    0.1736   -1.3937 C   0  0  0  0  0  0  0  0  0  0  0  0
    6.7267    0.8334   -0.0469 C   0  0  0  0  0  0  0  0  0  0  0  0
    5.3550    0.9061    0.3769 N   0  0  0  0  0  0  0  0  0  0  0  0
    4.5143   -0.2186    0.5819 C   0  0  0  0  0  0  0  0  0  0  0  0
    5.0256   -1.3478    0.3750 O   0  0  0  0  0  0  0  0  0  0  0  0
    3.1274   -0.1535    1.0074 C   0  0  0  0  0  0  0  0  0  0  0  0
    2.4526    1.0179    1.2465 C   0  0  0  0  0  0  0  0  0  0  0  0
    1.1218    0.9876    1.6522 C   0  0  0  0  0  0  0  0  0  0  0  0
    0.4162   -0.1691    1.8350 C   0  0  0  0  0  0  0  0  0  0  0  0
   -0.9858   -0.2769    2.2543 C   0  0  0  0  0  0  0  0  0  0  0  0
   -1.9091   -0.7046    1.2282 N   0  0  0  0  0  0  0  0  0  0  0  0
   -2.1057   -2.0292    1.0101 N   0  0  0  0  0  0  0  0  0  0  0  0
   -2.9785   -2.2434    0.0470 C   0  0  0  0  0  0  0  0  0  0  0  0
   -3.4483   -3.5259   -0.4696 C   0  0  0  0  0  0  0  0  0  0  0  0
   -4.3726   -3.5893   -1.4910 C   0  0  0  0  0  0  0  0  0  0  0  0
   -4.8104   -4.8287   -1.9705 C   0  0  0  0  0  0  0  0  0  0  0  0
   -5.9797   -4.9533   -3.2626 Cl  0  0  0  0  0  0  0  0  0  0  0  0
   -4.2887   -5.9515   -1.3900 C   0  0  0  0  0  0  0  0  0  0  0  0
   -3.3633   -5.9203   -0.3675 C   0  0  0  0  0  0  0  0  0  0  0  0
   -2.7125   -7.3753    0.3577 Cl  0  0  0  0  0  0  0  0  0  0  0  0
   -2.9450   -4.6801    0.0905 C   0  0  0  0  0  0  0  0  0  0  0  0
   -3.3717   -0.9977   -0.3862 C   0  0  0  0  0  0  0  0  0  0  0  0
   -2.6847   -0.0454    0.3724 C   0  0  0  0  0  0  0  0  0  0  0  0
   -2.8816    1.3955    0.2264 C   0  0  0  0  0  0  0  0  0  0  0  0
   -1.8698    2.3046    0.0452 C   0  0  0  0  0  0  0  0  0  0  0  0
   -2.1095    3.6777   -0.0659 C   0  0  0  0  0  0  0  0  0  0  0  0
   -3.3939    4.1570    0.0050 C   0  0  0  0  0  0  0  0  0  0  0  0
   -3.6294    5.5119   -0.1045 O   0  0  0  0  0  0  0  0  0  0  0  0
   -3.8620    6.0935   -1.3747 C   0  0  0  0  0  0  0  0  0  0  0  0
   -4.9844    5.4852   -1.9068 F   0  0  0  0  0  0  0  0  0  0  0  0
   -3.9802    7.4552   -1.3101 F   0  0  0  0  0  0  0  0  0  0  0  0
   -2.7543    5.7640   -2.1584 F   0  0  0  0  0  0  0  0  0  0  0  0
   -4.4219    3.2636    0.1854 C   0  0  0  0  0  0  0  0  0  0  0  0
   -4.1837    1.9183    0.2942 C   0  0  0  0  0  0  0  0  0  0  0  0
    1.1110   -1.3580    1.5894 C   0  0  0  0  0  0  0  0  0  0  0  0
    2.4091   -1.3162    1.1942 C   0  0  0  0  0  0  0  0  0  0  0  0
    9.7476    1.4216   -2.6500 H   0  0  0  0  0  0  0  0  0  0  0  0
    6.3360    0.6569   -2.1886 H   0  0  0  0  0  0  0  0  0  0  0  0
    6.5760   -0.8858   -1.2875 H   0  0  0  0  0  0  0  0  0  0  0  0
    7.1358    1.8581   -0.1178 H   0  0  0  0  0  0  0  0  0  0  0  0
    7.3734    0.3172    0.7182 H   0  0  0  0  0  0  0  0  0  0  0  0
    4.9108    1.8505    0.5575 H   0  0  0  0  0  0  0  0  0  0  0  0
    2.9797    1.9469    1.1111 H   0  0  0  0  0  0  0  0  0  0  0  0
    0.6189    1.9273    1.8355 H   0  0  0  0  0  0  0  0  0  0  0  0
   -1.0308   -1.0224    3.1014 H   0  0  0  0  0  0  0  0  0  0  0  0
   -1.3105    0.6737    2.7347 H   0  0  0  0  0  0  0  0  0  0  0  0
   -4.7848   -2.7032   -1.9497 H   0  0  0  0  0  0  0  0  0  0  0  0
   -4.6271   -6.9269   -1.7611 H   0  0  0  0  0  0  0  0  0  0  0  0
   -2.2181   -4.6765    0.8939 H   0  0  0  0  0  0  0  0  0  0  0  0
   -4.0702   -0.7636   -1.1567 H   0  0  0  0  0  0  0  0  0  0  0  0
   -0.8690    1.9448   -0.0312 H   0  0  0  0  0  0  0  0  0  0  0  0
   -1.2982    4.3788   -0.2074 H   0  0  0  0  0  0  0  0  0  0  0  0
   -5.4389    3.6354    0.2422 H   0  0  0  0  0  0  0  0  0  0  0  0
   -4.9722    1.2032    0.4350 H   0  0  0  0  0  0  0  0  0  0  0  0
    0.5996   -2.3202    1.7179 H   0  0  0  0  0  0  0  0  0  0  0  0
    2.9405   -2.2625    1.0054 H   0  0  0  0  0  0  0  0  0  0  0  0
  1  2  2  0
  2  3  1  0
  2  4  1  0
  4  5  1  0
  5  6  1  0
  6  7  1  0
  7  8  2  0
  7  9  1  0
  9 10  2  0
 10 11  1  0
 11 12  2  0
 12 13  1  0
 13 14  1  0
 14 15  1  0
 15 16  2  0
 16 17  1  0
 17 18  2  0
 18 19  1  0
 19 20  1  0
 19 21  2  0
 21 22  1  0
 22 23  1  0
 22 24  2  0
 16 25  1  0
 25 26  2  0
 26 27  1  0
 27 28  2  0
 28 29  1  0
 29 30  2  0
 30 31  1  0
 31 32  1  0
 32 33  1  0
 32 34  1  0
 32 35  1  0
 30 36  1  0
 36 37  2  0
 12 38  1  0
 38 39  2  0
 39  9  1  0
 26 14  1  0
 37 27  1  0
 24 17  1  0
  3 40  1  0
  4 41  1  0
  4 42  1  0
  5 43  1  0
  5 44  1  0
  6 45  1  0
 10 46  1  0
 11 47  1  0
 13 48  1  0
 13 49  1  0
 18 50  1  0
 21 51  1  0
 24 52  1  0
 25 53  1  0
 28 54  1  0
 29 55  1  0
 36 56  1  0
 37 57  1  0
 38 58  1  0
 39 59  1  0
M  END
$$$$
