@<TRIPOS>MOLECULE
*****
 56 59 0 0 0
SMALL
GASTEIGER

@<TRIPOS>ATOM
      1 C          10.2478   -0.2354   -1.3352 C.3     1  UNL1       -0.0221
      2 C           8.8868    0.2687   -1.0815 C.ar    1  UNL1        0.0462
      3 C           8.1310    0.6905   -2.1688 C.ar    1  UNL1        0.0239
      4 C           6.8649    1.1599   -1.9354 C.ar    1  UNL1        0.2523
      5 O           6.1683    1.5475   -2.9274 O.2     1  UNL1       -0.2678
      6 N           6.3263    1.2284   -0.6983 N.ar    1  UNL1       -0.3020
      7 C           7.0645    0.8186    0.3408 C.ar    1  UNL1        0.1692
      8 S           6.4223    0.8600    1.9989 S.3     1  UNL1       -0.0873
      9 C           4.7048    1.3654    2.0390 C.3     1  UNL1        0.0093
     10 C           3.8096    0.3176    1.4561 C.3     1  UNL1        0.0334
     11 C           2.3947    0.7928    1.5065 C.2     1  UNL1        0.2140
     12 O           2.1519    1.9209    2.0002 O.2     1  UNL1       -0.2758
     13 N           1.3195    0.0064    1.0129 N.am    1  UNL1       -0.3124
     14 C          -0.0657    0.4392    1.0478 C.3     1  UNL1        0.0232
     15 C          -0.5020    0.6545   -0.3840 C.3     1  UNL1       -0.0338
     16 C          -2.0013    0.8718   -0.3225 C.3     1  UNL1       -0.0401
     17 C          -2.5978   -0.5032   -0.1119 C.3     1  UNL1        0.0373
     18 C          -4.0600   -0.3476    0.1874 C.ar    1  UNL1        0.2208
     19 N          -4.5601    0.2381    1.2950 N.ar    1  UNL1       -0.1118
     20 N          -5.8929    0.1915    1.2125 N.ar    1  UNL1       -0.1073
     21 C          -6.2215   -0.4211    0.0571 C.ar    1  UNL1        0.2483
     22 C          -7.5792   -0.6747   -0.4165 C.ar    1  UNL1        0.0385
     23 C          -7.7825   -1.3127   -1.6218 C.ar    1  UNL1       -0.0494
     24 C          -9.0778   -1.5566   -2.0772 C.ar    1  UNL1       -0.0610
     25 C         -10.1891   -1.1756   -1.3520 C.ar    1  UNL1       -0.0617
     26 C          -9.9796   -0.5380   -0.1477 C.ar    1  UNL1       -0.0610
     27 C          -8.6852   -0.2928    0.3103 C.ar    1  UNL1       -0.0494
     28 O          -5.0835   -0.7225   -0.5164 O.2     1  UNL1       -0.4199
     29 C          -1.9061   -1.2865    0.9556 C.3     1  UNL1       -0.0401
     30 C          -0.9301   -0.5324    1.7846 C.3     1  UNL1       -0.0338
     31 N           8.3181    0.3540    0.1095 N.ar    1  UNL1       -0.2285
     32 H          10.9715    0.3646   -0.7201 H       1  UNL1        0.0293
     33 H          10.5570   -0.0958   -2.3772 H       1  UNL1        0.0293
     34 H          10.3745   -1.2830   -0.9879 H       1  UNL1        0.0293
     35 H           8.5536    0.6392   -3.1601 H       1  UNL1        0.0690
     36 H           5.3638    1.6064   -0.6107 H       1  UNL1        0.1708
     37 H           4.5488    2.3452    1.5214 H       1  UNL1        0.0385
     38 H           4.4033    1.5114    3.1120 H       1  UNL1        0.0385
     39 H           4.1013   -0.0282    0.4678 H       1  UNL1        0.0366
     40 H           3.8236   -0.5522    2.1878 H       1  UNL1        0.0366
     41 H           1.5923   -0.9315    0.6106 H       1  UNL1        0.1490
     42 H          -0.0713    1.4411    1.5254 H       1  UNL1        0.0498
     43 H           0.0335    1.5519   -0.7501 H       1  UNL1        0.0283
     44 H          -0.2969   -0.2450   -0.9867 H       1  UNL1        0.0283
     45 H          -2.2444    1.5511    0.5312 H       1  UNL1        0.0273
     46 H          -2.3430    1.2615   -1.2838 H       1  UNL1        0.0273
     47 H          -2.5402   -1.0179   -1.0935 H       1  UNL1        0.0396
     48 H          -6.9223   -1.6168   -2.2001 H       1  UNL1        0.0625
     49 H          -9.2497   -2.0526   -3.0140 H       1  UNL1        0.0618
     50 H         -11.2017   -1.3554   -1.6878 H       1  UNL1        0.0618
     51 H         -10.8368   -0.2243    0.4490 H       1  UNL1        0.0618
     52 H          -8.5085    0.2062    1.2527 H       1  UNL1        0.0625
     53 H          -1.4166   -2.1654    0.4796 H       1  UNL1        0.0273
     54 H          -2.6869   -1.7079    1.6246 H       1  UNL1        0.0273
     55 H          -0.2568   -1.2605    2.2897 H       1  UNL1        0.0283
     56 H          -1.4443    0.0154    2.6028 H       1  UNL1        0.0283
@<TRIPOS>BOND
     1     1     2    1
     2     2     3   ar
     3     3     4   ar
     4     4     5    2
     5     4     6   ar
     6     6     7   ar
     7     7     8    1
     8     8     9    1
     9     9    10    1
    10    10    11    1
    11    11    12    2
    12    11    13   am
    13    13    14    1
    14    14    15    1
    15    15    16    1
    16    16    17    1
    17    17    18    1
    18    18    19   ar
    19    19    20   ar
    20    20    21   ar
    21    21    22    1
    22    22    23   ar
    23    23    24   ar
    24    24    25   ar
    25    25    26   ar
    26    26    27   ar
    27    21    28   ar
    28    17    29    1
    29    29    30    1
    30     7    31   ar
    31    31     2   ar
    32    30    14    1
    33    28    18   ar
    34    27    22   ar
    35     1    32    1
    36     1    33    1
    37     1    34    1
    38     3    35    1
    39     6    36    1
    40     9    37    1
    41     9    38    1
    42    10    39    1
    43    10    40    1
    44    13    41    1
    45    14    42    1
    46    15    43    1
    47    15    44    1
    48    16    45    1
    49    16    46    1
    50    17    47    1
    51    23    48    1
    52    24    49    1
    53    25    50    1
    54    26    51    1
    55    27    52    1
    56    29    53    1
    57    29    54    1
    58    30    55    1
    59    30    56    1
