@<TRIPOS>MOLECULE
*****
 21 22 0 0 0
SMALL
GASTEIGER

@<TRIPOS>ATOM
      1 C          -3.2300    0.0283    1.0216 C.3     1  UNL1       -0.0359
      2 C          -1.9191   -0.0386    0.3130 C.2     1  UNL1        0.0004
      3 C          -1.8029   -0.2819   -0.9918 C.2     1  UNL1       -0.0078
      4 C          -0.5116   -0.3452   -1.6761 C.2     1  UNL1        0.1871
      5 O          -0.4273   -0.5767   -2.9109 O.2     1  UNL1       -0.2872
      6 C           0.6921   -0.1305   -0.8815 C.ar    1  UNL1        0.0325
      7 C           1.9206   -0.1880   -1.5180 C.ar    1  UNL1       -0.0503
      8 C           3.0735    0.0183   -0.7534 C.ar    1  UNL1       -0.0610
      9 C           2.9675    0.2740    0.6138 C.ar    1  UNL1       -0.0610
     10 C           1.7567    0.3370    1.2744 C.ar    1  UNL1       -0.0502
     11 C           0.6629    0.1267    0.4727 C.ar    1  UNL1        0.0327
     12 C          -0.6757    0.1689    1.0592 C.2     1  UNL1        0.1897
     13 O          -0.7626    0.4010    2.2979 O.2     1  UNL1       -0.2870
     14 H          -4.0401    0.0369    0.2810 H       1  UNL1        0.0279
     15 H          -3.3561   -0.8616    1.6510 H       1  UNL1        0.0279
     16 H          -3.3406    0.9164    1.6512 H       1  UNL1        0.0279
     17 H          -2.7067   -0.4369   -1.5562 H       1  UNL1        0.0660
     18 H           2.0449   -0.3800   -2.5569 H       1  UNL1        0.0625
     19 H           4.0412   -0.0229   -1.2340 H       1  UNL1        0.0618
     20 H           3.9079    0.4207    1.1244 H       1  UNL1        0.0618
     21 H           1.7054    0.5338    2.3186 H       1  UNL1        0.0625
@<TRIPOS>BOND
     1     1     2    1
     2     2     3    2
     3     3     4    1
     4     4     5    2
     5     4     6    1
     6     6     7   ar
     7     7     8   ar
     8     8     9   ar
     9     9    10   ar
    10    10    11   ar
    11    11    12    1
    12    12    13    2
    13    12     2    1
    14    11     6   ar
    15     1    14    1
    16     1    15    1
    17     1    16    1
    18     3    17    1
    19     7    18    1
    20     8    19    1
    21     9    20    1
    22    10    21    1
