@<TRIPOS>MOLECULE
*****
 64 67 0 0 0
SMALL
GASTEIGER

@<TRIPOS>ATOM
      1 O           1.7313    2.4584    1.2612 O.2     1  UNL1       -0.2741
      2 C           2.5743    1.5854    0.8098 C.2     1  UNL1        0.2305
      3 C           3.9985    1.8231    1.1161 C.3     1  UNL1        0.0884
      4 N           4.8985    0.8285    0.6005 N.am    1  UNL1       -0.3028
      5 C           6.2819    0.9888    0.8471 C.2     1  UNL1        0.2445
      6 O           6.6595    1.9923    1.5023 O.2     1  UNL1       -0.2702
      7 C           7.2678    0.0507    0.3786 C.ar    1  UNL1        0.0372
      8 C           6.9281   -1.0747   -0.3193 C.ar    1  UNL1       -0.0496
      9 C           7.9314   -1.9533   -0.7485 C.ar    1  UNL1       -0.0605
     10 C           9.2627   -1.7238   -0.4911 C.ar    1  UNL1       -0.0501
     11 C           9.6142   -0.5974    0.2087 C.ar    1  UNL1        0.0555
     12 C          11.0568   -0.3244    0.5017 C.3     1  UNL1        0.4174
     13 F          11.1620    1.0382    0.7676 F       1  UNL1       -0.1659
     14 F          11.4335   -1.0374    1.6230 F       1  UNL1       -0.1659
     15 F          11.8559   -0.6513   -0.5962 F       1  UNL1       -0.1659
     16 C           8.6235    0.2593    0.6259 C.ar    1  UNL1       -0.0380
     17 N           2.0637    0.5056    0.0788 N.am    1  UNL1       -0.3087
     18 C           0.6314    0.4124   -0.1382 C.3     1  UNL1        0.0486
     19 C           0.0534   -0.9589    0.0724 C.3     1  UNL1        0.0189
     20 N          -0.6691   -0.8126   -1.1395 N.3     1  UNL1       -0.2958
     21 C          -2.0566   -0.6496   -1.1757 C.3     1  UNL1        0.0106
     22 C          -2.8299   -1.7790   -0.5258 C.3     1  UNL1       -0.0368
     23 C          -4.2979   -1.5016   -0.7746 C.3     1  UNL1       -0.0448
     24 C          -4.6465   -0.2308   -0.0360 C.3     1  UNL1       -0.0158
     25 C          -6.1056    0.0101   -0.0032 C.ar    1  UNL1       -0.0442
     26 C          -6.8517    0.2302   -1.1406 C.ar    1  UNL1       -0.0575
     27 C          -8.2078    0.4478   -1.0153 C.ar    1  UNL1       -0.0475
     28 C          -8.8463    0.4538    0.2072 C.ar    1  UNL1        0.0588
     29 C         -10.2864    0.6880    0.3183 C.2     1  UNL1        0.3368
     30 O         -10.9756    0.8875   -0.7025 O.2     1  UNL1       -0.2451
     31 O         -10.9237    0.6955    1.5479 O.3     1  UNL1       -0.4771
     32 C          -8.1108    0.2354    1.3439 C.ar    1  UNL1       -0.0475
     33 C          -6.7379    0.0151    1.2150 C.ar    1  UNL1       -0.0575
     34 C          -3.9410    0.9001   -0.7521 C.3     1  UNL1       -0.0448
     35 C          -2.4495    0.6712   -0.5601 C.3     1  UNL1       -0.0368
     36 C           0.2379    0.1825   -1.5710 C.3     1  UNL1        0.0189
     37 H           4.3048    2.7928    0.6689 H       1  UNL1        0.0558
     38 H           4.1525    1.9520    2.2121 H       1  UNL1        0.0558
     39 H           4.5521    0.0263    0.0712 H       1  UNL1        0.1495
     40 H           5.8982   -1.2759   -0.5328 H       1  UNL1        0.0625
     41 H           7.5756   -2.8154   -1.2922 H       1  UNL1        0.0618
     42 H           9.9990   -2.4278   -0.8406 H       1  UNL1        0.0623
     43 H           8.8657    1.1649    1.1837 H       1  UNL1        0.0631
     44 H           2.6707   -0.2196   -0.3081 H       1  UNL1        0.1491
     45 H           0.0507    1.2343    0.3312 H       1  UNL1        0.0523
     46 H           0.8846   -1.6975   -0.0122 H       1  UNL1        0.0445
     47 H          -0.5518   -1.0771    0.9996 H       1  UNL1        0.0445
     48 H          -2.4233   -0.6005   -2.2300 H       1  UNL1        0.0462
     49 H          -2.6893   -1.8310    0.5643 H       1  UNL1        0.0280
     50 H          -2.5336   -2.7148   -1.0518 H       1  UNL1        0.0280
     51 H          -4.9239   -2.3644   -0.4974 H       1  UNL1        0.0272
     52 H          -4.3903   -1.3442   -1.8818 H       1  UNL1        0.0272
     53 H          -4.2618   -0.3288    0.9877 H       1  UNL1        0.0349
     54 H          -6.3346    0.2210   -2.0762 H       1  UNL1        0.0621
     55 H          -8.8144    0.6242   -1.9003 H       1  UNL1        0.0626
     56 H         -11.9295    0.8765    1.5801 H       1  UNL1        0.2954
     57 H          -8.5888    0.2358    2.3006 H       1  UNL1        0.0626
     58 H          -6.2175   -0.1517    2.1605 H       1  UNL1        0.0621
     59 H          -4.2150    0.9016   -1.8174 H       1  UNL1        0.0272
     60 H          -4.1860    1.8887   -0.3190 H       1  UNL1        0.0272
     61 H          -2.2549    0.6007    0.5267 H       1  UNL1        0.0280
     62 H          -1.8603    1.4898   -1.0240 H       1  UNL1        0.0280
     63 H          -0.1919    1.0648   -2.0917 H       1  UNL1        0.0445
     64 H           1.0827   -0.2900   -2.1276 H       1  UNL1        0.0445
@<TRIPOS>BOND
     1     1     2    2
     2     2     3    1
     3     3     4    1
     4     4     5   am
     5     5     6    2
     6     5     7    1
     7     7     8   ar
     8     8     9   ar
     9     9    10   ar
    10    10    11   ar
    11    11    12    1
    12    12    13    1
    13    12    14    1
    14    12    15    1
    15    11    16   ar
    16     2    17   am
    17    17    18    1
    18    18    19    1
    19    19    20    1
    20    20    21    1
    21    21    22    1
    22    22    23    1
    23    23    24    1
    24    24    25    1
    25    25    26   ar
    26    26    27   ar
    27    27    28   ar
    28    28    29    1
    29    29    30    2
    30    29    31    1
    31    28    32   ar
    32    32    33   ar
    33    24    34    1
    34    34    35    1
    35    20    36    1
    36    16     7   ar
    37    36    18    1
    38    35    21    1
    39    33    25   ar
    40     3    37    1
    41     3    38    1
    42     4    39    1
    43     8    40    1
    44     9    41    1
    45    10    42    1
    46    16    43    1
    47    17    44    1
    48    18    45    1
    49    19    46    1
    50    19    47    1
    51    21    48    1
    52    22    49    1
    53    22    50    1
    54    23    51    1
    55    23    52    1
    56    24    53    1
    57    26    54    1
    58    27    55    1
    59    31    56    1
    60    32    57    1
    61    33    58    1
    62    34    59    1
    63    34    60    1
    64    35    61    1
    65    35    62    1
    66    36    63    1
    67    36    64    1
