@<TRIPOS>MOLECULE
*****
 19 19 0 0 0
SMALL
GASTEIGER

@<TRIPOS>ATOM
      1 F          -3.2294    2.2810   -0.3893 F       1  UNL1       -0.1633
      2 C          -3.3261    0.9794    0.0107 C.3     1  UNL1        0.4511
      3 F          -2.9640    0.8624    1.3593 F       1  UNL1       -0.1633
      4 F          -4.6378    0.5412   -0.1809 F       1  UNL1       -0.1633
      5 C          -2.4365    0.0451   -0.7239 C.2     1  UNL1        0.2428
      6 O          -2.7321   -0.9162   -1.4018 O.2     1  UNL1       -0.2875
      7 C          -0.9839    0.2111   -0.6970 C.3     1  UNL1        0.0784
      8 C          -0.3287   -0.7294    0.2822 C.2     1  UNL1        0.1771
      9 O          -0.9425   -1.5584    0.9961 O.2     1  UNL1       -0.2911
     10 C           1.0942   -0.6464    0.3809 C.ar    1  UNL1        0.0550
     11 C           2.0780    0.1182   -0.2250 C.ar    1  UNL1       -0.0441
     12 C           3.3792   -0.0394    0.0879 C.ar    1  UNL1       -0.0540
     13 C           3.6368   -1.0719    1.1043 C.ar    1  UNL1       -0.0236
     14 S           1.9306   -1.6842    1.4752 S.2     1  UNL1       -0.0938
     15 H          -0.7057    1.2491   -0.3643 H       1  UNL1        0.0426
     16 H          -0.4919    0.0838   -1.6684 H       1  UNL1        0.0426
     17 H           1.6616    0.8140   -0.9399 H       1  UNL1        0.0630
     18 H           4.1180    0.5780   -0.4094 H       1  UNL1        0.0623
     19 H           4.8801   -1.1177    1.3033 H       1  UNL1        0.0693
@<TRIPOS>BOND
     1     1     2    1
     2     2     3    1
     3     2     4    1
     4     2     5    1
     5     5     6    2
     6     5     7    1
     7     7     8    1
     8     8     9    2
     9     8    10    1
    10    10    11   ar
    11    11    12   ar
    12    12    13   ar
    13    13    14   ar
    14    14    10   ar
    15     7    15    1
    16     7    16    1
    17    11    17    1
    18    12    18    1
    19    13    19    1
