
     RDKit          3D

 68 72  0  0  0  0  0  0  0  0999 V2000
    6.4373    5.8568   -2.1253 C   0  0  0  0  0  0  0  0  0  0  0  0
    6.8964    4.8569   -1.2403 O   0  0  0  0  0  0  0  0  0  0  0  0
    6.1363    3.7988   -0.8016 C   0  0  0  0  0  0  0  0  0  0  0  0
    6.7360    2.9051    0.0655 C   0  0  0  0  0  0  0  0  0  0  0  0
    5.9809    1.8447    0.5084 C   0  0  0  0  0  0  0  0  0  0  0  0
    4.6530    1.6806    0.0930 C   0  0  0  0  0  0  0  0  0  0  0  0
    3.9140    0.6119    0.5509 C   0  0  0  0  0  0  0  0  0  0  0  0
    2.6156    0.4102    0.1763 C   0  0  0  0  0  0  0  0  0  0  0  0
    1.9079   -0.7637    0.6579 C   0  0  0  0  0  0  0  0  0  0  0  0
    2.4003   -2.0740    0.5243 C   0  0  0  0  0  0  0  0  0  0  0  0
    1.4932   -2.8875    1.1082 C   0  0  0  0  0  0  0  0  0  0  0  0
    1.5326   -4.3525    1.2413 C   0  0  0  0  0  0  0  0  0  0  0  0
    2.5841   -5.0834    0.7370 C   0  0  0  0  0  0  0  0  0  0  0  0
    2.6515   -6.4541    0.8473 C   0  0  0  0  0  0  0  0  0  0  0  0
    4.0060   -7.3599    0.1931 Cl  0  0  0  0  0  0  0  0  0  0  0  0
    1.6385   -7.1413    1.4833 C   0  0  0  0  0  0  0  0  0  0  0  0
    0.5710   -6.4437    2.0001 C   0  0  0  0  0  0  0  0  0  0  0  0
   -0.7187   -7.3060    2.8106 Cl  0  0  0  0  0  0  0  0  0  0  0  0
    0.5309   -5.0536    1.8725 C   0  0  0  0  0  0  0  0  0  0  0  0
    0.5196   -2.1327    1.5651 N   0  0  0  0  0  0  0  0  0  0  0  0
    0.7617   -0.8345    1.2970 N   0  0  0  0  0  0  0  0  0  0  0  0
   -0.1907    0.1573    1.7500 C   0  0  1  0  0  0  0  0  0  0  0  0
    0.3123    1.5472    1.8407 C   0  0  0  0  0  0  0  0  0  0  0  0
   -1.5145    0.0165    1.1063 C   0  0  0  0  0  0  0  0  0  0  0  0
   -1.9128    0.7468    0.0199 C   0  0  0  0  0  0  0  0  0  0  0  0
   -3.1781    0.5898   -0.5730 C   0  0  0  0  0  0  0  0  0  0  0  0
   -4.0670   -0.3192   -0.0676 C   0  0  0  0  0  0  0  0  0  0  0  0
   -5.3878   -0.5059   -0.6634 C   0  0  0  0  0  0  0  0  0  0  0  0
   -6.1862   -1.3311   -0.0925 O   0  0  0  0  0  0  0  0  0  0  0  0
   -5.8436    0.1592   -1.8234 N   0  0  0  0  0  0  0  0  0  0  0  0
   -7.1571   -0.0594   -2.3606 C   0  0  0  0  0  0  0  0  0  0  0  0
   -8.2269    0.3371   -1.3711 C   0  0  0  0  0  0  0  0  0  0  0  0
   -8.0691    1.7901   -1.0444 C   0  0  0  0  0  0  0  0  0  0  0  0
   -7.1543    2.4333   -1.5897 O   0  0  0  0  0  0  0  0  0  0  0  0
   -8.9163    2.4393   -0.1494 O   0  0  0  0  0  0  0  0  0  0  0  0
   -3.6733   -1.0683    1.0378 C   0  0  0  0  0  0  0  0  0  0  0  0
   -2.4318   -0.9010    1.6040 C   0  0  0  0  0  0  0  0  0  0  0  0
    2.0247    1.2854   -0.6753 C   0  0  0  0  0  0  0  0  0  0  0  0
    2.7565    2.3836   -1.1563 C   0  0  0  0  0  0  0  0  0  0  0  0
    4.0630    2.5726   -0.7691 C   0  0  0  0  0  0  0  0  0  0  0  0
    4.8256    3.6359   -1.2110 C   0  0  0  0  0  0  0  0  0  0  0  0
    5.3858    6.0716   -1.9335 H   0  0  0  0  0  0  0  0  0  0  0  0
    6.6234    5.4559   -3.1552 H   0  0  0  0  0  0  0  0  0  0  0  0
    7.0221    6.8099   -1.9919 H   0  0  0  0  0  0  0  0  0  0  0  0
    7.7715    3.0280    0.3921 H   0  0  0  0  0  0  0  0  0  0  0  0
    6.4215    1.1296    1.1864 H   0  0  0  0  0  0  0  0  0  0  0  0
    4.3810   -0.0811    1.2248 H   0  0  0  0  0  0  0  0  0  0  0  0
    3.3236   -2.3505    0.0463 H   0  0  0  0  0  0  0  0  0  0  0  0
    3.3887   -4.5717    0.2353 H   0  0  0  0  0  0  0  0  0  0  0  0
    1.7122   -8.2294    1.5600 H   0  0  0  0  0  0  0  0  0  0  0  0
   -0.3093   -4.5205    2.2809 H   0  0  0  0  0  0  0  0  0  0  0  0
   -0.3984   -0.1414    2.8471 H   0  0  0  0  0  0  0  0  0  0  0  0
   -0.0066    2.2353    1.0325 H   0  0  0  0  0  0  0  0  0  0  0  0
   -0.1571    2.0194    2.7723 H   0  0  0  0  0  0  0  0  0  0  0  0
    1.3832    1.5574    2.0768 H   0  0  0  0  0  0  0  0  0  0  0  0
   -1.2176    1.4746   -0.3864 H   0  0  0  0  0  0  0  0  0  0  0  0
   -3.4075    1.2134   -1.4322 H   0  0  0  0  0  0  0  0  0  0  0  0
   -5.1600    0.8361   -2.2842 H   0  0  0  0  0  0  0  0  0  0  0  0
   -7.3393   -1.1502   -2.5818 H   0  0  0  0  0  0  0  0  0  0  0  0
   -7.2734    0.5364   -3.2931 H   0  0  0  0  0  0  0  0  0  0  0  0
   -8.1822   -0.2823   -0.4747 H   0  0  0  0  0  0  0  0  0  0  0  0
   -9.2534    0.1940   -1.8325 H   0  0  0  0  0  0  0  0  0  0  0  0
   -9.1740    3.4145   -0.3208 H   0  0  0  0  0  0  0  0  0  0  0  0
   -4.3751   -1.7845    1.4352 H   0  0  0  0  0  0  0  0  0  0  0  0
   -2.1524   -1.4978    2.4641 H   0  0  0  0  0  0  0  0  0  0  0  0
    1.0133    1.2148   -1.0383 H   0  0  0  0  0  0  0  0  0  0  0  0
    2.3205    3.1031   -1.8362 H   0  0  0  0  0  0  0  0  0  0  0  0
    4.3393    4.3275   -1.8904 H   0  0  0  0  0  0  0  0  0  0  0  0
  1  2  1  0
  2  3  1  0
  3  4  2  0
  4  5  1  0
  5  6  2  0
  6  7  1  0
  7  8  2  0
  8  9  1  0
  9 10  2  0
 10 11  1  0
 11 12  1  0
 12 13  2  0
 13 14  1  0
 14 15  1  0
 14 16  2  0
 16 17  1  0
 17 18  1  0
 17 19  2  0
 11 20  2  0
 20 21  1  0
 21 22  1  0
 22 23  1  0
 22 24  1  0
 24 25  2  0
 25 26  1  0
 26 27  2  0
 27 28  1  0
 28 29  2  0
 28 30  1  0
 30 31  1  0
 31 32  1  0
 32 33  1  0
 33 34  2  0
 33 35  1  0
 27 36  1  0
 36 37  2  0
  8 38  1  0
 38 39  2  0
 39 40  1  0
 40 41  2  0
 41  3  1  0
 40  6  1  0
 21  9  1  0
 37 24  1  0
 19 12  1  0
  1 42  1  0
  1 43  1  0
  1 44  1  0
  4 45  1  0
  5 46  1  0
  7 47  1  0
 10 48  1  0
 13 49  1  0
 16 50  1  0
 19 51  1  0
 22 52  1  1
 23 53  1  0
 23 54  1  0
 23 55  1  0
 25 56  1  0
 26 57  1  0
 30 58  1  0
 31 59  1  0
 31 60  1  0
 32 61  1  0
 32 62  1  0
 35 63  1  0
 36 64  1  0
 37 65  1  0
 38 66  1  0
 39 67  1  0
 41 68  1  0
M  END
$$$$
