@<TRIPOS>MOLECULE
*****
 68 72 0 0 0
SMALL
GASTEIGER

@<TRIPOS>ATOM
      1 C           6.4373    5.8568   -2.1253 C.3     1  UNL1        0.0788
      2 O           6.8964    4.8569   -1.2403 O.3     1  UNL1       -0.4951
      3 C           6.1363    3.7988   -0.8016 C.ar    1  UNL1        0.1207
      4 C           6.7360    2.9051    0.0655 C.ar    1  UNL1       -0.0194
      5 C           5.9809    1.8447    0.5084 C.ar    1  UNL1       -0.0506
      6 C           4.6530    1.6806    0.0930 C.ar    1  UNL1       -0.0170
      7 C           3.9140    0.6119    0.5509 C.ar    1  UNL1       -0.0448
      8 C           2.6156    0.4102    0.1763 C.ar    1  UNL1        0.0007
      9 C           1.9079   -0.7637    0.6579 C.ar    1  UNL1        0.0702
     10 C           2.4003   -2.0740    0.5243 C.ar    1  UNL1       -0.0084
     11 C           1.4932   -2.8875    1.1082 C.ar    1  UNL1        0.0934
     12 C           1.5326   -4.3525    1.2413 C.ar    1  UNL1        0.0049
     13 C           2.5841   -5.0834    0.7370 C.ar    1  UNL1       -0.0341
     14 C           2.6515   -6.4541    0.8473 C.ar    1  UNL1        0.0430
     15 CL          4.0060   -7.3599    0.1931 Cl      1  UNL1       -0.0835
     16 C           1.6385   -7.1413    1.4833 C.ar    1  UNL1       -0.0250
     17 C           0.5710   -6.4437    2.0001 C.ar    1  UNL1        0.0430
     18 CL         -0.7187   -7.3060    2.8106 Cl      1  UNL1       -0.0835
     19 C           0.5309   -5.0536    1.8725 C.ar    1  UNL1       -0.0341
     20 N           0.5196   -2.1327    1.5651 N.ar    1  UNL1       -0.1701
     21 N           0.7617   -0.8345    1.2970 N.ar    1  UNL1       -0.2560
     22 C          -0.1907    0.1573    1.7500 C.3     1  UNL1        0.0754
     23 C           0.3123    1.5472    1.8407 C.3     1  UNL1       -0.0384
     24 C          -1.5145    0.0165    1.1063 C.ar    1  UNL1       -0.0233
     25 C          -1.9128    0.7468    0.0199 C.ar    1  UNL1       -0.0558
     26 C          -3.1781    0.5898   -0.5730 C.ar    1  UNL1       -0.0493
     27 C          -4.0670   -0.3192   -0.0676 C.ar    1  UNL1        0.0367
     28 C          -5.3878   -0.5059   -0.6634 C.2     1  UNL1        0.2441
     29 O          -6.1862   -1.3311   -0.0925 O.2     1  UNL1       -0.2702
     30 N          -5.8436    0.1592   -1.8234 N.am    1  UNL1       -0.3108
     31 C          -7.1571   -0.0594   -2.3606 C.3     1  UNL1        0.0220
     32 C          -8.2269    0.3371   -1.3711 C.3     1  UNL1        0.0603
     33 C          -8.0691    1.7901   -1.0444 C.2     1  UNL1        0.3062
     34 O          -7.1543    2.4333   -1.5897 O.2     1  UNL1       -0.2510
     35 O          -8.9163    2.4393   -0.1494 O.3     1  UNL1       -0.4806
     36 C          -3.6733   -1.0683    1.0378 C.ar    1  UNL1       -0.0493
     37 C          -2.4318   -0.9010    1.6040 C.ar    1  UNL1       -0.0558
     38 C           2.0247    1.2854   -0.6753 C.ar    1  UNL1       -0.0520
     39 C           2.7565    2.3836   -1.1563 C.ar    1  UNL1       -0.0533
     40 C           4.0630    2.5726   -0.7691 C.ar    1  UNL1       -0.0144
     41 C           4.8256    3.6359   -1.2110 C.ar    1  UNL1       -0.0122
     42 H           5.3858    6.0716   -1.9335 H       1  UNL1        0.0660
     43 H           6.6234    5.4559   -3.1552 H       1  UNL1        0.0660
     44 H           7.0221    6.8099   -1.9919 H       1  UNL1        0.0660
     45 H           7.7715    3.0280    0.3921 H       1  UNL1        0.0654
     46 H           6.4215    1.1296    1.1864 H       1  UNL1        0.0625
     47 H           4.3810   -0.0811    1.2248 H       1  UNL1        0.0630
     48 H           3.3236   -2.3505    0.0463 H       1  UNL1        0.0661
     49 H           3.3887   -4.5717    0.2353 H       1  UNL1        0.0639
     50 H           1.7122   -8.2294    1.5600 H       1  UNL1        0.0647
     51 H          -0.3093   -4.5205    2.2809 H       1  UNL1        0.0639
     52 H          -0.3984   -0.1414    2.8471 H       1  UNL1        0.0592
     53 H          -0.0066    2.2353    1.0325 H       1  UNL1        0.0253
     54 H          -0.1571    2.0194    2.7723 H       1  UNL1        0.0253
     55 H           1.3832    1.5574    2.0768 H       1  UNL1        0.0253
     56 H          -1.2176    1.4746   -0.3864 H       1  UNL1        0.0621
     57 H          -3.4075    1.2134   -1.4322 H       1  UNL1        0.0625
     58 H          -5.1600    0.8361   -2.2842 H       1  UNL1        0.1490
     59 H          -7.3393   -1.1502   -2.5818 H       1  UNL1        0.0467
     60 H          -7.2734    0.5364   -3.2931 H       1  UNL1        0.0467
     61 H          -8.1822   -0.2823   -0.4747 H       1  UNL1        0.0393
     62 H          -9.2534    0.1940   -1.8325 H       1  UNL1        0.0393
     63 H          -9.1740    3.4145   -0.3208 H       1  UNL1        0.2951
     64 H          -4.3751   -1.7845    1.4352 H       1  UNL1        0.0625
     65 H          -2.1524   -1.4978    2.4641 H       1  UNL1        0.0621
     66 H           1.0133    1.2148   -1.0383 H       1  UNL1        0.0624
     67 H           2.3205    3.1031   -1.8362 H       1  UNL1        0.0624
     68 H           4.3393    4.3275   -1.8904 H       1  UNL1        0.0660
@<TRIPOS>BOND
     1     1     2    1
     2     2     3    1
     3     3     4   ar
     4     4     5   ar
     5     5     6   ar
     6     6     7   ar
     7     7     8   ar
     8     8     9    1
     9     9    10   ar
    10    10    11   ar
    11    11    12    1
    12    12    13   ar
    13    13    14   ar
    14    14    15    1
    15    14    16   ar
    16    16    17   ar
    17    17    18    1
    18    17    19   ar
    19    11    20   ar
    20    20    21   ar
    21    21    22    1
    22    22    23    1
    23    22    24    1
    24    24    25   ar
    25    25    26   ar
    26    26    27   ar
    27    27    28    1
    28    28    29    2
    29    28    30   am
    30    30    31    1
    31    31    32    1
    32    32    33    1
    33    33    34    2
    34    33    35    1
    35    27    36   ar
    36    36    37   ar
    37     8    38   ar
    38    38    39   ar
    39    39    40   ar
    40    40    41   ar
    41    41     3   ar
    42    40     6   ar
    43    21     9   ar
    44    37    24   ar
    45    19    12   ar
    46     1    42    1
    47     1    43    1
    48     1    44    1
    49     4    45    1
    50     5    46    1
    51     7    47    1
    52    10    48    1
    53    13    49    1
    54    16    50    1
    55    19    51    1
    56    22    52    1
    57    23    53    1
    58    23    54    1
    59    23    55    1
    60    25    56    1
    61    26    57    1
    62    30    58    1
    63    31    59    1
    64    31    60    1
    65    32    61    1
    66    32    62    1
    67    35    63    1
    68    36    64    1
    69    37    65    1
    70    38    66    1
    71    39    67    1
    72    41    68    1
