
     RDKit          3D

101107  0  0  0  0  0  0  0  0999 V2000
   -6.0822   -4.2994   -0.7771 C   0  0  0  0  0  0  0  0  0  0  0  0
   -5.1809   -3.2194   -0.7240 O   0  0  0  0  0  0  0  0  0  0  0  0
   -5.5177   -1.9870   -0.2055 C   0  0  0  0  0  0  0  0  0  0  0  0
   -4.6501   -0.9210   -0.1441 C   0  0  0  0  0  0  0  0  0  0  0  0
   -5.0049    0.2968    0.3763 C   0  0  0  0  0  0  0  0  0  0  0  0
   -4.1208    1.4013    0.4167 N   0  0  0  0  0  0  0  0  0  0  0  0
   -2.8868    1.4017   -0.2465 C   0  0  0  0  0  0  0  0  0  0  0  0
   -2.7901    1.8823   -1.4967 N   0  0  0  0  0  0  0  0  0  0  0  0
   -1.6317    1.9075   -2.1695 C   0  0  0  0  0  0  0  0  0  0  0  0
   -0.5097    1.4206   -1.5436 C   0  0  0  0  0  0  0  0  0  0  0  0
   -0.5827    0.9192   -0.2535 C   0  0  0  0  0  0  0  0  0  0  0  0
    0.5169    0.4188    0.4036 O   0  0  0  0  0  0  0  0  0  0  0  0
    1.8005    0.4275   -0.0964 C   0  0  0  0  0  0  0  0  0  0  0  0
    2.4606   -0.7385   -0.4133 C   0  0  0  0  0  0  0  0  0  0  0  0
    3.7453   -0.7062   -0.9133 C   0  0  0  0  0  0  0  0  0  0  0  0
    4.4049    0.4869   -1.1100 C   0  0  0  0  0  0  0  0  0  0  0  0
    5.7233    0.5215   -1.6299 N   0  0  0  0  0  0  0  0  0  0  0  0
    6.8092    0.4512   -0.7164 C   0  0  0  0  0  0  0  0  0  0  0  0
    6.6073    0.3503    0.5201 O   0  0  0  0  0  0  0  0  0  0  0  0
    8.1640    0.4921   -1.1475 N   0  0  0  0  0  0  0  0  0  0  0  0
    9.2798    0.4147   -0.2522 C   0  0  0  0  0  0  0  0  0  0  0  0
    9.8988    1.4445    0.4152 C   0  0  0  0  0  0  0  0  0  0  0  0
   10.9229    0.9110    1.1542 C   0  0  0  0  0  0  0  0  0  0  0  0
   11.8661    1.6751    2.0457 C   0  0  0  0  0  0  0  0  0  0  0  0
   11.0739    2.2784    3.1969 C   0  0  0  0  0  0  0  0  0  0  0  0
   12.5357    2.7805    1.2931 C   0  0  0  0  0  0  0  0  0  0  0  0
   10.9102   -0.4114    0.9280 N   0  0  0  0  0  0  0  0  0  0  0  0
    9.9365   -0.7225    0.0913 N   0  0  0  0  0  0  0  0  0  0  0  0
    9.6226   -2.0326   -0.3881 C   0  0  0  0  0  0  0  0  0  0  0  0
    9.4238   -2.3261   -1.7187 C   0  0  0  0  0  0  0  0  0  0  0  0
    9.1272   -3.6126   -2.1312 C   0  0  0  0  0  0  0  0  0  0  0  0
    9.0245   -4.6334   -1.2089 C   0  0  0  0  0  0  0  0  0  0  0  0
    8.7043   -6.0392   -1.6359 C   0  0  0  0  0  0  0  0  0  0  0  0
    9.2200   -4.3596    0.1280 C   0  0  0  0  0  0  0  0  0  0  0  0
    9.5170   -3.0607    0.5207 C   0  0  0  0  0  0  0  0  0  0  0  0
    3.7304    1.6716   -0.7848 C   0  0  0  0  0  0  0  0  0  0  0  0
    4.4161    2.8537   -0.9716 C   0  0  0  0  0  0  0  0  0  0  0  0
    3.7933    4.0294   -0.6440 C   0  0  0  0  0  0  0  0  0  0  0  0
    2.5140    4.0334   -0.1405 C   0  0  0  0  0  0  0  0  0  0  0  0
    1.8393    2.8451    0.0411 C   0  0  0  0  0  0  0  0  0  0  0  0
    2.4479    1.6237   -0.2856 C   0  0  0  0  0  0  0  0  0  0  0  0
   -1.7893    0.9339    0.3430 N   0  0  0  0  0  0  0  0  0  0  0  0
   -6.2884    0.4287    0.8493 C   0  0  0  0  0  0  0  0  0  0  0  0
   -7.2123   -0.6128    0.8132 C   0  0  0  0  0  0  0  0  0  0  0  0
   -8.5587   -0.3847    1.3202 C   0  0  0  0  0  0  0  0  0  0  0  0
   -8.7843    0.7263    1.8771 O   0  0  0  0  0  0  0  0  0  0  0  0
   -9.6226   -1.3047    1.2322 N   0  0  0  0  0  0  0  0  0  0  0  0
  -10.9766   -1.0831    1.7227 C   0  0  0  0  0  0  0  0  0  0  0  0
  -11.5477    0.0982    0.9936 C   0  0  0  0  0  0  0  0  0  0  0  0
  -12.9102    0.4291    1.3734 N   0  0  0  0  0  0  0  0  0  0  0  0
  -13.3374    1.6403    0.6518 C   0  0  0  0  0  0  0  0  0  0  0  0
  -14.0830    1.2898   -0.6183 C   0  0  0  0  0  0  0  0  0  0  0  0
  -13.4068    0.2400   -1.2293 O   0  0  0  0  0  0  0  0  0  0  0  0
  -13.6915   -0.9220   -0.5073 C   0  0  0  0  0  0  0  0  0  0  0  0
  -13.7631   -0.6785    0.9631 C   0  0  0  0  0  0  0  0  0  0  0  0
   -6.8204   -1.8209    0.2842 C   0  0  0  0  0  0  0  0  0  0  0  0
   -7.0472   -4.0464   -1.2128 H   0  0  0  0  0  0  0  0  0  0  0  0
   -5.5993   -5.1135   -1.3687 H   0  0  0  0  0  0  0  0  0  0  0  0
   -6.1743   -4.7037    0.2698 H   0  0  0  0  0  0  0  0  0  0  0  0
   -3.6264   -1.0232   -0.5205 H   0  0  0  0  0  0  0  0  0  0  0  0
   -4.3670    2.2788    0.9605 H   0  0  0  0  0  0  0  0  0  0  0  0
   -1.5570    2.2888   -3.1613 H   0  0  0  0  0  0  0  0  0  0  0  0
    0.4652    1.4111   -2.0396 H   0  0  0  0  0  0  0  0  0  0  0  0
    1.9801   -1.7189   -0.2758 H   0  0  0  0  0  0  0  0  0  0  0  0
    4.2926   -1.6080   -1.1719 H   0  0  0  0  0  0  0  0  0  0  0  0
    5.8643    0.5954   -2.6418 H   0  0  0  0  0  0  0  0  0  0  0  0
    8.3799    0.5765   -2.1600 H   0  0  0  0  0  0  0  0  0  0  0  0
    9.6095    2.5047    0.3538 H   0  0  0  0  0  0  0  0  0  0  0  0
   12.5744    0.9616    2.4750 H   0  0  0  0  0  0  0  0  0  0  0  0
   11.6709    3.0954    3.6135 H   0  0  0  0  0  0  0  0  0  0  0  0
   10.9422    1.4812    3.9602 H   0  0  0  0  0  0  0  0  0  0  0  0
   10.0793    2.6287    2.8464 H   0  0  0  0  0  0  0  0  0  0  0  0
   13.6381    2.8499    1.4921 H   0  0  0  0  0  0  0  0  0  0  0  0
   12.4164    2.6450    0.1934 H   0  0  0  0  0  0  0  0  0  0  0  0
   12.1107    3.7665    1.5764 H   0  0  0  0  0  0  0  0  0  0  0  0
    9.5050   -1.5222   -2.4538 H   0  0  0  0  0  0  0  0  0  0  0  0
    8.9769   -3.8139   -3.1853 H   0  0  0  0  0  0  0  0  0  0  0  0
    7.6476   -6.2563   -1.4114 H   0  0  0  0  0  0  0  0  0  0  0  0
    9.4004   -6.7379   -1.1174 H   0  0  0  0  0  0  0  0  0  0  0  0
    8.8597   -6.1388   -2.7313 H   0  0  0  0  0  0  0  0  0  0  0  0
    9.1554   -5.1165    0.9036 H   0  0  0  0  0  0  0  0  0  0  0  0
    9.6646   -2.8811    1.5708 H   0  0  0  0  0  0  0  0  0  0  0  0
    5.4277    2.8153   -1.3725 H   0  0  0  0  0  0  0  0  0  0  0  0
    4.3522    4.9638   -0.7984 H   0  0  0  0  0  0  0  0  0  0  0  0
    2.0111    4.9698    0.1223 H   0  0  0  0  0  0  0  0  0  0  0  0
    0.8416    2.8153    0.4512 H   0  0  0  0  0  0  0  0  0  0  0  0
   -6.5699    1.4039    1.2668 H   0  0  0  0  0  0  0  0  0  0  0  0
   -9.3919   -2.2278    0.7660 H   0  0  0  0  0  0  0  0  0  0  0  0
  -10.9785   -0.9126    2.8210 H   0  0  0  0  0  0  0  0  0  0  0  0
  -11.5532   -1.9921    1.4637 H   0  0  0  0  0  0  0  0  0  0  0  0
  -11.4064   -0.0075   -0.0975 H   0  0  0  0  0  0  0  0  0  0  0  0
  -10.9492    1.0068    1.3056 H   0  0  0  0  0  0  0  0  0  0  0  0
  -12.4077    2.1548    0.3388 H   0  0  0  0  0  0  0  0  0  0  0  0
  -13.9134    2.3132    1.3037 H   0  0  0  0  0  0  0  0  0  0  0  0
  -14.0904    2.1774   -1.2827 H   0  0  0  0  0  0  0  0  0  0  0  0
  -15.1138    1.0116   -0.3407 H   0  0  0  0  0  0  0  0  0  0  0  0
  -12.9340   -1.6774   -0.7887 H   0  0  0  0  0  0  0  0  0  0  0  0
  -14.6937   -1.2485   -0.8497 H   0  0  0  0  0  0  0  0  0  0  0  0
  -13.4580   -1.5725    1.5085 H   0  0  0  0  0  0  0  0  0  0  0  0
  -14.7933   -0.4385    1.3114 H   0  0  0  0  0  0  0  0  0  0  0  0
   -7.5278   -2.6300    0.2562 H   0  0  0  0  0  0  0  0  0  0  0  0
  1  2  1  0
  2  3  1  0
  3  4  2  0
  4  5  1  0
  5  6  1  0
  6  7  1  0
  7  8  2  0
  8  9  1  0
  9 10  2  0
 10 11  1  0
 11 12  1  0
 12 13  1  0
 13 14  2  0
 14 15  1  0
 15 16  2  0
 16 17  1  0
 17 18  1  0
 18 19  2  0
 18 20  1  0
 20 21  1  0
 21 22  2  0
 22 23  1  0
 23 24  1  0
 24 25  1  0
 24 26  1  0
 23 27  2  0
 27 28  1  0
 28 29  1  0
 29 30  2  0
 30 31  1  0
 31 32  2  0
 32 33  1  0
 32 34  1  0
 34 35  2  0
 16 36  1  0
 36 37  2  0
 37 38  1  0
 38 39  2  0
 39 40  1  0
 40 41  2  0
 11 42  2  0
  5 43  2  0
 43 44  1  0
 44 45  1  0
 45 46  2  0
 45 47  1  0
 47 48  1  0
 48 49  1  0
 49 50  1  0
 50 51  1  0
 51 52  1  0
 52 53  1  0
 53 54  1  0
 54 55  1  0
 44 56  2  0
 56  3  1  0
 42  7  1  0
 55 50  1  0
 41 13  1  0
 28 21  1  0
 35 29  1  0
 41 36  1  0
  1 57  1  0
  1 58  1  0
  1 59  1  0
  4 60  1  0
  6 61  1  0
  9 62  1  0
 10 63  1  0
 14 64  1  0
 15 65  1  0
 17 66  1  0
 20 67  1  0
 22 68  1  0
 24 69  1  0
 25 70  1  0
 25 71  1  0
 25 72  1  0
 26 73  1  0
 26 74  1  0
 26 75  1  0
 30 76  1  0
 31 77  1  0
 33 78  1  0
 33 79  1  0
 33 80  1  0
 34 81  1  0
 35 82  1  0
 37 83  1  0
 38 84  1  0
 39 85  1  0
 40 86  1  0
 43 87  1  0
 47 88  1  0
 48 89  1  0
 48 90  1  0
 49 91  1  0
 49 92  1  0
 51 93  1  0
 51 94  1  0
 52 95  1  0
 52 96  1  0
 54 97  1  0
 54 98  1  0
 55 99  1  0
 55100  1  0
 56101  1  0
M  END
$$$$
