@<TRIPOS>MOLECULE
*****
 101 107 0 0 0
SMALL
GASTEIGER

@<TRIPOS>ATOM
      1 C          -6.0822   -4.2994   -0.7771 C.3     1  UNL1        0.0788
      2 O          -5.1809   -3.2194   -0.7240 O.3     1  UNL1       -0.4950
      3 C          -5.5177   -1.9870   -0.2055 C.ar    1  UNL1        0.1226
      4 C          -4.6501   -0.9210   -0.1441 C.ar    1  UNL1        0.0013
      5 C          -5.0049    0.2968    0.3763 C.ar    1  UNL1        0.0378
      6 N          -4.1208    1.4013    0.4167 N.pl3   1  UNL1       -0.2834
      7 C          -2.8868    1.4017   -0.2465 C.ar    1  UNL1        0.2226
      8 N          -2.7901    1.8823   -1.4967 N.ar    1  UNL1       -0.2225
      9 C          -1.6317    1.9075   -2.1695 C.ar    1  UNL1        0.0362
     10 C          -0.5097    1.4206   -1.5436 C.ar    1  UNL1        0.0186
     11 C          -0.5827    0.9192   -0.2535 C.ar    1  UNL1        0.2249
     12 O           0.5169    0.4188    0.4036 O.3     1  UNL1       -0.4373
     13 C           1.8005    0.4275   -0.0964 C.ar    1  UNL1        0.1381
     14 C           2.4606   -0.7385   -0.4133 C.ar    1  UNL1       -0.0169
     15 C           3.7453   -0.7062   -0.9133 C.ar    1  UNL1       -0.0363
     16 C           4.4049    0.4869   -1.1100 C.ar    1  UNL1        0.0427
     17 N           5.7233    0.5215   -1.6299 N.am    1  UNL1       -0.2686
     18 C           6.8092    0.4512   -0.7164 C.2     1  UNL1        0.3092
     19 O           6.6073    0.3503    0.5201 O.2     1  UNL1       -0.2521
     20 N           8.1640    0.4921   -1.1475 N.am    1  UNL1       -0.2538
     21 C           9.2798    0.4147   -0.2522 C.ar    1  UNL1        0.1299
     22 C           9.8988    1.4445    0.4152 C.ar    1  UNL1        0.0018
     23 C          10.9229    0.9110    1.1542 C.ar    1  UNL1        0.0679
     24 C          11.8661    1.6751    2.0457 C.3     1  UNL1       -0.0025
     25 C          11.0739    2.2784    3.1969 C.3     1  UNL1       -0.0572
     26 C          12.5357    2.7805    1.2931 C.3     1  UNL1       -0.0572
     27 N          10.9102   -0.4114    0.9280 N.ar    1  UNL1       -0.1694
     28 N           9.9365   -0.7225    0.0913 N.ar    1  UNL1       -0.2181
     29 C           9.6226   -2.0326   -0.3881 C.ar    1  UNL1        0.0674
     30 C           9.4238   -2.3261   -1.7187 C.ar    1  UNL1       -0.0359
     31 C           9.1272   -3.6126   -2.1312 C.ar    1  UNL1       -0.0568
     32 C           9.0245   -4.6334   -1.2089 C.ar    1  UNL1       -0.0503
     33 C           8.7043   -6.0392   -1.6359 C.3     1  UNL1       -0.0397
     34 C           9.2200   -4.3596    0.1280 C.ar    1  UNL1       -0.0568
     35 C           9.5170   -3.0607    0.5207 C.ar    1  UNL1       -0.0359
     36 C           3.7304    1.6716   -0.7848 C.ar    1  UNL1        0.0069
     37 C           4.4161    2.8537   -0.9716 C.ar    1  UNL1       -0.0521
     38 C           3.7933    4.0294   -0.6440 C.ar    1  UNL1       -0.0611
     39 C           2.5140    4.0334   -0.1405 C.ar    1  UNL1       -0.0611
     40 C           1.8393    2.8451    0.0411 C.ar    1  UNL1       -0.0505
     41 C           2.4479    1.6237   -0.2856 C.ar    1  UNL1        0.0262
     42 N          -1.7893    0.9339    0.3430 N.ar    1  UNL1       -0.1789
     43 C          -6.2884    0.4287    0.8493 C.ar    1  UNL1       -0.0281
     44 C          -7.2123   -0.6128    0.8132 C.ar    1  UNL1        0.0419
     45 C          -8.5587   -0.3847    1.3202 C.2     1  UNL1        0.2443
     46 O          -8.7843    0.7263    1.8771 O.2     1  UNL1       -0.2702
     47 N          -9.6226   -1.3047    1.2322 N.am    1  UNL1       -0.3101
     48 C         -10.9766   -1.0831    1.7227 C.3     1  UNL1        0.0247
     49 C         -11.5477    0.0982    0.9936 C.3     1  UNL1        0.0146
     50 N         -12.9102    0.4291    1.3734 N.3     1  UNL1       -0.2965
     51 C         -13.3374    1.6403    0.6518 C.3     1  UNL1        0.0225
     52 C         -14.0830    1.2898   -0.6183 C.3     1  UNL1        0.0604
     53 O         -13.4068    0.2400   -1.2293 O.3     1  UNL1       -0.3772
     54 C         -13.6915   -0.9220   -0.5073 C.3     1  UNL1        0.0604
     55 C         -13.7631   -0.6785    0.9631 C.3     1  UNL1        0.0225
     56 C          -6.8204   -1.8209    0.2842 C.ar    1  UNL1       -0.0077
     57 H          -7.0472   -4.0464   -1.2128 H       1  UNL1        0.0660
     58 H          -5.5993   -5.1135   -1.3687 H       1  UNL1        0.0660
     59 H          -6.1743   -4.7037    0.2698 H       1  UNL1        0.0660
     60 H          -3.6264   -1.0232   -0.5205 H       1  UNL1        0.0673
     61 H          -4.3670    2.2788    0.9605 H       1  UNL1        0.1550
     62 H          -1.5570    2.2888   -3.1613 H       1  UNL1        0.0832
     63 H           0.4652    1.4111   -2.0396 H       1  UNL1        0.0686
     64 H           1.9801   -1.7189   -0.2758 H       1  UNL1        0.0655
     65 H           4.2926   -1.6080   -1.1719 H       1  UNL1        0.0637
     66 H           5.8643    0.5954   -2.6418 H       1  UNL1        0.1564
     67 H           8.3799    0.5765   -2.1600 H       1  UNL1        0.1578
     68 H           9.6095    2.5047    0.3538 H       1  UNL1        0.0671
     69 H          12.5744    0.9616    2.4750 H       1  UNL1        0.0359
     70 H          11.6709    3.0954    3.6135 H       1  UNL1        0.0236
     71 H          10.9422    1.4812    3.9602 H       1  UNL1        0.0236
     72 H          10.0793    2.6287    2.8464 H       1  UNL1        0.0236
     73 H          13.6381    2.8499    1.4921 H       1  UNL1        0.0236
     74 H          12.4164    2.6450    0.1934 H       1  UNL1        0.0236
     75 H          12.1107    3.7665    1.5764 H       1  UNL1        0.0236
     76 H           9.5050   -1.5222   -2.4538 H       1  UNL1        0.0639
     77 H           8.9769   -3.8139   -3.1853 H       1  UNL1        0.0621
     78 H           7.6476   -6.2563   -1.4114 H       1  UNL1        0.0278
     79 H           9.4004   -6.7379   -1.1174 H       1  UNL1        0.0278
     80 H           8.8597   -6.1388   -2.7313 H       1  UNL1        0.0278
     81 H           9.1554   -5.1165    0.9036 H       1  UNL1        0.0621
     82 H           9.6646   -2.8811    1.5708 H       1  UNL1        0.0639
     83 H           5.4277    2.8153   -1.3725 H       1  UNL1        0.0624
     84 H           4.3522    4.9638   -0.7984 H       1  UNL1        0.0618
     85 H           2.0111    4.9698    0.1223 H       1  UNL1        0.0618
     86 H           0.8416    2.8153    0.4512 H       1  UNL1        0.0625
     87 H          -6.5699    1.4039    1.2668 H       1  UNL1        0.0644
     88 H          -9.3919   -2.2278    0.7660 H       1  UNL1        0.1490
     89 H         -10.9785   -0.9126    2.8210 H       1  UNL1        0.0475
     90 H         -11.5532   -1.9921    1.4637 H       1  UNL1        0.0475
     91 H         -11.4064   -0.0075   -0.0975 H       1  UNL1        0.0442
     92 H         -10.9492    1.0068    1.3056 H       1  UNL1        0.0442
     93 H         -12.4077    2.1548    0.3388 H       1  UNL1        0.0449
     94 H         -13.9134    2.3132    1.3037 H       1  UNL1        0.0449
     95 H         -14.0904    2.1774   -1.2827 H       1  UNL1        0.0572
     96 H         -15.1138    1.0116   -0.3407 H       1  UNL1        0.0572
     97 H         -12.9340   -1.6774   -0.7887 H       1  UNL1        0.0572
     98 H         -14.6937   -1.2485   -0.8497 H       1  UNL1        0.0572
     99 H         -13.4580   -1.5725    1.5085 H       1  UNL1        0.0449
    100 H         -14.7933   -0.4385    1.3114 H       1  UNL1        0.0449
    101 H          -7.5278   -2.6300    0.2562 H       1  UNL1        0.0662
@<TRIPOS>BOND
     1     1     2    1
     2     2     3    1
     3     3     4   ar
     4     4     5   ar
     5     5     6    1
     6     6     7    1
     7     7     8   ar
     8     8     9   ar
     9     9    10   ar
    10    10    11   ar
    11    11    12    1
    12    12    13    1
    13    13    14   ar
    14    14    15   ar
    15    15    16   ar
    16    16    17    1
    17    17    18   am
    18    18    19    2
    19    18    20   am
    20    20    21    1
    21    21    22   ar
    22    22    23   ar
    23    23    24    1
    24    24    25    1
    25    24    26    1
    26    23    27   ar
    27    27    28   ar
    28    28    29    1
    29    29    30   ar
    30    30    31   ar
    31    31    32   ar
    32    32    33    1
    33    32    34   ar
    34    34    35   ar
    35    16    36   ar
    36    36    37   ar
    37    37    38   ar
    38    38    39   ar
    39    39    40   ar
    40    40    41   ar
    41    11    42   ar
    42     5    43   ar
    43    43    44   ar
    44    44    45    1
    45    45    46    2
    46    45    47   am
    47    47    48    1
    48    48    49    1
    49    49    50    1
    50    50    51    1
    51    51    52    1
    52    52    53    1
    53    53    54    1
    54    54    55    1
    55    44    56   ar
    56    56     3   ar
    57    42     7   ar
    58    55    50    1
    59    41    13   ar
    60    28    21   ar
    61    35    29   ar
    62    41    36   ar
    63     1    57    1
    64     1    58    1
    65     1    59    1
    66     4    60    1
    67     6    61    1
    68     9    62    1
    69    10    63    1
    70    14    64    1
    71    15    65    1
    72    17    66    1
    73    20    67    1
    74    22    68    1
    75    24    69    1
    76    25    70    1
    77    25    71    1
    78    25    72    1
    79    26    73    1
    80    26    74    1
    81    26    75    1
    82    30    76    1
    83    31    77    1
    84    33    78    1
    85    33    79    1
    86    33    80    1
    87    34    81    1
    88    35    82    1
    89    37    83    1
    90    38    84    1
    91    39    85    1
    92    40    86    1
    93    43    87    1
    94    47    88    1
    95    48    89    1
    96    48    90    1
    97    49    91    1
    98    49    92    1
    99    51    93    1
   100    51    94    1
   101    52    95    1
   102    52    96    1
   103    54    97    1
   104    54    98    1
   105    55    99    1
   106    55   100    1
   107    56   101    1
