@<TRIPOS>MOLECULE
*****
 71 75 0 0 0
SMALL
GASTEIGER

@<TRIPOS>ATOM
      1 N         -10.0281   -3.5917   -0.5242 N.pl3   1  UNL1       -0.3413
      2 C          -8.9174   -2.8182   -0.9186 C.ar    1  UNL1        0.1472
      3 C          -8.5609   -1.6663   -0.2470 C.ar    1  UNL1        0.1473
      4 N          -9.0737   -1.0182    0.8227 N.ar    1  UNL1       -0.2306
      5 C          -8.3036    0.0697    1.0365 C.ar    1  UNL1        0.1004
      6 N          -7.3228    0.1051    0.1164 N.ar    1  UNL1       -0.2855
      7 C          -6.3605    1.1619    0.1163 C.3     1  UNL1        0.1667
      8 O          -5.4051    0.9988   -0.9134 O.3     1  UNL1       -0.3456
      9 C          -4.4440    1.9356   -0.6358 C.3     1  UNL1        0.1134
     10 C          -3.0824    1.5447   -1.2150 C.3     1  UNL1        0.0879
     11 O          -2.6442    0.3485   -0.7024 O.3     1  UNL1       -0.2837
     12 P          -1.1417   -0.1157   -1.3182 P.3     1  UNL1        0.4835
     13 O          -1.2333   -0.5127   -2.9592 O.3     1  UNL1       -0.3022
     14 O          -0.6450   -1.3368   -0.5812 O.2     1  UNL1       -0.2269
     15 O           0.0311    1.0874   -1.1605 O.3     1  UNL1       -0.1861
     16 P           0.2583    1.5401    0.4311 P.3     1  UNL1        0.4835
     17 O          -0.8266    0.7005    1.4135 O.3     1  UNL1       -0.3022
     18 O          -0.1097    3.0227    0.5372 O.2     1  UNL1       -0.2269
     19 O           1.8295    1.3987    0.9789 O.3     1  UNL1       -0.2837
     20 C           2.5795    0.4592    0.3075 C.3     1  UNL1        0.0880
     21 C           3.9550    0.4428    0.9045 C.3     1  UNL1        0.1177
     22 O           4.7865   -0.5036    0.2625 O.3     1  UNL1       -0.3094
     23 C           6.0263   -0.0894    0.7364 C.3     1  UNL1        0.2949
     24 C           6.0648    1.3477    0.3237 C.3     1  UNL1        0.1727
     25 O           6.9700    2.0941    1.0491 O.3     1  UNL1       -0.3803
     26 C           4.6260    1.7857    0.6260 C.3     1  UNL1        0.1184
     27 O           4.5722    2.5111    1.8166 O.3     1  UNL1       -0.3862
     28 N           7.1293   -0.8819    0.2940 N.ar    1  UNL1       -0.1731
     29 C           7.7370   -1.7347    1.1631 C.ar    1  UNL1        0.1738
     30 C           8.8025   -2.5457    0.8579 C.ar    1  UNL1        0.0030
     31 C           9.3083   -2.5058   -0.4228 C.ar    1  UNL1       -0.0364
     32 C           8.6816   -1.6365   -1.2918 C.ar    1  UNL1        0.1223
     33 C           7.6165   -0.8373   -0.9558 C.ar    1  UNL1        0.1877
     34 C           9.1305   -1.5091   -2.6742 C.2     1  UNL1        0.3426
     35 O          10.1937   -2.2300   -3.2158 O.3     1  UNL1       -0.4770
     36 O           8.6253   -0.7409   -3.5548 O.2     1  UNL1       -0.2449
     37 C          -4.3193    2.0633    0.8456 C.3     1  UNL1        0.1135
     38 O          -4.6155    3.3986    1.1861 O.3     1  UNL1       -0.3864
     39 C          -5.4637    1.1743    1.3367 C.3     1  UNL1        0.1285
     40 O          -6.0831    1.6972    2.4543 O.3     1  UNL1       -0.3847
     41 C          -7.4600   -0.9516   -0.6837 C.ar    1  UNL1        0.1674
     42 N          -6.7442   -1.3529   -1.7324 N.ar    1  UNL1       -0.2159
     43 C          -7.0869   -2.4751   -2.3911 C.ar    1  UNL1        0.1205
     44 N          -8.1656   -3.1776   -1.9652 N.ar    1  UNL1       -0.2188
     45 H         -10.9504   -3.3858   -0.9616 H       1  UNL1        0.1438
     46 H         -10.0465   -4.3727    0.1752 H       1  UNL1        0.1438
     47 H          -8.5688    0.7239    1.8714 H       1  UNL1        0.1030
     48 H          -6.8151    2.1797    0.0537 H       1  UNL1        0.0866
     49 H          -4.7573    2.8847   -1.1255 H       1  UNL1        0.0647
     50 H          -2.3415    2.3211   -0.9400 H       1  UNL1        0.0592
     51 H          -3.1366    1.4847   -2.3226 H       1  UNL1        0.0592
     52 H          -0.8584   -1.3933   -3.1594 H       1  UNL1        0.2220
     53 H          -0.3259    0.0791    1.9969 H       1  UNL1        0.2220
     54 H           2.7012    0.8641   -0.7395 H       1  UNL1        0.0592
     55 H           2.1167   -0.5275    0.2327 H       1  UNL1        0.0592
     56 H           3.9607    0.2013    1.9826 H       1  UNL1        0.0648
     57 H           5.9591   -0.1195    1.8403 H       1  UNL1        0.1444
     58 H           6.2603    1.4615   -0.7750 H       1  UNL1        0.0716
     59 H           7.8378    2.1268    0.5774 H       1  UNL1        0.2103
     60 H           4.1748    2.3176   -0.2116 H       1  UNL1        0.0649
     61 H           3.7190    2.3798    2.2991 H       1  UNL1        0.2100
     62 H           7.3441   -1.7764    2.1864 H       1  UNL1        0.1377
     63 H           9.2391   -3.2012    1.5966 H       1  UNL1        0.0677
     64 H          10.1426   -3.1110   -0.7414 H       1  UNL1        0.0629
     65 H           7.1406   -0.1678   -1.6407 H       1  UNL1        0.1386
     66 H          10.9527   -1.7837   -3.7479 H       1  UNL1        0.2954
     67 H          -3.3594    1.7629    1.2662 H       1  UNL1        0.0647
     68 H          -3.7844    3.9261    1.3347 H       1  UNL1        0.2100
     69 H          -5.1225    0.1248    1.4883 H       1  UNL1        0.0665
     70 H          -5.8853    1.1150    3.2273 H       1  UNL1        0.2101
     71 H          -6.4833   -2.7703   -3.2374 H       1  UNL1        0.1048
@<TRIPOS>UNITY_ATOM_ATTR
28 1
charge 1
@<TRIPOS>BOND
     1     1     2    1
     2     2     3   ar
     3     3     4   ar
     4     4     5   ar
     5     5     6   ar
     6     6     7    1
     7     7     8    1
     8     8     9    1
     9     9    10    1
    10    10    11    1
    11    11    12    1
    12    12    13    1
    13    12    14    2
    14    12    15    1
    15    15    16    1
    16    16    17    1
    17    16    18    2
    18    16    19    1
    19    19    20    1
    20    20    21    1
    21    21    22    1
    22    22    23    1
    23    23    24    1
    24    24    25    1
    25    24    26    1
    26    26    27    1
    27    23    28    1
    28    28    29   ar
    29    29    30   ar
    30    30    31   ar
    31    31    32   ar
    32    32    33   ar
    33    32    34    1
    34    34    35    1
    35    34    36    2
    36     9    37    1
    37    37    38    1
    38    37    39    1
    39    39    40    1
    40     6    41   ar
    41    41    42   ar
    42    42    43   ar
    43    43    44   ar
    44    44     2   ar
    45    41     3   ar
    46    39     7    1
    47    26    21    1
    48    33    28   ar
    49     1    45    1
    50     1    46    1
    51     5    47    1
    52     7    48    1
    53     9    49    1
    54    10    50    1
    55    10    51    1
    56    13    52    1
    57    17    53    1
    58    20    54    1
    59    20    55    1
    60    21    56    1
    61    23    57    1
    62    24    58    1
    63    25    59    1
    64    26    60    1
    65    27    61    1
    66    29    62    1
    67    30    63    1
    68    31    64    1
    69    33    65    1
    70    35    66    1
    71    37    67    1
    72    38    68    1
    73    39    69    1
    74    40    70    1
    75    43    71    1
