@<TRIPOS>MOLECULE
*****
 86 88 0 0 0
SMALL
GASTEIGER

@<TRIPOS>ATOM
      1 C          -1.7246    5.9086    0.0372 C.3     1  UNL1       -0.0653
      2 C          -1.2921    4.8086    0.9767 C.3     1  UNL1       -0.0558
      3 C          -0.8179    3.5742    0.2270 C.3     1  UNL1       -0.0512
      4 C          -0.4185    2.5615    1.2683 C.3     1  UNL1       -0.0260
      5 C           0.0747    1.2691    0.6653 C.3     1  UNL1        0.0994
      6 N           1.2374    1.5157   -0.1683 N.am    1  UNL1       -0.3025
      7 C           2.5181    0.9718    0.0528 C.2     1  UNL1        0.2344
      8 O           2.6497    0.2134    1.0564 O.2     1  UNL1       -0.2738
      9 C           3.6919    1.2209   -0.7885 C.3     1  UNL1        0.1079
     10 C           3.5856    0.8106   -2.2021 C.3     1  UNL1        0.0394
     11 C           3.9860   -0.6275   -2.1705 C.3     1  UNL1        0.2664
     12 F           2.9972   -1.3792   -1.5896 F       1  UNL1       -0.2039
     13 F           4.3743   -1.0902   -3.4092 F       1  UNL1       -0.2039
     14 C           5.1950   -0.5693   -1.2180 C.3     1  UNL1        0.0790
     15 N           4.8646    0.4726   -0.2893 N.am    1  UNL1       -0.2825
     16 C           5.5484    0.7545    0.9186 C.2     1  UNL1        0.2364
     17 O           5.0651    1.7393    1.5973 O.2     1  UNL1       -0.2736
     18 C           6.7113    0.0621    1.4556 C.3     1  UNL1        0.0968
     19 C           7.8254    1.0437    1.8377 C.3     1  UNL1       -0.0381
     20 N           7.2315   -1.0165    0.6833 N.am    1  UNL1       -0.3026
     21 C           7.2861   -2.3720    1.1803 C.2     1  UNL1        0.2420
     22 O           6.8598   -2.5982    2.3294 O.2     1  UNL1       -0.2735
     23 C           7.8374   -3.4759    0.3437 C.3     1  UNL1        0.1942
     24 N           8.2701   -2.9860   -0.9428 N.2     1  UNL1        0.0857
     25 N           7.7503   -3.3955   -1.9714 N.2     1  UNL1       -0.0143
     26 N           7.5462   -3.9426   -3.0562 N.2     1  UNL1       -0.3282
     27 C          -1.0370    0.6757   -0.1234 C.2     1  UNL1        0.2339
     28 O          -0.8684    0.4593   -1.3757 O.2     1  UNL1       -0.2738
     29 N          -2.2896    0.3208    0.4026 N.am    1  UNL1       -0.3040
     30 C          -3.3735   -0.2692   -0.3725 C.3     1  UNL1        0.0847
     31 C          -3.4473   -1.6966    0.1110 C.3     1  UNL1       -0.0247
     32 C          -4.5048   -2.5665   -0.4206 C.3     1  UNL1       -0.0390
     33 C          -4.2945   -4.0196    0.1024 C.3     1  UNL1       -0.0501
     34 C          -5.2969   -4.8890   -0.5928 C.3     1  UNL1       -0.0528
     35 C          -6.6987   -4.4011   -0.5960 C.3     1  UNL1       -0.0530
     36 C          -6.8668   -2.9022   -0.7037 C.3     1  UNL1       -0.0528
     37 C          -5.8772   -2.2548    0.2407 C.3     1  UNL1       -0.0501
     38 C          -4.5906    0.4744   -0.5166 C.2     1  UNL1        0.1868
     39 O          -5.3434    0.1030   -1.4614 O.2     1  UNL1       -0.2923
     40 C          -5.1374    1.6130    0.2468 C.3     1  UNL1        0.1492
     41 C          -4.4117    2.2007    1.4245 C.3     1  UNL1       -0.0266
     42 C          -5.9025    2.6858   -0.5378 C.3     1  UNL1        0.0847
     43 O          -6.5215    1.7897    0.2976 O.3     1  UNL1       -0.3605
     44 H          -2.5063    6.5354    0.5234 H       1  UNL1        0.0230
     45 H          -0.8808    6.5364   -0.3150 H       1  UNL1        0.0230
     46 H          -2.2358    5.3985   -0.8227 H       1  UNL1        0.0230
     47 H          -0.4338    5.2255    1.5710 H       1  UNL1        0.0263
     48 H          -2.1476    4.5710    1.6168 H       1  UNL1        0.0263
     49 H          -0.0216    3.8002   -0.4867 H       1  UNL1        0.0266
     50 H          -1.6787    3.2041   -0.3632 H       1  UNL1        0.0266
     51 H           0.3943    2.9529    1.9175 H       1  UNL1        0.0288
     52 H          -1.2540    2.3285    1.9502 H       1  UNL1        0.0288
     53 H           0.3360    0.6047    1.5281 H       1  UNL1        0.0594
     54 H           1.1233    2.1411   -0.9947 H       1  UNL1        0.1495
     55 H           3.9721    2.2859   -0.6836 H       1  UNL1        0.0599
     56 H           2.6427    1.0151   -2.6994 H       1  UNL1        0.0346
     57 H           4.3768    1.3680   -2.7848 H       1  UNL1        0.0346
     58 H           5.3856   -1.5504   -0.7832 H       1  UNL1        0.0523
     59 H           6.0268   -0.1899   -1.8835 H       1  UNL1        0.0523
     60 H           6.3930   -0.3777    2.4465 H       1  UNL1        0.0592
     61 H           7.3107    1.8437    2.4244 H       1  UNL1        0.0252
     62 H           8.5656    0.5834    2.5031 H       1  UNL1        0.0252
     63 H           8.3483    1.4239    0.9529 H       1  UNL1        0.0252
     64 H           7.6109   -0.8895   -0.2773 H       1  UNL1        0.1495
     65 H           7.0379   -4.2472    0.2227 H       1  UNL1        0.0676
     66 H           8.6940   -3.9882    0.8274 H       1  UNL1        0.0676
     67 H          -2.4380    0.4885    1.4189 H       1  UNL1        0.1494
     68 H          -2.8848   -0.3920   -1.4307 H       1  UNL1        0.0578
     69 H          -2.4574   -2.2241   -0.0973 H       1  UNL1        0.0290
     70 H          -3.4753   -1.7273    1.2447 H       1  UNL1        0.0290
     71 H          -4.6061   -2.6280   -1.4997 H       1  UNL1        0.0301
     72 H          -3.2865   -4.3594   -0.1441 H       1  UNL1        0.0268
     73 H          -4.4322   -4.0274    1.1808 H       1  UNL1        0.0268
     74 H          -5.2912   -5.8775   -0.0444 H       1  UNL1        0.0265
     75 H          -4.9553   -5.1699   -1.6309 H       1  UNL1        0.0265
     76 H          -7.2056   -4.8415   -1.4966 H       1  UNL1        0.0265
     77 H          -7.3132   -4.7405    0.2673 H       1  UNL1        0.0265
     78 H          -6.6264   -2.5319   -1.7260 H       1  UNL1        0.0265
     79 H          -7.8865   -2.6413   -0.3918 H       1  UNL1        0.0265
     80 H          -6.0382   -1.2295    0.4903 H       1  UNL1        0.0268
     81 H          -5.8719   -2.8845    1.2005 H       1  UNL1        0.0268
     82 H          -4.9990    3.0907    1.8173 H       1  UNL1        0.0262
     83 H          -3.4532    2.6178    1.1223 H       1  UNL1        0.0262
     84 H          -4.3829    1.5063    2.2833 H       1  UNL1        0.0262
     85 H          -5.7900    3.7391   -0.2782 H       1  UNL1        0.0593
     86 H          -6.0573    2.4602   -1.6244 H       1  UNL1        0.0593
@<TRIPOS>UNITY_ATOM_ATTR
25 1
charge 1
26 1
charge -1
@<TRIPOS>BOND
     1     1     2    1
     2     2     3    1
     3     3     4    1
     4     4     5    1
     5     5     6    1
     6     6     7   am
     7     7     8    2
     8     7     9    1
     9     9    10    1
    10    10    11    1
    11    11    12    1
    12    11    13    1
    13    11    14    1
    14    14    15    1
    15    15    16   am
    16    16    17    2
    17    16    18    1
    18    18    19    1
    19    18    20    1
    20    20    21   am
    21    21    22    2
    22    21    23    1
    23    23    24    1
    24    24    25    2
    25    25    26    2
    26     5    27    1
    27    27    28    2
    28    27    29   am
    29    29    30    1
    30    30    31    1
    31    31    32    1
    32    32    33    1
    33    33    34    1
    34    34    35    1
    35    35    36    1
    36    36    37    1
    37    30    38    1
    38    38    39    2
    39    38    40    1
    40    40    41    1
    41    40    42    1
    42    42    43    1
    43    15     9    1
    44    37    32    1
    45    43    40    1
    46     1    44    1
    47     1    45    1
    48     1    46    1
    49     2    47    1
    50     2    48    1
    51     3    49    1
    52     3    50    1
    53     4    51    1
    54     4    52    1
    55     5    53    1
    56     6    54    1
    57     9    55    1
    58    10    56    1
    59    10    57    1
    60    14    58    1
    61    14    59    1
    62    18    60    1
    63    19    61    1
    64    19    62    1
    65    19    63    1
    66    20    64    1
    67    23    65    1
    68    23    66    1
    69    29    67    1
    70    30    68    1
    71    31    69    1
    72    31    70    1
    73    32    71    1
    74    33    72    1
    75    33    73    1
    76    34    74    1
    77    34    75    1
    78    35    76    1
    79    35    77    1
    80    36    78    1
    81    36    79    1
    82    37    80    1
    83    37    81    1
    84    41    82    1
    85    41    83    1
    86    41    84    1
    87    42    85    1
    88    42    86    1
