
     RDKit          3D

 86 88  0  0  0  0  0  0  0  0999 V2000
   -1.7246    5.9086    0.0372 C   0  0  0  0  0  0  0  0  0  0  0  0
   -1.2921    4.8086    0.9767 C   0  0  0  0  0  0  0  0  0  0  0  0
   -0.8179    3.5742    0.2270 C   0  0  0  0  0  0  0  0  0  0  0  0
   -0.4185    2.5615    1.2683 C   0  0  0  0  0  0  0  0  0  0  0  0
    0.0747    1.2691    0.6653 C   0  0  2  0  0  0  0  0  0  0  0  0
    1.2374    1.5157   -0.1683 N   0  0  0  0  0  0  0  0  0  0  0  0
    2.5181    0.9718    0.0528 C   0  0  0  0  0  0  0  0  0  0  0  0
    2.6497    0.2134    1.0564 O   0  0  0  0  0  0  0  0  0  0  0  0
    3.6919    1.2209   -0.7885 C   0  0  2  0  0  0  0  0  0  0  0  0
    3.5856    0.8106   -2.2021 C   0  0  0  0  0  0  0  0  0  0  0  0
    3.9860   -0.6275   -2.1705 C   0  0  0  0  0  0  0  0  0  0  0  0
    2.9972   -1.3792   -1.5896 F   0  0  0  0  0  0  0  0  0  0  0  0
    4.3743   -1.0902   -3.4092 F   0  0  0  0  0  0  0  0  0  0  0  0
    5.1950   -0.5693   -1.2180 C   0  0  0  0  0  0  0  0  0  0  0  0
    4.8646    0.4726   -0.2893 N   0  0  0  0  0  0  0  0  0  0  0  0
    5.5484    0.7545    0.9186 C   0  0  0  0  0  0  0  0  0  0  0  0
    5.0651    1.7393    1.5973 O   0  0  0  0  0  0  0  0  0  0  0  0
    6.7113    0.0621    1.4556 C   0  0  2  0  0  0  0  0  0  0  0  0
    7.8254    1.0437    1.8377 C   0  0  0  0  0  0  0  0  0  0  0  0
    7.2315   -1.0165    0.6833 N   0  0  0  0  0  0  0  0  0  0  0  0
    7.2861   -2.3720    1.1803 C   0  0  0  0  0  0  0  0  0  0  0  0
    6.8598   -2.5982    2.3294 O   0  0  0  0  0  0  0  0  0  0  0  0
    7.8374   -3.4759    0.3437 C   0  0  0  0  0  0  0  0  0  0  0  0
    8.2701   -2.9860   -0.9428 N   0  0  0  0  0  0  0  0  0  0  0  0
    7.7503   -3.3955   -1.9714 N   0  0  0  0  0  4  0  0  0  0  0  0
    7.5462   -3.9426   -3.0562 N   0  0  0  0  0  2  0  0  0  0  0  0
   -1.0370    0.6757   -0.1234 C   0  0  0  0  0  0  0  0  0  0  0  0
   -0.8684    0.4593   -1.3757 O   0  0  0  0  0  0  0  0  0  0  0  0
   -2.2896    0.3208    0.4026 N   0  0  0  0  0  0  0  0  0  0  0  0
   -3.3735   -0.2692   -0.3725 C   0  0  1  0  0  0  0  0  0  0  0  0
   -3.4473   -1.6966    0.1110 C   0  0  0  0  0  0  0  0  0  0  0  0
   -4.5048   -2.5665   -0.4206 C   0  0  0  0  0  0  0  0  0  0  0  0
   -4.2945   -4.0196    0.1024 C   0  0  0  0  0  0  0  0  0  0  0  0
   -5.2969   -4.8890   -0.5928 C   0  0  0  0  0  0  0  0  0  0  0  0
   -6.6987   -4.4011   -0.5960 C   0  0  0  0  0  0  0  0  0  0  0  0
   -6.8668   -2.9022   -0.7037 C   0  0  0  0  0  0  0  0  0  0  0  0
   -5.8772   -2.2548    0.2407 C   0  0  0  0  0  0  0  0  0  0  0  0
   -4.5906    0.4744   -0.5166 C   0  0  0  0  0  0  0  0  0  0  0  0
   -5.3434    0.1030   -1.4614 O   0  0  0  0  0  0  0  0  0  0  0  0
   -5.1374    1.6130    0.2468 C   0  0  1  0  0  0  0  0  0  0  0  0
   -4.4117    2.2007    1.4245 C   0  0  0  0  0  0  0  0  0  0  0  0
   -5.9025    2.6858   -0.5378 C   0  0  0  0  0  0  0  0  0  0  0  0
   -6.5215    1.7897    0.2976 O   0  0  0  0  0  0  0  0  0  0  0  0
   -2.5063    6.5354    0.5234 H   0  0  0  0  0  0  0  0  0  0  0  0
   -0.8808    6.5364   -0.3150 H   0  0  0  0  0  0  0  0  0  0  0  0
   -2.2358    5.3985   -0.8227 H   0  0  0  0  0  0  0  0  0  0  0  0
   -0.4338    5.2255    1.5710 H   0  0  0  0  0  0  0  0  0  0  0  0
   -2.1476    4.5710    1.6168 H   0  0  0  0  0  0  0  0  0  0  0  0
   -0.0216    3.8002   -0.4867 H   0  0  0  0  0  0  0  0  0  0  0  0
   -1.6787    3.2041   -0.3632 H   0  0  0  0  0  0  0  0  0  0  0  0
    0.3943    2.9529    1.9175 H   0  0  0  0  0  0  0  0  0  0  0  0
   -1.2540    2.3285    1.9502 H   0  0  0  0  0  0  0  0  0  0  0  0
    0.3360    0.6047    1.5281 H   0  0  0  0  0  0  0  0  0  0  0  0
    1.1233    2.1411   -0.9947 H   0  0  0  0  0  0  0  0  0  0  0  0
    3.9721    2.2859   -0.6836 H   0  0  0  0  0  0  0  0  0  0  0  0
    2.6427    1.0151   -2.6994 H   0  0  0  0  0  0  0  0  0  0  0  0
    4.3768    1.3680   -2.7848 H   0  0  0  0  0  0  0  0  0  0  0  0
    5.3856   -1.5504   -0.7832 H   0  0  0  0  0  0  0  0  0  0  0  0
    6.0268   -0.1899   -1.8835 H   0  0  0  0  0  0  0  0  0  0  0  0
    6.3930   -0.3777    2.4465 H   0  0  0  0  0  0  0  0  0  0  0  0
    7.3107    1.8437    2.4244 H   0  0  0  0  0  0  0  0  0  0  0  0
    8.5656    0.5834    2.5031 H   0  0  0  0  0  0  0  0  0  0  0  0
    8.3483    1.4239    0.9529 H   0  0  0  0  0  0  0  0  0  0  0  0
    7.6109   -0.8895   -0.2773 H   0  0  0  0  0  0  0  0  0  0  0  0
    7.0379   -4.2472    0.2227 H   0  0  0  0  0  0  0  0  0  0  0  0
    8.6940   -3.9882    0.8274 H   0  0  0  0  0  0  0  0  0  0  0  0
   -2.4380    0.4885    1.4189 H   0  0  0  0  0  0  0  0  0  0  0  0
   -2.8848   -0.3920   -1.4307 H   0  0  0  0  0  0  0  0  0  0  0  0
   -2.4574   -2.2241   -0.0973 H   0  0  0  0  0  0  0  0  0  0  0  0
   -3.4753   -1.7273    1.2447 H   0  0  0  0  0  0  0  0  0  0  0  0
   -4.6061   -2.6280   -1.4997 H   0  0  0  0  0  0  0  0  0  0  0  0
   -3.2865   -4.3594   -0.1441 H   0  0  0  0  0  0  0  0  0  0  0  0
   -4.4322   -4.0274    1.1808 H   0  0  0  0  0  0  0  0  0  0  0  0
   -5.2912   -5.8775   -0.0444 H   0  0  0  0  0  0  0  0  0  0  0  0
   -4.9553   -5.1699   -1.6309 H   0  0  0  0  0  0  0  0  0  0  0  0
   -7.2056   -4.8415   -1.4966 H   0  0  0  0  0  0  0  0  0  0  0  0
   -7.3132   -4.7405    0.2673 H   0  0  0  0  0  0  0  0  0  0  0  0
   -6.6264   -2.5319   -1.7260 H   0  0  0  0  0  0  0  0  0  0  0  0
   -7.8865   -2.6413   -0.3918 H   0  0  0  0  0  0  0  0  0  0  0  0
   -6.0382   -1.2295    0.4903 H   0  0  0  0  0  0  0  0  0  0  0  0
   -5.8719   -2.8845    1.2005 H   0  0  0  0  0  0  0  0  0  0  0  0
   -4.9990    3.0907    1.8173 H   0  0  0  0  0  0  0  0  0  0  0  0
   -3.4532    2.6178    1.1223 H   0  0  0  0  0  0  0  0  0  0  0  0
   -4.3829    1.5063    2.2833 H   0  0  0  0  0  0  0  0  0  0  0  0
   -5.7900    3.7391   -0.2782 H   0  0  0  0  0  0  0  0  0  0  0  0
   -6.0573    2.4602   -1.6244 H   0  0  0  0  0  0  0  0  0  0  0  0
  1  2  1  0
  2  3  1  0
  3  4  1  0
  4  5  1  0
  5  6  1  0
  6  7  1  0
  7  8  2  0
  7  9  1  0
  9 10  1  0
 10 11  1  0
 11 12  1  0
 11 13  1  0
 11 14  1  0
 14 15  1  0
 15 16  1  0
 16 17  2  0
 16 18  1  0
 18 19  1  0
 18 20  1  0
 20 21  1  0
 21 22  2  0
 21 23  1  0
 23 24  1  0
 24 25  2  0
 25 26  2  0
  5 27  1  0
 27 28  2  0
 27 29  1  0
 29 30  1  0
 30 31  1  0
 31 32  1  0
 32 33  1  0
 33 34  1  0
 34 35  1  0
 35 36  1  0
 36 37  1  0
 30 38  1  0
 38 39  2  0
 38 40  1  0
 40 41  1  1
 40 42  1  0
 42 43  1  0
 15  9  1  0
 37 32  1  0
 43 40  1  0
  1 44  1  0
  1 45  1  0
  1 46  1  0
  2 47  1  0
  2 48  1  0
  3 49  1  0
  3 50  1  0
  4 51  1  0
  4 52  1  0
  5 53  1  1
  6 54  1  0
  9 55  1  6
 10 56  1  0
 10 57  1  0
 14 58  1  0
 14 59  1  0
 18 60  1  1
 19 61  1  0
 19 62  1  0
 19 63  1  0
 20 64  1  0
 23 65  1  0
 23 66  1  0
 29 67  1  0
 30 68  1  6
 31 69  1  0
 31 70  1  0
 32 71  1  0
 33 72  1  0
 33 73  1  0
 34 74  1  0
 34 75  1  0
 35 76  1  0
 35 77  1  0
 36 78  1  0
 36 79  1  0
 37 80  1  0
 37 81  1  0
 41 82  1  0
 41 83  1  0
 41 84  1  0
 42 85  1  0
 42 86  1  0
M  CHG  2  25   1  26  -1
M  END
$$$$
