
     RDKit          3D

 57 58  0  0  0  0  0  0  0  0999 V2000
   -2.2061   -0.6207   -1.8002 C   0  0  0  0  0  0  0  0  0  0  0  0
   -2.8273   -0.3264   -0.5009 C   0  0  0  0  0  0  0  0  0  0  0  0
   -2.1674   -0.0158    0.5699 C   0  0  0  0  0  0  0  0  0  0  0  0
   -0.7354    0.0993    0.6981 C   0  0  0  0  0  0  0  0  0  0  0  0
    0.2303   -0.0541   -0.1386 C   0  0  0  0  0  0  0  0  0  0  0  0
    1.6339    0.1407    0.3184 C   0  0  0  0  0  0  0  0  0  0  0  0
    1.8920    0.4930    1.7062 C   0  0  0  0  0  0  0  0  0  0  0  0
    2.5797   -0.0199   -0.5536 C   0  0  0  0  0  0  0  0  0  0  0  0
    3.9892    0.1349   -0.2628 C   0  0  0  0  0  0  0  0  0  0  0  0
    4.9242   -0.0408   -1.1868 C   0  0  0  0  0  0  0  0  0  0  0  0
    6.3569    0.1043   -0.9408 C   0  0  0  0  0  0  0  0  0  0  0  0
    6.9670    0.4615    0.3474 C   0  0  0  0  0  0  0  0  0  0  0  0
    7.2140   -0.0994   -1.9574 C   0  0  0  0  0  0  0  0  0  0  0  0
    8.6453    0.0116   -1.8477 C   0  0  0  0  0  0  0  0  0  0  0  0
    9.3286   -0.2109   -2.8985 O   0  0  0  0  0  0  0  0  0  0  0  0
    9.3560    0.3333   -0.7250 O   0  0  0  0  0  0  0  0  0  0  0  0
   -2.9064    0.2719    1.8630 C   0  0  0  0  0  0  0  0  0  0  0  0
   -2.0952    1.3116    2.6415 C   0  0  0  0  0  0  0  0  0  0  0  0
   -2.9502   -1.0414    2.6159 C   0  0  0  0  0  0  0  0  0  0  0  0
   -4.2689    0.7989    1.7027 C   0  0  0  0  0  0  0  0  0  0  0  0
   -4.6978    0.9581    0.2547 C   0  0  0  0  0  0  0  0  0  0  0  0
   -4.3371   -0.3900   -0.3813 C   0  0  0  0  0  0  0  0  0  0  0  0
   -4.9660   -0.5899   -1.6483 N   0  0  0  0  0  0  0  0  0  0  0  0
   -5.3927   -1.7779   -2.1156 C   0  0  0  0  0  0  0  0  0  0  0  0
   -5.9358   -1.5512   -3.3603 C   0  0  0  0  0  0  0  0  0  0  0  0
   -5.8352   -0.2483   -3.6323 N   0  0  0  0  0  0  0  0  0  0  0  0
   -5.2401    0.3412   -2.5817 C   0  0  0  0  0  0  0  0  0  0  0  0
   -3.0326   -0.8205   -2.5663 H   0  0  0  0  0  0  0  0  0  0  0  0
   -1.7256    0.2867   -2.1963 H   0  0  0  0  0  0  0  0  0  0  0  0
   -1.5909   -1.5224   -1.8130 H   0  0  0  0  0  0  0  0  0  0  0  0
   -0.3807    0.3712    1.7325 H   0  0  0  0  0  0  0  0  0  0  0  0
    0.0426   -0.3140   -1.1474 H   0  0  0  0  0  0  0  0  0  0  0  0
    2.9371    0.4772    1.9969 H   0  0  0  0  0  0  0  0  0  0  0  0
    1.4053   -0.3012    2.3621 H   0  0  0  0  0  0  0  0  0  0  0  0
    1.3941    1.4640    1.9928 H   0  0  0  0  0  0  0  0  0  0  0  0
    2.3118   -0.2912   -1.5849 H   0  0  0  0  0  0  0  0  0  0  0  0
    4.3279    0.4003    0.7134 H   0  0  0  0  0  0  0  0  0  0  0  0
    4.5475   -0.3090   -2.1754 H   0  0  0  0  0  0  0  0  0  0  0  0
    6.2259    0.6677    1.1397 H   0  0  0  0  0  0  0  0  0  0  0  0
    7.5763    1.4103    0.2738 H   0  0  0  0  0  0  0  0  0  0  0  0
    7.6397   -0.3968    0.6388 H   0  0  0  0  0  0  0  0  0  0  0  0
    6.7491   -0.3650   -2.9123 H   0  0  0  0  0  0  0  0  0  0  0  0
   10.3092    0.1330   -0.5305 H   0  0  0  0  0  0  0  0  0  0  0  0
   -1.4509    0.8077    3.3551 H   0  0  0  0  0  0  0  0  0  0  0  0
   -1.5346    1.9788    1.9824 H   0  0  0  0  0  0  0  0  0  0  0  0
   -2.8104    1.9924    3.1998 H   0  0  0  0  0  0  0  0  0  0  0  0
   -2.0774   -1.1483    3.2967 H   0  0  0  0  0  0  0  0  0  0  0  0
   -2.9193   -1.8748    1.8852 H   0  0  0  0  0  0  0  0  0  0  0  0
   -3.8685   -1.1374    3.2246 H   0  0  0  0  0  0  0  0  0  0  0  0
   -5.0548    0.1761    2.2087 H   0  0  0  0  0  0  0  0  0  0  0  0
   -4.3698    1.7971    2.1886 H   0  0  0  0  0  0  0  0  0  0  0  0
   -4.1028    1.7436   -0.2301 H   0  0  0  0  0  0  0  0  0  0  0  0
   -5.7735    1.1209    0.1812 H   0  0  0  0  0  0  0  0  0  0  0  0
   -4.6009   -1.1655    0.3377 H   0  0  0  0  0  0  0  0  0  0  0  0
   -5.3290   -2.7308   -1.6235 H   0  0  0  0  0  0  0  0  0  0  0  0
   -6.3675   -2.3402   -3.9873 H   0  0  0  0  0  0  0  0  0  0  0  0
   -5.0326    1.4168   -2.5402 H   0  0  0  0  0  0  0  0  0  0  0  0
  1  2  1  0
  2  3  2  0
  3  4  1  0
  4  5  2  0
  5  6  1  0
  6  7  1  0
  6  8  2  0
  8  9  1  0
  9 10  2  0
 10 11  1  0
 11 12  1  0
 11 13  2  0
 13 14  1  0
 14 15  2  0
 14 16  1  0
  3 17  1  0
 17 18  1  0
 17 19  1  0
 17 20  1  0
 20 21  1  0
 21 22  1  0
 22 23  1  0
 23 24  1  0
 24 25  2  0
 25 26  1  0
 26 27  2  0
 22  2  1  0
 27 23  1  0
  1 28  1  0
  1 29  1  0
  1 30  1  0
  4 31  1  0
  5 32  1  0
  7 33  1  0
  7 34  1  0
  7 35  1  0
  8 36  1  0
  9 37  1  0
 10 38  1  0
 12 39  1  0
 12 40  1  0
 12 41  1  0
 13 42  1  0
 16 43  1  0
 18 44  1  0
 18 45  1  0
 18 46  1  0
 19 47  1  0
 19 48  1  0
 19 49  1  0
 20 50  1  0
 20 51  1  0
 21 52  1  0
 21 53  1  0
 22 54  1  0
 24 55  1  0
 25 56  1  0
 27 57  1  0
M  END
$$$$
