@<TRIPOS>MOLECULE
*****
 57 58 0 0 0
SMALL
GASTEIGER

@<TRIPOS>ATOM
      1 C          -2.2061   -0.6207   -1.8002 C.3     1  UNL1       -0.0413
      2 C          -2.8273   -0.3264   -0.5009 C.2     1  UNL1       -0.0464
      3 C          -2.1674   -0.0158    0.5699 C.2     1  UNL1       -0.0408
      4 C          -0.7354    0.0993    0.6981 C.2     1  UNL1       -0.0578
      5 C           0.2303   -0.0541   -0.1386 C.2     1  UNL1       -0.0586
      6 C           1.6339    0.1407    0.3184 C.2     1  UNL1       -0.0504
      7 C           1.8920    0.4930    1.7062 C.3     1  UNL1       -0.0397
      8 C           2.5797   -0.0199   -0.5536 C.2     1  UNL1       -0.0588
      9 C           3.9892    0.1349   -0.2628 C.2     1  UNL1       -0.0613
     10 C           4.9242   -0.0408   -1.1868 C.2     1  UNL1       -0.0586
     11 C           6.3569    0.1043   -0.9408 C.2     1  UNL1       -0.0437
     12 C           6.9670    0.4615    0.3474 C.3     1  UNL1       -0.0395
     13 C           7.2140   -0.0994   -1.9574 C.2     1  UNL1        0.0252
     14 C           8.6453    0.0116   -1.8477 C.2     1  UNL1        0.3298
     15 O           9.3286   -0.2109   -2.8985 O.2     1  UNL1       -0.2458
     16 O           9.3560    0.3333   -0.7250 O.3     1  UNL1       -0.4775
     17 C          -2.9064    0.2719    1.8630 C.3     1  UNL1       -0.0098
     18 C          -2.0952    1.3116    2.6415 C.3     1  UNL1       -0.0558
     19 C          -2.9502   -1.0414    2.6159 C.3     1  UNL1       -0.0558
     20 C          -4.2689    0.7989    1.7027 C.3     1  UNL1       -0.0417
     21 C          -4.6978    0.9581    0.2547 C.3     1  UNL1       -0.0275
     22 C          -4.3371   -0.3900   -0.3813 C.3     1  UNL1        0.0567
     23 N          -4.9660   -0.5899   -1.6483 N.ar    1  UNL1       -0.3297
     24 C          -5.3927   -1.7779   -2.1156 C.ar    1  UNL1        0.0247
     25 C          -5.9358   -1.5512   -3.3603 C.ar    1  UNL1        0.0454
     26 N          -5.8352   -0.2483   -3.6323 N.ar    1  UNL1       -0.2440
     27 C          -5.2401    0.3412   -2.5817 C.ar    1  UNL1        0.0964
     28 H          -3.0326   -0.8205   -2.5663 H       1  UNL1        0.0275
     29 H          -1.7256    0.2867   -2.1963 H       1  UNL1        0.0275
     30 H          -1.5909   -1.5224   -1.8130 H       1  UNL1        0.0275
     31 H          -0.3807    0.3712    1.7325 H       1  UNL1        0.0621
     32 H           0.0426   -0.3140   -1.1474 H       1  UNL1        0.0620
     33 H           2.9371    0.4772    1.9969 H       1  UNL1        0.0278
     34 H           1.4053   -0.3012    2.3621 H       1  UNL1        0.0278
     35 H           1.3941    1.4640    1.9928 H       1  UNL1        0.0278
     36 H           2.3118   -0.2912   -1.5849 H       1  UNL1        0.0620
     37 H           4.3279    0.4003    0.7134 H       1  UNL1        0.0618
     38 H           4.5475   -0.3090   -2.1754 H       1  UNL1        0.0620
     39 H           6.2259    0.6677    1.1397 H       1  UNL1        0.0278
     40 H           7.5763    1.4103    0.2738 H       1  UNL1        0.0278
     41 H           7.6397   -0.3968    0.6388 H       1  UNL1        0.0278
     42 H           6.7491   -0.3650   -2.9123 H       1  UNL1        0.0691
     43 H          10.3092    0.1330   -0.5305 H       1  UNL1        0.2954
     44 H          -1.4509    0.8077    3.3551 H       1  UNL1        0.0238
     45 H          -1.5346    1.9788    1.9824 H       1  UNL1        0.0238
     46 H          -2.8104    1.9924    3.1998 H       1  UNL1        0.0238
     47 H          -2.0774   -1.1483    3.2967 H       1  UNL1        0.0238
     48 H          -2.9193   -1.8748    1.8852 H       1  UNL1        0.0238
     49 H          -3.8685   -1.1374    3.2246 H       1  UNL1        0.0238
     50 H          -5.0548    0.1761    2.2087 H       1  UNL1        0.0274
     51 H          -4.3698    1.7971    2.1886 H       1  UNL1        0.0274
     52 H          -4.1028    1.7436   -0.2301 H       1  UNL1        0.0289
     53 H          -5.7735    1.1209    0.1812 H       1  UNL1        0.0289
     54 H          -4.6009   -1.1655    0.3377 H       1  UNL1        0.0574
     55 H          -5.3290   -2.7308   -1.6235 H       1  UNL1        0.0825
     56 H          -6.3675   -2.3402   -3.9873 H       1  UNL1        0.0845
     57 H          -5.0326    1.4168   -2.5402 H       1  UNL1        0.1029
@<TRIPOS>BOND
     1     1     2    1
     2     2     3    2
     3     3     4    1
     4     4     5    2
     5     5     6    1
     6     6     7    1
     7     6     8    2
     8     8     9    1
     9     9    10    2
    10    10    11    1
    11    11    12    1
    12    11    13    2
    13    13    14    1
    14    14    15    2
    15    14    16    1
    16     3    17    1
    17    17    18    1
    18    17    19    1
    19    17    20    1
    20    20    21    1
    21    21    22    1
    22    22    23    1
    23    23    24   ar
    24    24    25   ar
    25    25    26   ar
    26    26    27   ar
    27    22     2    1
    28    27    23   ar
    29     1    28    1
    30     1    29    1
    31     1    30    1
    32     4    31    1
    33     5    32    1
    34     7    33    1
    35     7    34    1
    36     7    35    1
    37     8    36    1
    38     9    37    1
    39    10    38    1
    40    12    39    1
    41    12    40    1
    42    12    41    1
    43    13    42    1
    44    16    43    1
    45    18    44    1
    46    18    45    1
    47    18    46    1
    48    19    47    1
    49    19    48    1
    50    19    49    1
    51    20    50    1
    52    20    51    1
    53    21    52    1
    54    21    53    1
    55    22    54    1
    56    24    55    1
    57    25    56    1
    58    27    57    1
