@<TRIPOS>MOLECULE
*****
 45 48 0 0 0
SMALL
GASTEIGER

@<TRIPOS>ATOM
      1 C          -0.6763   -3.9785   -0.5954 C.3     1  UNL1       -0.0394
      2 C          -0.0346   -2.7066   -0.2310 C.ar    1  UNL1       -0.0447
      3 C           1.3634   -2.7709   -0.1357 C.ar    1  UNL1       -0.0568
      4 C           2.0781   -1.6439    0.1958 C.ar    1  UNL1       -0.0402
      5 C           1.4741   -0.4294    0.4438 C.ar    1  UNL1        0.0341
      6 N           2.2191    0.7380    0.7876 N.am    1  UNL1       -0.2802
      7 C           2.7153    1.6508   -0.1590 C.2     1  UNL1        0.2666
      8 O           2.4886    1.4225   -1.3681 O.2     1  UNL1       -0.2682
      9 C           3.4765    2.8446    0.1846 C.ar    1  UNL1        0.1257
     10 C           3.9355    3.7001   -0.7924 C.ar    1  UNL1       -0.0298
     11 C           4.6572    4.8383   -0.5243 C.ar    1  UNL1       -0.0397
     12 C           4.9233    5.1173    0.8017 C.ar    1  UNL1        0.0591
     13 CL          5.8362    6.5523    1.1799 Cl      1  UNL1       -0.0820
     14 C           4.4641    4.2604    1.7888 C.ar    1  UNL1        0.0467
     15 N           3.7691    3.1724    1.4597 N.ar    1  UNL1       -0.2489
     16 C           0.1012   -0.4149    0.3384 C.ar    1  UNL1       -0.0345
     17 C          -0.6622   -1.5302    0.0060 C.ar    1  UNL1       -0.0095
     18 C          -2.1696   -1.4522   -0.0911 C.3     1  UNL1        0.1579
     19 C          -2.7236   -2.2239    1.0698 C.3     1  UNL1        0.2685
     20 F          -4.0876   -2.2465    1.1181 F       1  UNL1       -0.2062
     21 F          -2.3341   -1.4953    2.2136 F       1  UNL1       -0.2062
     22 N          -2.4615   -0.0670    0.2181 N.2     1  UNL1       -0.2195
     23 C          -3.5143    0.5588   -0.1269 C.2     1  UNL1        0.2764
     24 N          -3.7248    1.9270    0.2206 N.pl3   1  UNL1       -0.3134
     25 O          -4.4536   -0.1767   -0.8689 O.2     1  UNL1       -0.4622
     26 C          -3.9103   -1.0235   -1.8610 C.3     1  UNL1        0.1091
     27 C          -3.9353   -2.4744   -1.7573 C.3     1  UNL1       -0.0064
     28 C          -2.6861   -1.7702   -1.4201 C.3     1  UNL1        0.0343
     29 H          -0.0106   -4.5741   -1.3000 H       1  UNL1        0.0278
     30 H          -0.6333   -4.6224    0.3357 H       1  UNL1        0.0278
     31 H          -1.6990   -3.9627   -0.9132 H       1  UNL1        0.0278
     32 H           1.8811   -3.7064   -0.3226 H       1  UNL1        0.0621
     33 H           3.1549   -1.7171    0.2634 H       1  UNL1        0.0636
     34 H           2.4029    0.9197    1.7981 H       1  UNL1        0.1552
     35 H           3.7125    3.4572   -1.8251 H       1  UNL1        0.0641
     36 H           5.0132    5.5064   -1.3229 H       1  UNL1        0.0633
     37 H           4.7050    4.5337    2.8074 H       1  UNL1        0.0844
     38 H          -0.4288    0.5206    0.5244 H       1  UNL1        0.0640
     39 H          -2.3277   -3.2165    1.2382 H       1  UNL1        0.1047
     40 H          -4.6754    2.2752    0.3729 H       1  UNL1        0.1466
     41 H          -2.9283    2.5881    0.3246 H       1  UNL1        0.1466
     42 H          -3.9469   -0.5537   -2.8779 H       1  UNL1        0.0737
     43 H          -4.5360   -3.0253   -0.9872 H       1  UNL1        0.0306
     44 H          -3.9323   -3.0405   -2.7189 H       1  UNL1        0.0306
     45 H          -1.8793   -1.7606   -2.2172 H       1  UNL1        0.0366
@<TRIPOS>BOND
     1     1     2    1
     2     2     3   ar
     3     3     4   ar
     4     4     5   ar
     5     5     6    1
     6     6     7   am
     7     7     8    2
     8     7     9    1
     9     9    10   ar
    10    10    11   ar
    11    11    12   ar
    12    12    13    1
    13    12    14   ar
    14    14    15   ar
    15     5    16   ar
    16    16    17   ar
    17    17    18    1
    18    18    19    1
    19    19    20    1
    20    19    21    1
    21    18    22    1
    22    22    23    2
    23    23    24    1
    24    23    25    1
    25    25    26    1
    26    26    27    1
    27    27    28    1
    28    17     2   ar
    29    28    18    1
    30    15     9   ar
    31    28    26    1
    32     1    29    1
    33     1    30    1
    34     1    31    1
    35     3    32    1
    36     4    33    1
    37     6    34    1
    38    10    35    1
    39    11    36    1
    40    14    37    1
    41    16    38    1
    42    19    39    1
    43    24    40    1
    44    24    41    1
    45    26    42    1
    46    27    43    1
    47    27    44    1
    48    28    45    1
