
     RDKit          3D

 45 48  0  0  0  0  0  0  0  0999 V2000
   -0.6763   -3.9785   -0.5954 C   0  0  0  0  0  0  0  0  0  0  0  0
   -0.0346   -2.7066   -0.2310 C   0  0  0  0  0  0  0  0  0  0  0  0
    1.3634   -2.7709   -0.1357 C   0  0  0  0  0  0  0  0  0  0  0  0
    2.0781   -1.6439    0.1958 C   0  0  0  0  0  0  0  0  0  0  0  0
    1.4741   -0.4294    0.4438 C   0  0  0  0  0  0  0  0  0  0  0  0
    2.2191    0.7380    0.7876 N   0  0  0  0  0  0  0  0  0  0  0  0
    2.7153    1.6508   -0.1590 C   0  0  0  0  0  0  0  0  0  0  0  0
    2.4886    1.4225   -1.3681 O   0  0  0  0  0  0  0  0  0  0  0  0
    3.4765    2.8446    0.1846 C   0  0  0  0  0  0  0  0  0  0  0  0
    3.9355    3.7001   -0.7924 C   0  0  0  0  0  0  0  0  0  0  0  0
    4.6572    4.8383   -0.5243 C   0  0  0  0  0  0  0  0  0  0  0  0
    4.9233    5.1173    0.8017 C   0  0  0  0  0  0  0  0  0  0  0  0
    5.8362    6.5523    1.1799 Cl  0  0  0  0  0  0  0  0  0  0  0  0
    4.4641    4.2604    1.7888 C   0  0  0  0  0  0  0  0  0  0  0  0
    3.7691    3.1724    1.4597 N   0  0  0  0  0  0  0  0  0  0  0  0
    0.1012   -0.4149    0.3384 C   0  0  0  0  0  0  0  0  0  0  0  0
   -0.6622   -1.5302    0.0060 C   0  0  0  0  0  0  0  0  0  0  0  0
   -2.1696   -1.4522   -0.0911 C   0  0  1  0  0  0  0  0  0  0  0  0
   -2.7236   -2.2239    1.0698 C   0  0  0  0  0  0  0  0  0  0  0  0
   -4.0876   -2.2465    1.1181 F   0  0  0  0  0  0  0  0  0  0  0  0
   -2.3341   -1.4953    2.2136 F   0  0  0  0  0  0  0  0  0  0  0  0
   -2.4615   -0.0670    0.2181 N   0  0  0  0  0  0  0  0  0  0  0  0
   -3.5143    0.5588   -0.1269 C   0  0  0  0  0  0  0  0  0  0  0  0
   -3.7248    1.9270    0.2206 N   0  0  0  0  0  0  0  0  0  0  0  0
   -4.4536   -0.1767   -0.8689 O   0  0  0  0  0  0  0  0  0  0  0  0
   -3.9103   -1.0235   -1.8610 C   0  0  2  0  0  0  0  0  0  0  0  0
   -3.9353   -2.4744   -1.7573 C   0  0  0  0  0  0  0  0  0  0  0  0
   -2.6861   -1.7702   -1.4201 C   0  0  2  0  0  0  0  0  0  0  0  0
   -0.0106   -4.5741   -1.3000 H   0  0  0  0  0  0  0  0  0  0  0  0
   -0.6333   -4.6224    0.3357 H   0  0  0  0  0  0  0  0  0  0  0  0
   -1.6990   -3.9627   -0.9132 H   0  0  0  0  0  0  0  0  0  0  0  0
    1.8811   -3.7064   -0.3226 H   0  0  0  0  0  0  0  0  0  0  0  0
    3.1549   -1.7171    0.2634 H   0  0  0  0  0  0  0  0  0  0  0  0
    2.4029    0.9197    1.7981 H   0  0  0  0  0  0  0  0  0  0  0  0
    3.7125    3.4572   -1.8251 H   0  0  0  0  0  0  0  0  0  0  0  0
    5.0132    5.5064   -1.3229 H   0  0  0  0  0  0  0  0  0  0  0  0
    4.7050    4.5337    2.8074 H   0  0  0  0  0  0  0  0  0  0  0  0
   -0.4288    0.5206    0.5244 H   0  0  0  0  0  0  0  0  0  0  0  0
   -2.3277   -3.2165    1.2382 H   0  0  0  0  0  0  0  0  0  0  0  0
   -4.6754    2.2752    0.3729 H   0  0  0  0  0  0  0  0  0  0  0  0
   -2.9283    2.5881    0.3246 H   0  0  0  0  0  0  0  0  0  0  0  0
   -3.9469   -0.5537   -2.8779 H   0  0  0  0  0  0  0  0  0  0  0  0
   -4.5360   -3.0253   -0.9872 H   0  0  0  0  0  0  0  0  0  0  0  0
   -3.9323   -3.0405   -2.7189 H   0  0  0  0  0  0  0  0  0  0  0  0
   -1.8793   -1.7606   -2.2172 H   0  0  0  0  0  0  0  0  0  0  0  0
  1  2  1  0
  2  3  2  0
  3  4  1  0
  4  5  2  0
  5  6  1  0
  6  7  1  0
  7  8  2  0
  7  9  1  0
  9 10  2  0
 10 11  1  0
 11 12  2  0
 12 13  1  0
 12 14  1  0
 14 15  2  0
  5 16  1  0
 16 17  2  0
 17 18  1  0
 18 19  1  1
 19 20  1  0
 19 21  1  0
 18 22  1  0
 22 23  2  0
 23 24  1  0
 23 25  1  0
 25 26  1  0
 26 27  1  0
 27 28  1  0
 17  2  1  0
 28 18  1  0
 15  9  1  0
 28 26  1  0
  1 29  1  0
  1 30  1  0
  1 31  1  0
  3 32  1  0
  4 33  1  0
  6 34  1  0
 10 35  1  0
 11 36  1  0
 14 37  1  0
 16 38  1  0
 19 39  1  0
 24 40  1  0
 24 41  1  0
 26 42  1  6
 27 43  1  0
 27 44  1  0
 28 45  1  6
M  END
$$$$
