@<TRIPOS>MOLECULE
*****
 43 45 0 0 0
SMALL
GASTEIGER

@<TRIPOS>ATOM
      1 C          -1.8762   -1.0945    0.3838 C.3     1  UNL1       -0.0352
      2 C          -2.2358    0.3275   -0.0087 C.3     1  UNL1        0.0966
      3 C          -1.0226    1.1803   -0.1021 C.ar    1  UNL1        0.0359
      4 C           0.2706    0.6432    0.0718 C.ar    1  UNL1       -0.0292
      5 C           1.3852    1.4122   -0.0178 C.ar    1  UNL1        0.0525
      6 N           2.6876    0.9316    0.1457 N.am    1  UNL1       -0.2789
      7 C           3.1087   -0.3835    0.4247 C.2     1  UNL1        0.2666
      8 O           2.2538   -1.2865    0.5550 O.2     1  UNL1       -0.2682
      9 C           4.5135   -0.7442    0.5703 C.ar    1  UNL1        0.1258
     10 C           4.8954   -2.0324    0.8418 C.ar    1  UNL1       -0.0285
     11 C           6.2402   -2.3068    0.9673 C.ar    1  UNL1       -0.0228
     12 C           7.1979   -1.3170    0.8257 C.ar    1  UNL1        0.1414
     13 F           8.5241   -1.5590    0.9438 F       1  UNL1       -0.2039
     14 C           6.7669   -0.0381    0.5533 C.ar    1  UNL1        0.0636
     15 N           5.4351    0.2000    0.4356 N.ar    1  UNL1       -0.2475
     16 C           1.1555    2.7691   -0.2940 C.ar    1  UNL1        0.0519
     17 N          -0.0752    3.2711   -0.4577 N.ar    1  UNL1       -0.2255
     18 C          -1.1822    2.5160   -0.3703 C.ar    1  UNL1        0.2188
     19 F          -2.4069    3.1024   -0.5456 F       1  UNL1       -0.1835
     20 C          -2.8838    0.2697   -1.3566 C.3     1  UNL1        0.0224
     21 C          -4.3267   -0.0595   -1.3034 C.3     1  UNL1        0.1997
     22 C          -4.5656   -1.2749   -2.2197 C.3     1  UNL1        0.4266
     23 F          -3.8230   -2.3533   -1.7915 F       1  UNL1       -0.1669
     24 F          -5.8985   -1.5925   -2.2772 F       1  UNL1       -0.1669
     25 F          -4.0693   -0.9269   -3.4699 F       1  UNL1       -0.1669
     26 O          -4.7542   -0.3379   -0.0006 O.2     1  UNL1       -0.4534
     27 C          -4.3702    0.4757    1.0460 C.2     1  UNL1        0.2765
     28 N          -5.2698    0.9094    2.0414 N.pl3   1  UNL1       -0.3134
     29 N          -3.1084    0.8118    1.0442 N.2     1  UNL1       -0.2256
     30 H          -1.2694   -1.1381    1.3166 H       1  UNL1        0.0256
     31 H          -1.3003   -1.6263   -0.3967 H       1  UNL1        0.0256
     32 H          -2.7811   -1.6969    0.5963 H       1  UNL1        0.0256
     33 H           0.3126   -0.4169    0.2785 H       1  UNL1        0.0641
     34 H           3.5189    1.6204    0.0560 H       1  UNL1        0.1552
     35 H           4.1814   -2.8416    0.9613 H       1  UNL1        0.0641
     36 H           6.5929   -3.3198    1.1836 H       1  UNL1        0.0647
     37 H           7.4553    0.7854    0.4297 H       1  UNL1        0.0859
     38 H           2.0221    3.4125   -0.3725 H       1  UNL1        0.0849
     39 H          -2.3407   -0.5012   -1.9647 H       1  UNL1        0.0330
     40 H          -2.7796    1.2762   -1.8497 H       1  UNL1        0.0330
     41 H          -4.9605    0.7955   -1.7003 H       1  UNL1        0.0826
     42 H          -6.1395    0.3691    2.2297 H       1  UNL1        0.1466
     43 H          -5.0780    1.7688    2.5971 H       1  UNL1        0.1466
@<TRIPOS>BOND
     1     2     1    1
     2     2     3    1
     3     3     4   ar
     4     4     5   ar
     5     5     6    1
     6     6     7   am
     7     7     8    2
     8     7     9    1
     9     9    10   ar
    10    10    11   ar
    11    11    12   ar
    12    12    13    1
    13    12    14   ar
    14    14    15   ar
    15     5    16   ar
    16    16    17   ar
    17    17    18   ar
    18    18    19    1
    19     2    20    1
    20    20    21    1
    21    21    22    1
    22    22    23    1
    23    22    24    1
    24    22    25    1
    25    21    26    1
    26    26    27    1
    27    27    28    1
    28    27    29    2
    29    29     2    1
    30    18     3   ar
    31    15     9   ar
    32     1    30    1
    33     1    31    1
    34     1    32    1
    35     4    33    1
    36     6    34    1
    37    10    35    1
    38    11    36    1
    39    14    37    1
    40    16    38    1
    41    20    39    1
    42    20    40    1
    43    21    41    1
    44    28    42    1
    45    28    43    1
