
     RDKit          3D

 43 45  0  0  0  0  0  0  0  0999 V2000
   -1.8762   -1.0945    0.3838 C   0  0  0  0  0  0  0  0  0  0  0  0
   -2.2358    0.3275   -0.0087 C   0  0  1  0  0  0  0  0  0  0  0  0
   -1.0226    1.1803   -0.1021 C   0  0  0  0  0  0  0  0  0  0  0  0
    0.2706    0.6432    0.0718 C   0  0  0  0  0  0  0  0  0  0  0  0
    1.3852    1.4122   -0.0178 C   0  0  0  0  0  0  0  0  0  0  0  0
    2.6876    0.9316    0.1457 N   0  0  0  0  0  0  0  0  0  0  0  0
    3.1087   -0.3835    0.4247 C   0  0  0  0  0  0  0  0  0  0  0  0
    2.2538   -1.2865    0.5550 O   0  0  0  0  0  0  0  0  0  0  0  0
    4.5135   -0.7442    0.5703 C   0  0  0  0  0  0  0  0  0  0  0  0
    4.8954   -2.0324    0.8418 C   0  0  0  0  0  0  0  0  0  0  0  0
    6.2402   -2.3068    0.9673 C   0  0  0  0  0  0  0  0  0  0  0  0
    7.1979   -1.3170    0.8257 C   0  0  0  0  0  0  0  0  0  0  0  0
    8.5241   -1.5590    0.9438 F   0  0  0  0  0  0  0  0  0  0  0  0
    6.7669   -0.0381    0.5533 C   0  0  0  0  0  0  0  0  0  0  0  0
    5.4351    0.2000    0.4356 N   0  0  0  0  0  0  0  0  0  0  0  0
    1.1555    2.7691   -0.2940 C   0  0  0  0  0  0  0  0  0  0  0  0
   -0.0752    3.2711   -0.4577 N   0  0  0  0  0  0  0  0  0  0  0  0
   -1.1822    2.5160   -0.3703 C   0  0  0  0  0  0  0  0  0  0  0  0
   -2.4069    3.1024   -0.5456 F   0  0  0  0  0  0  0  0  0  0  0  0
   -2.8838    0.2697   -1.3566 C   0  0  0  0  0  0  0  0  0  0  0  0
   -4.3267   -0.0595   -1.3034 C   0  0  1  0  0  0  0  0  0  0  0  0
   -4.5656   -1.2749   -2.2197 C   0  0  0  0  0  0  0  0  0  0  0  0
   -3.8230   -2.3533   -1.7915 F   0  0  0  0  0  0  0  0  0  0  0  0
   -5.8985   -1.5925   -2.2772 F   0  0  0  0  0  0  0  0  0  0  0  0
   -4.0693   -0.9269   -3.4699 F   0  0  0  0  0  0  0  0  0  0  0  0
   -4.7542   -0.3379   -0.0006 O   0  0  0  0  0  0  0  0  0  0  0  0
   -4.3702    0.4757    1.0460 C   0  0  0  0  0  0  0  0  0  0  0  0
   -5.2698    0.9094    2.0414 N   0  0  0  0  0  0  0  0  0  0  0  0
   -3.1084    0.8118    1.0442 N   0  0  0  0  0  0  0  0  0  0  0  0
   -1.2694   -1.1381    1.3166 H   0  0  0  0  0  0  0  0  0  0  0  0
   -1.3003   -1.6263   -0.3967 H   0  0  0  0  0  0  0  0  0  0  0  0
   -2.7811   -1.6969    0.5963 H   0  0  0  0  0  0  0  0  0  0  0  0
    0.3126   -0.4169    0.2785 H   0  0  0  0  0  0  0  0  0  0  0  0
    3.5189    1.6204    0.0560 H   0  0  0  0  0  0  0  0  0  0  0  0
    4.1814   -2.8416    0.9613 H   0  0  0  0  0  0  0  0  0  0  0  0
    6.5929   -3.3198    1.1836 H   0  0  0  0  0  0  0  0  0  0  0  0
    7.4553    0.7854    0.4297 H   0  0  0  0  0  0  0  0  0  0  0  0
    2.0221    3.4125   -0.3725 H   0  0  0  0  0  0  0  0  0  0  0  0
   -2.3407   -0.5012   -1.9647 H   0  0  0  0  0  0  0  0  0  0  0  0
   -2.7796    1.2762   -1.8497 H   0  0  0  0  0  0  0  0  0  0  0  0
   -4.9605    0.7955   -1.7003 H   0  0  0  0  0  0  0  0  0  0  0  0
   -6.1395    0.3691    2.2297 H   0  0  0  0  0  0  0  0  0  0  0  0
   -5.0780    1.7688    2.5971 H   0  0  0  0  0  0  0  0  0  0  0  0
  2  1  1  1
  2  3  1  0
  3  4  2  0
  4  5  1  0
  5  6  1  0
  6  7  1  0
  7  8  2  0
  7  9  1  0
  9 10  2  0
 10 11  1  0
 11 12  2  0
 12 13  1  0
 12 14  1  0
 14 15  2  0
  5 16  2  0
 16 17  1  0
 17 18  2  0
 18 19  1  0
  2 20  1  0
 20 21  1  0
 21 22  1  0
 22 23  1  0
 22 24  1  0
 22 25  1  0
 21 26  1  0
 26 27  1  0
 27 28  1  0
 27 29  2  0
 29  2  1  0
 18  3  1  0
 15  9  1  0
  1 30  1  0
  1 31  1  0
  1 32  1  0
  4 33  1  0
  6 34  1  0
 10 35  1  0
 11 36  1  0
 14 37  1  0
 16 38  1  0
 20 39  1  0
 20 40  1  0
 21 41  1  6
 28 42  1  0
 28 43  1  0
M  END
$$$$
