@<TRIPOS>MOLECULE
*****
 44 47 0 0 0
SMALL
GASTEIGER

@<TRIPOS>ATOM
      1 C           0.2516   -3.5525   -0.1181 C.3     1  UNL1       -0.0260
      2 C          -1.0755   -2.8774   -0.0705 C.2     1  UNL1        0.0161
      3 C          -1.1769   -1.5812   -0.0909 C.2     1  UNL1        0.0392
      4 C          -0.0855   -0.6304   -0.1490 C.2     1  UNL1        0.2463
      5 O          -0.4618    0.6264   -0.1732 O.2     1  UNL1       -0.2701
      6 N           1.2958   -0.7543   -0.1843 N.am    1  UNL1       -0.2817
      7 C           2.2696    0.3075   -0.2465 C.ar    1  UNL1        0.0344
      8 C           1.9926    1.6337   -0.2831 C.ar    1  UNL1       -0.0384
      9 C           3.0371    2.5826   -0.3433 C.ar    1  UNL1       -0.0345
     10 C           4.3559    2.2103   -0.3671 C.ar    1  UNL1        0.0658
     11 N           5.5030    2.9147   -0.4221 N.ar    1  UNL1       -0.2770
     12 N           6.5156    2.0323   -0.4205 N.ar    1  UNL1       -0.1812
     13 C           6.0180    0.7921   -0.3655 C.ar    1  UNL1        0.0569
     14 C           4.6436    0.8633   -0.3302 C.ar    1  UNL1        0.0212
     15 C           3.6224   -0.0597   -0.2714 C.ar    1  UNL1       -0.0298
     16 C          -2.5934   -1.0182   -0.1387 C.3     1  UNL1        0.0239
     17 C          -2.6857    0.4178    0.0789 C.ar    1  UNL1       -0.0378
     18 C          -2.9309    1.2533   -0.9907 C.ar    1  UNL1       -0.0565
     19 C          -3.0668    2.6190   -0.8454 C.ar    1  UNL1       -0.0417
     20 C          -2.9545    3.1739    0.4111 C.ar    1  UNL1        0.0593
     21 CL         -3.1274    4.9064    0.5919 Cl      1  UNL1       -0.0820
     22 C          -2.7105    2.3439    1.4763 C.ar    1  UNL1        0.0595
     23 CL         -2.5634    3.0351    3.0935 Cl      1  UNL1       -0.0820
     24 C          -2.5735    0.9762    1.3374 C.ar    1  UNL1       -0.0382
     25 C          -3.4438   -1.8030    0.8169 C.3     1  UNL1        0.0353
     26 C          -3.4677   -3.1921    0.2132 C.2     1  UNL1        0.2179
     27 O          -4.5274   -3.7008   -0.1117 O.2     1  UNL1       -0.2754
     28 N          -2.2040   -3.7937    0.0778 N.am    1  UNL1       -0.2889
     29 H           0.7731   -3.3704   -1.0455 H       1  UNL1        0.0290
     30 H           0.0637   -4.6929   -0.1773 H       1  UNL1        0.0290
     31 H           0.8706   -3.4404    0.7577 H       1  UNL1        0.0290
     32 H           1.6763   -1.7175   -0.1541 H       1  UNL1        0.1551
     33 H           1.0033    2.0373   -0.2696 H       1  UNL1        0.0637
     34 H           2.8074    3.6377   -0.3722 H       1  UNL1        0.0639
     35 H           5.6361    3.9512   -0.4602 H       1  UNL1        0.1889
     36 H           6.5849   -0.1139   -0.3509 H       1  UNL1        0.0854
     37 H           3.8695   -1.1116   -0.2432 H       1  UNL1        0.0643
     38 H          -2.9640   -1.2928   -1.1812 H       1  UNL1        0.0404
     39 H          -3.0311    0.8740   -2.0177 H       1  UNL1        0.0621
     40 H          -3.2599    3.2805   -1.6855 H       1  UNL1        0.0633
     41 H          -2.3817    0.3035    2.1586 H       1  UNL1        0.0635
     42 H          -4.4370   -1.3935    0.9656 H       1  UNL1        0.0368
     43 H          -2.9728   -1.8758    1.8200 H       1  UNL1        0.0368
     44 H          -2.0949   -4.8006    0.0804 H       1  UNL1        0.1545
@<TRIPOS>BOND
     1     1     2    1
     2     2     3    2
     3     3     4    1
     4     4     5    2
     5     4     6   am
     6     6     7    1
     7     7     8   ar
     8     8     9   ar
     9     9    10   ar
    10    10    11   ar
    11    11    12   ar
    12    12    13   ar
    13    13    14   ar
    14    14    15   ar
    15     3    16    1
    16    16    17    1
    17    17    18   ar
    18    18    19   ar
    19    19    20   ar
    20    20    21    1
    21    20    22   ar
    22    22    23    1
    23    22    24   ar
    24    16    25    1
    25    25    26    1
    26    26    27    2
    27    26    28   am
    28    28     2    1
    29    15     7   ar
    30    24    17   ar
    31    14    10   ar
    32     1    29    1
    33     1    30    1
    34     1    31    1
    35     6    32    1
    36     8    33    1
    37     9    34    1
    38    11    35    1
    39    13    36    1
    40    15    37    1
    41    16    38    1
    42    18    39    1
    43    19    40    1
    44    24    41    1
    45    25    42    1
    46    25    43    1
    47    28    44    1
