@<TRIPOS>MOLECULE
*****
 60 62 0 0 0
SMALL
GASTEIGER

@<TRIPOS>ATOM
      1 C           6.4168   -3.7134    1.9957 C.3     1  UNL1       -0.0652
      2 C           7.0188   -2.7965    0.9463 C.3     1  UNL1       -0.0545
      3 C           6.1020   -2.7967   -0.2454 C.3     1  UNL1       -0.0376
      4 C           4.7527   -2.2903    0.1868 C.3     1  UNL1        0.0118
      5 N           3.8680   -2.2915   -0.9478 N.pl3   1  UNL1       -0.3134
      6 C           2.5027   -1.8294   -0.8609 C.ar    1  UNL1        0.2169
      7 N           1.5321   -2.6696   -0.4749 N.ar    1  UNL1       -0.2221
      8 C           0.2582   -2.2502   -0.4008 C.ar    1  UNL1        0.0466
      9 C          -0.1297   -0.9388   -0.7144 C.ar    1  UNL1        0.0948
     10 C          -1.5729   -0.6480   -0.7715 C.2     1  UNL1        0.2530
     11 O          -2.0352    0.2081   -1.5361 O.2     1  UNL1       -0.2697
     12 N          -2.4821   -1.3311    0.0496 N.am    1  UNL1       -0.2814
     13 C          -3.8974   -1.1600    0.1061 C.ar    1  UNL1        0.0337
     14 C          -4.6412   -0.3471   -0.6744 C.ar    1  UNL1       -0.0399
     15 C          -6.0099   -0.2485   -0.5230 C.ar    1  UNL1       -0.0484
     16 C          -6.6531   -0.9848    0.4372 C.ar    1  UNL1        0.0549
     17 C          -8.1229   -0.8497    0.5645 C.3     1  UNL1        0.4174
     18 F          -8.6066   -1.7405    1.4798 F       1  UNL1       -0.1659
     19 F          -8.6759   -1.0170   -0.6913 F       1  UNL1       -0.1659
     20 F          -8.3699    0.4295    1.0245 F       1  UNL1       -0.1659
     21 C          -5.8965   -1.8140    1.2333 C.ar    1  UNL1       -0.0484
     22 C          -4.5387   -1.9171    1.0891 C.ar    1  UNL1       -0.0399
     23 C           0.8514   -0.0855   -1.0996 C.ar    1  UNL1        0.1363
     24 N           0.7211    1.2970   -1.2903 N.pl3   1  UNL1       -0.3255
     25 C          -0.2341    2.3075   -1.0401 C.3     1  UNL1        0.0221
     26 C          -0.7011    2.4440    0.3728 C.3     1  UNL1       -0.0322
     27 C          -1.2649    3.8545    0.5640 C.3     1  UNL1       -0.0252
     28 C          -0.0380    4.7352    0.8377 C.3     1  UNL1        0.0554
     29 O          -0.3522    6.0641    0.6596 O.3     1  UNL1       -0.3918
     30 C           1.0332    4.2797   -0.1420 C.3     1  UNL1       -0.0252
     31 C           0.4214    3.6998   -1.3759 C.3     1  UNL1       -0.0322
     32 N           2.1537   -0.5916   -1.1567 N.ar    1  UNL1       -0.1990
     33 H           5.8715   -3.0772    2.7185 H       1  UNL1        0.0230
     34 H           7.2647   -4.2440    2.4783 H       1  UNL1        0.0230
     35 H           5.7175   -4.4447    1.5630 H       1  UNL1        0.0230
     36 H           8.0370   -3.1289    0.6540 H       1  UNL1        0.0263
     37 H           7.0556   -1.7502    1.3336 H       1  UNL1        0.0263
     38 H           6.0496   -3.7959   -0.7091 H       1  UNL1        0.0280
     39 H           6.5713   -2.1250   -1.0117 H       1  UNL1        0.0280
     40 H           4.8144   -1.3380    0.7294 H       1  UNL1        0.0462
     41 H           4.3690   -3.0555    0.9257 H       1  UNL1        0.0462
     42 H           4.2471   -2.6445   -1.8620 H       1  UNL1        0.1489
     43 H          -0.5352   -2.9369   -0.0973 H       1  UNL1        0.0839
     44 H          -2.0359   -2.0449    0.7023 H       1  UNL1        0.1551
     45 H          -4.1649    0.2541   -1.4550 H       1  UNL1        0.0636
     46 H          -6.5905    0.4195   -1.1709 H       1  UNL1        0.0624
     47 H          -6.4448   -2.3817    1.9849 H       1  UNL1        0.0624
     48 H          -4.0040   -2.5930    1.7547 H       1  UNL1        0.0636
     49 H           1.6304    1.6756   -1.8185 H       1  UNL1        0.1478
     50 H          -1.0709    2.3089   -1.7298 H       1  UNL1        0.0498
     51 H           0.1531    2.3406    1.0851 H       1  UNL1        0.0284
     52 H          -1.4606    1.7028    0.6624 H       1  UNL1        0.0284
     53 H          -1.9706    3.9054    1.4230 H       1  UNL1        0.0291
     54 H          -1.7692    4.1330   -0.3714 H       1  UNL1        0.0291
     55 H           0.2916    4.5006    1.8613 H       1  UNL1        0.0593
     56 H           0.4413    6.6412    0.5657 H       1  UNL1        0.2098
     57 H           1.5770    5.2079   -0.4441 H       1  UNL1        0.0291
     58 H           1.6969    3.5642    0.3553 H       1  UNL1        0.0291
     59 H           1.1958    3.5089   -2.1190 H       1  UNL1        0.0284
     60 H          -0.3467    4.3899   -1.7564 H       1  UNL1        0.0284
@<TRIPOS>BOND
     1     1     2    1
     2     2     3    1
     3     3     4    1
     4     4     5    1
     5     5     6    1
     6     6     7   ar
     7     7     8   ar
     8     8     9   ar
     9     9    10    1
    10    10    11    2
    11    10    12   am
    12    12    13    1
    13    13    14   ar
    14    14    15   ar
    15    15    16   ar
    16    16    17    1
    17    17    18    1
    18    17    19    1
    19    17    20    1
    20    16    21   ar
    21    21    22   ar
    22     9    23   ar
    23    23    24    1
    24    24    25    1
    25    25    26    1
    26    26    27    1
    27    27    28    1
    28    28    29    1
    29    28    30    1
    30    30    31    1
    31    23    32   ar
    32    32     6   ar
    33    22    13   ar
    34    31    25    1
    35     1    33    1
    36     1    34    1
    37     1    35    1
    38     2    36    1
    39     2    37    1
    40     3    38    1
    41     3    39    1
    42     4    40    1
    43     4    41    1
    44     5    42    1
    45     8    43    1
    46    12    44    1
    47    14    45    1
    48    15    46    1
    49    21    47    1
    50    22    48    1
    51    24    49    1
    52    25    50    1
    53    26    51    1
    54    26    52    1
    55    27    53    1
    56    27    54    1
    57    28    55    1
    58    29    56    1
    59    30    57    1
    60    30    58    1
    61    31    59    1
    62    31    60    1
