
     RDKit          3D

 28 28  0  0  0  0  0  0  0  0999 V2000
   -0.8534   -1.1205    1.3504 O   0  0  0  0  0  0  0  0  0  0  0  0
   -0.8933   -0.4406    0.1348 C   0  0  0  0  0  0  0  0  0  0  0  0
    0.3225   -0.7209   -0.7085 C   0  0  0  0  0  0  0  0  0  0  0  0
    1.5997   -0.3253   -0.0603 C   0  0  0  0  0  0  0  0  0  0  0  0
    2.2804   -1.2496    0.7412 C   0  0  0  0  0  0  0  0  0  0  0  0
    3.4414   -0.9651    1.3599 N   0  0  0  0  0  0  0  0  0  0  0  0
    4.0408    0.2360    1.2553 C   0  0  0  0  0  0  0  0  0  0  0  0
    3.4001    1.1916    0.4665 C   0  0  0  0  0  0  0  0  0  0  0  0
    2.2088    0.9088   -0.1720 C   0  0  0  0  0  0  0  0  0  0  0  0
   -2.3341   -1.0956   -0.7580 P   0  0  0  0  0  0  0  0  0  0  0  0
   -2.5175   -2.7423   -0.5015 O   0  0  0  0  0  0  0  0  0  0  0  0
   -3.7543   -0.3010   -0.3067 O   0  0  0  0  0  0  0  0  0  0  0  0
   -2.1762   -0.8628   -2.2449 O   0  0  0  0  0  0  0  0  0  0  0  0
   -1.1331    1.3406    0.3690 P   0  0  0  0  0  0  0  0  0  0  0  0
   -0.9782    2.0752   -1.1584 O   0  0  0  0  0  0  0  0  0  0  0  0
   -2.6946    1.6451    0.9426 O   0  0  0  0  0  0  0  0  0  0  0  0
   -0.0936    1.9437    1.2684 O   0  0  0  0  0  0  0  0  0  0  0  0
   -0.5797   -0.5347    2.1054 H   0  0  0  0  0  0  0  0  0  0  0  0
    0.3280   -1.7744   -1.0548 H   0  0  0  0  0  0  0  0  0  0  0  0
    0.1733   -0.1305   -1.6602 H   0  0  0  0  0  0  0  0  0  0  0  0
    1.8767   -2.2579    0.8918 H   0  0  0  0  0  0  0  0  0  0  0  0
    4.9720    0.5140    1.7315 H   0  0  0  0  0  0  0  0  0  0  0  0
    3.8475    2.1705    0.3553 H   0  0  0  0  0  0  0  0  0  0  0  0
    1.7114    1.6477   -0.7836 H   0  0  0  0  0  0  0  0  0  0  0  0
   -3.4822   -2.9550   -0.4381 H   0  0  0  0  0  0  0  0  0  0  0  0
   -4.2895   -0.8657    0.2985 H   0  0  0  0  0  0  0  0  0  0  0  0
   -1.7159    2.7077   -1.3242 H   0  0  0  0  0  0  0  0  0  0  0  0
   -2.7072    1.9611    1.8780 H   0  0  0  0  0  0  0  0  0  0  0  0
  1  2  1  0
  2  3  1  0
  3  4  1  0
  4  5  2  0
  5  6  1  0
  6  7  2  0
  7  8  1  0
  8  9  2  0
  2 10  1  0
 10 11  1  0
 10 12  1  0
 10 13  2  0
  2 14  1  0
 14 15  1  0
 14 16  1  0
 14 17  2  0
  9  4  1  0
  1 18  1  0
  3 19  1  0
  3 20  1  0
  5 21  1  0
  7 22  1  0
  8 23  1  0
  9 24  1  0
 11 25  1  0
 12 26  1  0
 15 27  1  0
 16 28  1  0
M  END
$$$$
