@<TRIPOS>MOLECULE
*****
 50 54 0 0 0
SMALL
GASTEIGER

@<TRIPOS>ATOM
      1 C           6.7591   -3.4640    0.2595 C.3     1  UNL1        0.0302
      2 N           5.7106   -2.4755    0.0703 N.ar    1  UNL1       -0.2733
      3 C           5.8741   -1.2162   -0.3648 C.ar    1  UNL1        0.0335
      4 C           4.6295   -0.5799   -0.4126 C.ar    1  UNL1        0.0275
      5 C           3.7271   -1.5323    0.0177 C.ar    1  UNL1        0.1004
      6 N           4.4184   -2.6565    0.2975 N.ar    1  UNL1       -0.1709
      7 C           2.3203   -1.1715    0.0803 C.ar    1  UNL1        0.0029
      8 C           1.4906   -1.9099   -0.7250 C.ar    1  UNL1       -0.0490
      9 C           0.1349   -1.6564   -0.7489 C.ar    1  UNL1       -0.0193
     10 C          -0.3592   -0.6493    0.0517 C.ar    1  UNL1        0.1211
     11 O          -1.7280   -0.4237    0.0007 O.3     1  UNL1       -0.4859
     12 C          -2.2883    0.5827    0.7883 C.3     1  UNL1        0.1313
     13 C          -3.7603    0.6972    0.6173 C.ar    1  UNL1        0.0792
     14 N          -4.5660    1.5673    1.2286 N.ar    1  UNL1       -0.2482
     15 C          -5.8907    1.5703    0.9871 C.ar    1  UNL1        0.0714
     16 C          -6.6829    2.4953    1.6486 C.ar    1  UNL1       -0.0357
     17 C          -8.0596    2.5209    1.4171 C.ar    1  UNL1       -0.0597
     18 C          -8.6753    1.6478    0.5411 C.ar    1  UNL1       -0.0611
     19 C          -7.8708    0.7158   -0.1243 C.ar    1  UNL1       -0.0526
     20 C          -6.5082    0.6863    0.1014 C.ar    1  UNL1        0.0004
     21 C          -5.7108   -0.2208   -0.5437 C.ar    1  UNL1       -0.0508
     22 C          -4.3612   -0.1937   -0.2715 C.ar    1  UNL1       -0.0365
     23 C           0.4677    0.1157    0.8799 C.ar    1  UNL1       -0.0193
     24 C           1.8215   -0.1500    0.8928 C.ar    1  UNL1       -0.0490
     25 C           4.4748    0.8144   -0.8491 C.ar    1  UNL1       -0.0115
     26 C           3.7392    1.2226   -1.9550 C.ar    1  UNL1       -0.0358
     27 C           3.7061    2.5758   -2.2142 C.ar    1  UNL1        0.0281
     28 N           4.3408    3.4893   -1.4591 N.ar    1  UNL1       -0.2632
     29 C           5.0487    3.0671   -0.3903 C.ar    1  UNL1        0.0281
     30 C           5.1351    1.7269   -0.0574 C.ar    1  UNL1       -0.0358
     31 H           6.4986   -4.1503    1.0928 H       1  UNL1        0.0473
     32 H           6.9065   -4.0643   -0.6713 H       1  UNL1        0.0473
     33 H           7.7128   -2.9536    0.4797 H       1  UNL1        0.0473
     34 H           6.8319   -0.7936   -0.6279 H       1  UNL1        0.0832
     35 H           1.8538   -2.7081   -1.3646 H       1  UNL1        0.0625
     36 H          -0.5211   -2.2383   -1.3842 H       1  UNL1        0.0654
     37 H          -1.8341    1.5724    0.7035 H       1  UNL1        0.0763
     38 H          -2.1191    0.2668    1.8586 H       1  UNL1        0.0763
     39 H          -6.2842    3.2068    2.3428 H       1  UNL1        0.0639
     40 H          -8.7057    3.2450    1.9300 H       1  UNL1        0.0618
     41 H          -9.7276    1.6339    0.3351 H       1  UNL1        0.0618
     42 H          -8.3138    0.0008   -0.8307 H       1  UNL1        0.0624
     43 H          -6.1103   -0.9404   -1.2453 H       1  UNL1        0.0625
     44 H          -3.7472   -0.9252   -0.7962 H       1  UNL1        0.0637
     45 H           0.0481    0.8969    1.4949 H       1  UNL1        0.0654
     46 H           2.5173    0.4026    1.5093 H       1  UNL1        0.0625
     47 H           3.2473    0.4520   -2.5302 H       1  UNL1        0.0639
     48 H           3.1313    2.8882   -3.0765 H       1  UNL1        0.0830
     49 H           5.5557    3.8330    0.2074 H       1  UNL1        0.0830
     50 H           5.7224    1.5047    0.8089 H       1  UNL1        0.0639
@<TRIPOS>BOND
     1     1     2    1
     2     2     3   ar
     3     3     4   ar
     4     4     5   ar
     5     5     6   ar
     6     5     7    1
     7     7     8   ar
     8     8     9   ar
     9     9    10   ar
    10    10    11    1
    11    11    12    1
    12    12    13    1
    13    13    14   ar
    14    14    15   ar
    15    15    16   ar
    16    16    17   ar
    17    17    18   ar
    18    18    19   ar
    19    19    20   ar
    20    20    21   ar
    21    21    22   ar
    22    10    23   ar
    23    23    24   ar
    24     4    25    1
    25    25    26   ar
    26    26    27   ar
    27    27    28   ar
    28    28    29   ar
    29    29    30   ar
    30     6     2   ar
    31    24     7   ar
    32    30    25   ar
    33    22    13   ar
    34    20    15   ar
    35     1    31    1
    36     1    32    1
    37     1    33    1
    38     3    34    1
    39     8    35    1
    40     9    36    1
    41    12    37    1
    42    12    38    1
    43    16    39    1
    44    17    40    1
    45    18    41    1
    46    19    42    1
    47    21    43    1
    48    22    44    1
    49    23    45    1
    50    24    46    1
    51    26    47    1
    52    27    48    1
    53    29    49    1
    54    30    50    1
