@<TRIPOS>MOLECULE
*****
 58 60 0 0 0
SMALL
GASTEIGER

@<TRIPOS>ATOM
      1 C          -4.6642    2.0775    3.2272 C.3     1  UNL1       -0.0627
      2 C          -4.1341    1.7727    1.7884 C.3     1  UNL1       -0.0467
      3 C          -2.7194    2.2875    1.8008 C.3     1  UNL1       -0.0627
      4 C          -4.2477    0.3017    1.5792 C.3     1  UNL1       -0.0506
      5 C          -3.8593   -0.2739    0.2700 C.3     1  UNL1       -0.0508
      6 C          -2.4495   -0.0685   -0.1075 C.3     1  UNL1       -0.0263
      7 C          -2.1158   -0.7234   -1.4628 C.3     1  UNL1        0.1108
      8 N          -0.7517   -0.4566   -1.7049 N.3     1  UNL1       -0.2910
      9 CA         -0.1130   -0.9908   -2.8469 C.3     1  UNL1        0.1103
     10 C           1.0716   -0.0824   -3.2670 C.3     1  UNL1       -0.0017
     11 C           2.0688    0.0187   -2.1450 C.ar    1  UNL1       -0.0418
     12 C           3.1254   -0.8611   -2.0557 C.ar    1  UNL1       -0.0577
     13 C           4.0255   -0.7381   -1.0000 C.ar    1  UNL1       -0.0501
     14 C           3.8750    0.2503   -0.0439 C.ar    1  UNL1        0.0279
     15 C           2.8238    1.1399   -0.1169 C.ar    1  UNL1        0.1365
     16 C           1.9386    1.0003   -1.1759 C.ar    1  UNL1       -0.0155
     17 O           2.9140    1.9631    0.8992 O.2     1  UNL1       -0.4548
     18 C           3.9386    1.7134    1.6633 C.ar    1  UNL1        0.1362
     19 C           4.4650    2.2626    2.8163 C.ar    1  UNL1       -0.0187
     20 C           5.5983    1.7521    3.3985 C.ar    1  UNL1       -0.0582
     21 C           6.2493    0.6613    2.8378 C.ar    1  UNL1       -0.0610
     22 C           5.7147    0.1214    1.6868 C.ar    1  UNL1       -0.0504
     23 C           4.5781    0.6161    1.0835 C.ar    1  UNL1        0.0279
     24 C           0.5663   -2.3059   -2.5999 C.2     1  UNL1        0.3223
     25 O           0.6532   -2.7889   -1.4593 O.2     1  UNL1       -0.2492
     26 OXT         1.0984   -2.9734   -3.6921 O.3     1  UNL1       -0.4795
     27 P          -2.5901   -2.4250   -1.5513 P.3     1  UNL1        0.3445
     28 O          -4.1291   -2.5684   -1.6744 O.2     1  UNL1       -0.2572
     29 O          -2.0593   -3.3611   -0.2425 O.3     1  UNL1       -0.3230
     30 O          -1.9868   -3.1236   -2.9656 O.3     1  UNL1       -0.3230
     31 H          -5.7071    1.7614    3.3191 H       1  UNL1        0.0232
     32 H          -4.0061    1.4991    3.9085 H       1  UNL1        0.0232
     33 H          -4.4820    3.1459    3.4276 H       1  UNL1        0.0232
     34 H          -4.8031    2.3572    1.1256 H       1  UNL1        0.0295
     35 H          -1.9685    1.5018    1.9578 H       1  UNL1        0.0232
     36 H          -2.4600    2.9169    0.9243 H       1  UNL1        0.0232
     37 H          -2.5994    3.0285    2.6670 H       1  UNL1        0.0232
     38 H          -3.6776   -0.2088    2.4341 H       1  UNL1        0.0268
     39 H          -5.3282    0.0114    1.8015 H       1  UNL1        0.0268
     40 H          -4.5744    0.1827   -0.4908 H       1  UNL1        0.0266
     41 H          -4.1569   -1.3566    0.3028 H       1  UNL1        0.0266
     42 H          -1.7501   -0.4361    0.6402 H       1  UNL1        0.0286
     43 H          -2.2534    1.0038   -0.3024 H       1  UNL1        0.0286
     44 H          -2.7014   -0.1697   -2.2486 H       1  UNL1        0.0586
     45 H          -0.1625   -0.3100   -0.8812 H       1  UNL1        0.1235
     46 HA         -0.7807   -1.0376   -3.7076 H       1  UNL1        0.0579
     47 H           1.5207   -0.5661   -4.1548 H       1  UNL1        0.0334
     48 H           0.6949    0.9094   -3.5840 H       1  UNL1        0.0334
     49 H           3.2906   -1.6478   -2.7766 H       1  UNL1        0.0621
     50 H           4.8721   -1.4007   -0.8808 H       1  UNL1        0.0625
     51 H           1.1145    1.6892   -1.2428 H       1  UNL1        0.0657
     52 H           3.9884    3.1075    3.2790 H       1  UNL1        0.0654
     53 H           6.0103    2.1966    4.3174 H       1  UNL1        0.0619
     54 H           7.1434    0.2685    3.3082 H       1  UNL1        0.0618
     55 H           6.1950   -0.7302    1.2205 H       1  UNL1        0.0625
     56 HXT         1.8166   -3.6675   -3.5827 H       1  UNL1        0.2951
     57 H          -1.7328   -4.2587   -0.5504 H       1  UNL1        0.2198
     58 H          -2.3868   -3.9874   -3.1701 H       1  UNL1        0.2198
@<TRIPOS>BOND
     1     1     2    1
     2     2     3    1
     3     2     4    1
     4     4     5    1
     5     5     6    1
     6     6     7    1
     7     7     8    1
     8     8     9    1
     9     9    10    1
    10    10    11    1
    11    11    12   ar
    12    12    13   ar
    13    13    14   ar
    14    14    15   ar
    15    15    16   ar
    16    15    17   ar
    17    17    18   ar
    18    18    19   ar
    19    19    20   ar
    20    20    21   ar
    21    21    22   ar
    22    22    23   ar
    23     9    24    1
    24    24    25    2
    25    24    26    1
    26     7    27    1
    27    27    28    2
    28    27    29    1
    29    27    30    1
    30    16    11   ar
    31    23    18   ar
    32    23    14   ar
    33     1    31    1
    34     1    32    1
    35     1    33    1
    36     2    34    1
    37     3    35    1
    38     3    36    1
    39     3    37    1
    40     4    38    1
    41     4    39    1
    42     5    40    1
    43     5    41    1
    44     6    42    1
    45     6    43    1
    46     7    44    1
    47     8    45    1
    48     9    46    1
    49    10    47    1
    50    10    48    1
    51    12    49    1
    52    13    50    1
    53    16    51    1
    54    19    52    1
    55    20    53    1
    56    21    54    1
    57    22    55    1
    58    26    56    1
    59    29    57    1
    60    30    58    1
