
     RDKit          3D

 58 60  0  0  0  0  0  0  0  0999 V2000
   -4.6642    2.0775    3.2272 C   0  0  0  0  0  0  0  0  0  0  0  0
   -4.1341    1.7727    1.7884 C   0  0  0  0  0  0  0  0  0  0  0  0
   -2.7194    2.2875    1.8008 C   0  0  0  0  0  0  0  0  0  0  0  0
   -4.2477    0.3017    1.5792 C   0  0  0  0  0  0  0  0  0  0  0  0
   -3.8593   -0.2739    0.2700 C   0  0  0  0  0  0  0  0  0  0  0  0
   -2.4495   -0.0685   -0.1075 C   0  0  0  0  0  0  0  0  0  0  0  0
   -2.1158   -0.7234   -1.4628 C   0  0  0  0  0  0  0  0  0  0  0  0
   -0.7517   -0.4566   -1.7049 N   0  0  0  0  0  0  0  0  0  0  0  0
   -0.1130   -0.9908   -2.8469 C   0  0  1  0  0  0  0  0  0  0  0  0
    1.0716   -0.0824   -3.2670 C   0  0  0  0  0  0  0  0  0  0  0  0
    2.0688    0.0187   -2.1450 C   0  0  0  0  0  0  0  0  0  0  0  0
    3.1254   -0.8611   -2.0557 C   0  0  0  0  0  0  0  0  0  0  0  0
    4.0255   -0.7381   -1.0000 C   0  0  0  0  0  0  0  0  0  0  0  0
    3.8750    0.2503   -0.0439 C   0  0  0  0  0  0  0  0  0  0  0  0
    2.8238    1.1399   -0.1169 C   0  0  0  0  0  0  0  0  0  0  0  0
    1.9386    1.0003   -1.1759 C   0  0  0  0  0  0  0  0  0  0  0  0
    2.9140    1.9631    0.8992 O   0  0  0  0  0  0  0  0  0  0  0  0
    3.9386    1.7134    1.6633 C   0  0  0  0  0  0  0  0  0  0  0  0
    4.4650    2.2626    2.8163 C   0  0  0  0  0  0  0  0  0  0  0  0
    5.5983    1.7521    3.3985 C   0  0  0  0  0  0  0  0  0  0  0  0
    6.2493    0.6613    2.8378 C   0  0  0  0  0  0  0  0  0  0  0  0
    5.7147    0.1214    1.6868 C   0  0  0  0  0  0  0  0  0  0  0  0
    4.5781    0.6161    1.0835 C   0  0  0  0  0  0  0  0  0  0  0  0
    0.5663   -2.3059   -2.5999 C   0  0  0  0  0  0  0  0  0  0  0  0
    0.6532   -2.7889   -1.4593 O   0  0  0  0  0  0  0  0  0  0  0  0
    1.0984   -2.9734   -3.6921 O   0  0  0  0  0  0  0  0  0  0  0  0
   -2.5901   -2.4250   -1.5513 P   0  0  0  0  0  5  0  0  0  0  0  0
   -4.1291   -2.5684   -1.6744 O   0  0  0  0  0  0  0  0  0  0  0  0
   -2.0593   -3.3611   -0.2425 O   0  0  0  0  0  0  0  0  0  0  0  0
   -1.9868   -3.1236   -2.9656 O   0  0  0  0  0  0  0  0  0  0  0  0
   -5.7071    1.7614    3.3191 H   0  0  0  0  0  0  0  0  0  0  0  0
   -4.0061    1.4991    3.9085 H   0  0  0  0  0  0  0  0  0  0  0  0
   -4.4820    3.1459    3.4276 H   0  0  0  0  0  0  0  0  0  0  0  0
   -4.8031    2.3572    1.1256 H   0  0  0  0  0  0  0  0  0  0  0  0
   -1.9685    1.5018    1.9578 H   0  0  0  0  0  0  0  0  0  0  0  0
   -2.4600    2.9169    0.9243 H   0  0  0  0  0  0  0  0  0  0  0  0
   -2.5994    3.0285    2.6670 H   0  0  0  0  0  0  0  0  0  0  0  0
   -3.6776   -0.2088    2.4341 H   0  0  0  0  0  0  0  0  0  0  0  0
   -5.3282    0.0114    1.8015 H   0  0  0  0  0  0  0  0  0  0  0  0
   -4.5744    0.1827   -0.4908 H   0  0  0  0  0  0  0  0  0  0  0  0
   -4.1569   -1.3566    0.3028 H   0  0  0  0  0  0  0  0  0  0  0  0
   -1.7501   -0.4361    0.6402 H   0  0  0  0  0  0  0  0  0  0  0  0
   -2.2534    1.0038   -0.3024 H   0  0  0  0  0  0  0  0  0  0  0  0
   -2.7014   -0.1697   -2.2486 H   0  0  0  0  0  0  0  0  0  0  0  0
   -0.1625   -0.3100   -0.8812 H   0  0  0  0  0  0  0  0  0  0  0  0
   -0.7807   -1.0376   -3.7076 H   0  0  0  0  0  0  0  0  0  0  0  0
    1.5207   -0.5661   -4.1548 H   0  0  0  0  0  0  0  0  0  0  0  0
    0.6949    0.9094   -3.5840 H   0  0  0  0  0  0  0  0  0  0  0  0
    3.2906   -1.6478   -2.7766 H   0  0  0  0  0  0  0  0  0  0  0  0
    4.8721   -1.4007   -0.8808 H   0  0  0  0  0  0  0  0  0  0  0  0
    1.1145    1.6892   -1.2428 H   0  0  0  0  0  0  0  0  0  0  0  0
    3.9884    3.1075    3.2790 H   0  0  0  0  0  0  0  0  0  0  0  0
    6.0103    2.1966    4.3174 H   0  0  0  0  0  0  0  0  0  0  0  0
    7.1434    0.2685    3.3082 H   0  0  0  0  0  0  0  0  0  0  0  0
    6.1950   -0.7302    1.2205 H   0  0  0  0  0  0  0  0  0  0  0  0
    1.8166   -3.6675   -3.5827 H   0  0  0  0  0  0  0  0  0  0  0  0
   -1.7328   -4.2587   -0.5504 H   0  0  0  0  0  0  0  0  0  0  0  0
   -2.3868   -3.9874   -3.1701 H   0  0  0  0  0  0  0  0  0  0  0  0
  1  2  1  0
  2  3  1  0
  2  4  1  0
  4  5  1  0
  5  6  1  0
  6  7  1  0
  7  8  1  0
  8  9  1  0
  9 10  1  0
 10 11  1  0
 11 12  2  0
 12 13  1  0
 13 14  2  0
 14 15  1  0
 15 16  2  0
 15 17  1  0
 17 18  1  0
 18 19  2  0
 19 20  1  0
 20 21  2  0
 21 22  1  0
 22 23  2  0
  9 24  1  0
 24 25  2  0
 24 26  1  0
  7 27  1  0
 27 28  2  0
 27 29  1  0
 27 30  1  0
 16 11  1  0
 23 18  1  0
 23 14  1  0
  1 31  1  0
  1 32  1  0
  1 33  1  0
  2 34  1  0
  3 35  1  0
  3 36  1  0
  3 37  1  0
  4 38  1  0
  4 39  1  0
  5 40  1  0
  5 41  1  0
  6 42  1  0
  6 43  1  0
  7 44  1  0
  8 45  1  0
  9 46  1  6
 10 47  1  0
 10 48  1  0
 12 49  1  0
 13 50  1  0
 16 51  1  0
 19 52  1  0
 20 53  1  0
 21 54  1  0
 22 55  1  0
 26 56  1  0
 29 57  1  0
 30 58  1  0
M  END
$$$$
