
     RDKit          3D

 48 51  0  0  0  0  0  0  0  0999 V2000
    3.1255   -1.1194    0.6725 C   0  0  1  0  0  0  0  0  0  0  0  0
    3.5959   -0.4095    1.9278 C   0  0  0  0  0  0  0  0  0  0  0  0
    3.1077    1.0006    1.6042 C   0  0  0  0  0  0  0  0  0  0  0  0
    3.2194    1.0485    0.1137 C   0  0  2  0  0  0  0  0  0  0  0  0
    1.7890    1.2008   -0.4186 C   0  0  0  0  0  0  0  0  0  0  0  0
    1.0452   -0.0718   -0.2930 C   0  0  1  0  0  0  0  0  0  0  0  0
    1.6381   -1.0885    0.6241 C   0  0  0  0  0  0  0  0  0  0  0  0
   -0.2372    0.1992    0.1846 O   0  0  0  0  0  0  0  0  0  0  0  0
   -1.2485   -0.1443   -0.6751 C   0  0  0  0  0  0  0  0  0  0  0  0
   -2.0890   -1.1924    0.0058 C   0  0  0  0  0  0  0  0  0  0  0  0
   -2.4062   -0.9513    1.3121 C   0  0  0  0  0  0  0  0  0  0  0  0
   -3.1758   -1.8516    2.0334 C   0  0  0  0  0  0  0  0  0  0  0  0
   -3.5995   -2.9970    1.3599 C   0  0  0  0  0  0  0  0  0  0  0  0
   -3.2726   -3.2209    0.0543 C   0  0  0  0  0  0  0  0  0  0  0  0
   -2.5100   -2.3260   -0.6560 C   0  0  0  0  0  0  0  0  0  0  0  0
   -2.1391    1.0203   -0.8758 C   0  0  0  0  0  0  0  0  0  0  0  0
   -1.7361    2.3077   -1.1127 C   0  0  0  0  0  0  0  0  0  0  0  0
   -2.5472    3.3838   -1.2981 C   0  0  0  0  0  0  0  0  0  0  0  0
   -3.9157    3.1979   -1.2495 C   0  0  0  0  0  0  0  0  0  0  0  0
   -4.3955    1.9279   -1.0150 C   0  0  0  0  0  0  0  0  0  0  0  0
   -3.5296    0.8945   -0.8379 C   0  0  0  0  0  0  0  0  0  0  0  0
    3.6463   -0.2374   -0.3466 N   0  0  0  0  0  0  0  0  0  0  0  0
    5.0373   -0.3926   -0.5910 C   0  0  0  0  0  0  0  0  0  0  0  0
    3.5552   -2.1457    0.6138 H   0  0  0  0  0  0  0  0  0  0  0  0
    4.7073   -0.3807    1.9746 H   0  0  0  0  0  0  0  0  0  0  0  0
    3.1381   -0.7933    2.8451 H   0  0  0  0  0  0  0  0  0  0  0  0
    2.0494    1.0248    1.9840 H   0  0  0  0  0  0  0  0  0  0  0  0
    3.6999    1.7731    2.1296 H   0  0  0  0  0  0  0  0  0  0  0  0
    3.8577    1.8766   -0.2167 H   0  0  0  0  0  0  0  0  0  0  0  0
    1.9420    1.4938   -1.4986 H   0  0  0  0  0  0  0  0  0  0  0  0
    1.3629    2.0731    0.1087 H   0  0  0  0  0  0  0  0  0  0  0  0
    0.9117   -0.5202   -1.3129 H   0  0  0  0  0  0  0  0  0  0  0  0
    1.2994   -2.0960    0.2547 H   0  0  0  0  0  0  0  0  0  0  0  0
    1.2262   -0.9988    1.6514 H   0  0  0  0  0  0  0  0  0  0  0  0
   -0.9034   -0.5846   -1.6388 H   0  0  0  0  0  0  0  0  0  0  0  0
   -2.0614   -0.0428    1.8214 H   0  0  0  0  0  0  0  0  0  0  0  0
   -3.4441   -1.6829    3.0802 H   0  0  0  0  0  0  0  0  0  0  0  0
   -4.2069   -3.7056    1.9325 H   0  0  0  0  0  0  0  0  0  0  0  0
   -3.5975   -4.1042   -0.4705 H   0  0  0  0  0  0  0  0  0  0  0  0
   -2.2247   -2.4580   -1.6910 H   0  0  0  0  0  0  0  0  0  0  0  0
   -0.6760    2.5105   -1.1614 H   0  0  0  0  0  0  0  0  0  0  0  0
   -2.1763    4.3820   -1.4823 H   0  0  0  0  0  0  0  0  0  0  0  0
   -4.6109    4.0035   -1.3874 H   0  0  0  0  0  0  0  0  0  0  0  0
   -5.4713    1.7963   -0.9794 H   0  0  0  0  0  0  0  0  0  0  0  0
   -3.9934   -0.0683   -0.6590 H   0  0  0  0  0  0  0  0  0  0  0  0
    5.6558    0.4907   -0.4462 H   0  0  0  0  0  0  0  0  0  0  0  0
    5.4082   -1.1947    0.1061 H   0  0  0  0  0  0  0  0  0  0  0  0
    5.1494   -0.8271   -1.6257 H   0  0  0  0  0  0  0  0  0  0  0  0
  1  2  1  0
  2  3  1  0
  3  4  1  0
  4  5  1  0
  5  6  1  0
  6  7  1  0
  6  8  1  0
  8  9  1  0
  9 10  1  0
 10 11  2  0
 11 12  1  0
 12 13  2  0
 13 14  1  0
 14 15  2  0
  9 16  1  0
 16 17  2  0
 17 18  1  0
 18 19  2  0
 19 20  1  0
 20 21  2  0
  4 22  1  0
 22 23  1  0
  7  1  1  0
 15 10  1  0
 21 16  1  0
 22  1  1  0
  1 24  1  6
  2 25  1  0
  2 26  1  0
  3 27  1  0
  3 28  1  0
  4 29  1  1
  5 30  1  0
  5 31  1  0
  6 32  1  6
  7 33  1  0
  7 34  1  0
  9 35  1  0
 11 36  1  0
 12 37  1  0
 13 38  1  0
 14 39  1  0
 15 40  1  0
 17 41  1  0
 18 42  1  0
 19 43  1  0
 20 44  1  0
 21 45  1  0
 23 46  1  0
 23 47  1  0
 23 48  1  0
M  END
$$$$
