@<TRIPOS>MOLECULE
*****
 48 51 0 0 0
SMALL
GASTEIGER

@<TRIPOS>ATOM
      1 C           3.1255   -1.1194    0.6725 C.3     1  UNL1        0.0128
      2 C           3.5959   -0.4095    1.9278 C.3     1  UNL1       -0.0358
      3 C           3.1077    1.0006    1.6042 C.3     1  UNL1       -0.0358
      4 C           3.2194    1.0485    0.1137 C.3     1  UNL1        0.0128
      5 C           1.7890    1.2008   -0.4186 C.3     1  UNL1       -0.0108
      6 C           1.0452   -0.0718   -0.2930 C.3     1  UNL1        0.0628
      7 C           1.6381   -1.0885    0.6241 C.3     1  UNL1       -0.0108
      8 O          -0.2372    0.1992    0.1846 O.3     1  UNL1       -0.3640
      9 C          -1.2485   -0.1443   -0.6751 C.3     1  UNL1        0.1090
     10 C          -2.0890   -1.1924    0.0058 C.ar    1  UNL1       -0.0145
     11 C          -2.4062   -0.9513    1.3121 C.ar    1  UNL1       -0.0558
     12 C          -3.1758   -1.8516    2.0334 C.ar    1  UNL1       -0.0614
     13 C          -3.5995   -2.9970    1.3599 C.ar    1  UNL1       -0.0617
     14 C          -3.2726   -3.2209    0.0543 C.ar    1  UNL1       -0.0614
     15 C          -2.5100   -2.3260   -0.6560 C.ar    1  UNL1       -0.0558
     16 C          -2.1391    1.0203   -0.8758 C.ar    1  UNL1       -0.0145
     17 C          -1.7361    2.3077   -1.1127 C.ar    1  UNL1       -0.0558
     18 C          -2.5472    3.3838   -1.2981 C.ar    1  UNL1       -0.0614
     19 C          -3.9157    3.1979   -1.2495 C.ar    1  UNL1       -0.0617
     20 C          -4.3955    1.9279   -1.0150 C.ar    1  UNL1       -0.0614
     21 C          -3.5296    0.8945   -0.8379 C.ar    1  UNL1       -0.0558
     22 N           3.6463   -0.2374   -0.3466 N.3     1  UNL1       -0.2993
     23 C           5.0373   -0.3926   -0.5910 C.3     1  UNL1       -0.0122
     24 H           3.5552   -2.1457    0.6138 H       1  UNL1        0.0463
     25 H           4.7073   -0.3807    1.9746 H       1  UNL1        0.0281
     26 H           3.1381   -0.7933    2.8451 H       1  UNL1        0.0281
     27 H           2.0494    1.0248    1.9840 H       1  UNL1        0.0281
     28 H           3.6999    1.7731    2.1296 H       1  UNL1        0.0281
     29 H           3.8577    1.8766   -0.2167 H       1  UNL1        0.0463
     30 H           1.9420    1.4938   -1.4986 H       1  UNL1        0.0305
     31 H           1.3629    2.0731    0.1087 H       1  UNL1        0.0305
     32 H           0.9117   -0.5202   -1.3129 H       1  UNL1        0.0597
     33 H           1.2994   -2.0960    0.2547 H       1  UNL1        0.0305
     34 H           1.2262   -0.9988    1.6514 H       1  UNL1        0.0305
     35 H          -0.9034   -0.5846   -1.6388 H       1  UNL1        0.0697
     36 H          -2.0614   -0.0428    1.8214 H       1  UNL1        0.0621
     37 H          -3.4441   -1.6829    3.0802 H       1  UNL1        0.0618
     38 H          -4.2069   -3.7056    1.9325 H       1  UNL1        0.0618
     39 H          -3.5975   -4.1042   -0.4705 H       1  UNL1        0.0618
     40 H          -2.2247   -2.4580   -1.6910 H       1  UNL1        0.0621
     41 H          -0.6760    2.5105   -1.1614 H       1  UNL1        0.0621
     42 H          -2.1763    4.3820   -1.4823 H       1  UNL1        0.0618
     43 H          -4.6109    4.0035   -1.3874 H       1  UNL1        0.0618
     44 H          -5.4713    1.7963   -0.9794 H       1  UNL1        0.0618
     45 H          -3.9934   -0.0683   -0.6590 H       1  UNL1        0.0621
     46 H           5.6558    0.4907   -0.4462 H       1  UNL1        0.0391
     47 H           5.4082   -1.1947    0.1061 H       1  UNL1        0.0391
     48 H           5.1494   -0.8271   -1.6257 H       1  UNL1        0.0391
@<TRIPOS>BOND
     1     1     2    1
     2     2     3    1
     3     3     4    1
     4     4     5    1
     5     5     6    1
     6     6     7    1
     7     6     8    1
     8     8     9    1
     9     9    10    1
    10    10    11   ar
    11    11    12   ar
    12    12    13   ar
    13    13    14   ar
    14    14    15   ar
    15     9    16    1
    16    16    17   ar
    17    17    18   ar
    18    18    19   ar
    19    19    20   ar
    20    20    21   ar
    21     4    22    1
    22    22    23    1
    23     7     1    1
    24    15    10   ar
    25    21    16   ar
    26    22     1    1
    27     1    24    1
    28     2    25    1
    29     2    26    1
    30     3    27    1
    31     3    28    1
    32     4    29    1
    33     5    30    1
    34     5    31    1
    35     6    32    1
    36     7    33    1
    37     7    34    1
    38     9    35    1
    39    11    36    1
    40    12    37    1
    41    13    38    1
    42    14    39    1
    43    15    40    1
    44    17    41    1
    45    18    42    1
    46    19    43    1
    47    20    44    1
    48    21    45    1
    49    23    46    1
    50    23    47    1
    51    23    48    1
