@<TRIPOS>MOLECULE
*****
 76 80 0 0 0
SMALL
GASTEIGER

@<TRIPOS>ATOM
      1 C          -4.5515    5.3005   -1.1277 C.3     1  UNL1       -0.0397
      2 C          -4.5638    3.8769   -0.6935 C.ar    1  UNL1       -0.0503
      3 C          -4.7316    2.8512   -1.5983 C.ar    1  UNL1       -0.0568
      4 C          -4.7457    1.5261   -1.2148 C.ar    1  UNL1       -0.0359
      5 C          -4.5891    1.1695    0.1182 C.ar    1  UNL1        0.0674
      6 N          -4.6089   -0.2067    0.4757 N.ar    1  UNL1       -0.2181
      7 N          -5.5058   -1.1407    0.2214 N.ar    1  UNL1       -0.1691
      8 C          -5.1750   -2.3220    0.7234 C.ar    1  UNL1        0.0706
      9 C          -5.9787   -3.5920    0.6128 C.3     1  UNL1        0.0063
     10 C          -5.2496   -4.7151    1.3184 C.3     1  UNL1       -0.0546
     11 C          -7.2852   -3.3412    1.3451 C.3     1  UNL1       -0.0546
     12 C          -6.2777   -3.9482   -0.8058 C.3     1  UNL1       -0.0546
     13 C          -3.9624   -2.1633    1.3628 C.ar    1  UNL1        0.0021
     14 C          -3.6328   -0.8318    1.1919 C.ar    1  UNL1        0.1299
     15 N          -2.4446   -0.2496    1.7056 N.am    1  UNL1       -0.2538
     16 C          -1.2358   -0.2031    0.9693 C.2     1  UNL1        0.3092
     17 O          -1.2275   -0.7003   -0.1820 O.2     1  UNL1       -0.2521
     18 N          -0.0433    0.3786    1.4774 N.am    1  UNL1       -0.2686
     19 C           1.1178    0.3760    0.6573 C.ar    1  UNL1        0.0427
     20 C           1.4204    1.3870   -0.2119 C.ar    1  UNL1       -0.0364
     21 C           2.5710    1.3375   -0.9922 C.ar    1  UNL1       -0.0176
     22 C           3.4452    0.2829   -0.9247 C.ar    1  UNL1        0.1283
     23 O           4.5660    0.1645   -1.6414 O.3     1  UNL1       -0.4901
     24 C           5.2269    0.9206   -2.5807 C.3     1  UNL1        0.1023
     25 C           5.7124    2.2312   -2.0659 C.3     1  UNL1        0.0333
     26 N           6.6270    2.1663   -0.9971 N.3     1  UNL1       -0.2948
     27 C           7.9138    1.6273   -1.2362 C.3     1  UNL1        0.0225
     28 C           8.1949    0.3894   -0.3903 C.3     1  UNL1        0.0604
     29 O           8.0217    0.7571    0.9361 O.3     1  UNL1       -0.3772
     30 C           6.6595    0.9778    1.1386 C.3     1  UNL1        0.0604
     31 C           6.1719    2.1657    0.3305 C.3     1  UNL1        0.0225
     32 C           3.1351   -0.7605   -0.0295 C.ar    1  UNL1        0.0256
     33 C           3.9875   -1.8438    0.0710 C.ar    1  UNL1       -0.0505
     34 C           3.6625   -2.8449    0.9491 C.ar    1  UNL1       -0.0611
     35 C           2.5318   -2.8248    1.7340 C.ar    1  UNL1       -0.0611
     36 C           1.7014   -1.7367    1.6148 C.ar    1  UNL1       -0.0521
     37 C           1.9992   -0.7088    0.7386 C.ar    1  UNL1        0.0069
     38 C          -4.4213    2.1941    1.0239 C.ar    1  UNL1       -0.0359
     39 C          -4.4068    3.5192    0.6439 C.ar    1  UNL1       -0.0568
     40 H          -4.0778    5.3084   -2.1434 H       1  UNL1        0.0278
     41 H          -5.5665    5.7293   -1.2243 H       1  UNL1        0.0278
     42 H          -3.8918    5.9170   -0.4824 H       1  UNL1        0.0278
     43 H          -4.8554    3.1338   -2.6525 H       1  UNL1        0.0621
     44 H          -4.8801    0.7183   -1.9459 H       1  UNL1        0.0639
     45 H          -4.3881   -5.0829    0.7305 H       1  UNL1        0.0239
     46 H          -5.9788   -5.5763    1.3580 H       1  UNL1        0.0239
     47 H          -5.0134   -4.4787    2.3585 H       1  UNL1        0.0239
     48 H          -7.0763   -2.6140    2.1638 H       1  UNL1        0.0239
     49 H          -7.6411   -4.2629    1.8591 H       1  UNL1        0.0239
     50 H          -8.0615   -2.9080    0.6889 H       1  UNL1        0.0239
     51 H          -5.4186   -4.4785   -1.3065 H       1  UNL1        0.0239
     52 H          -6.5789   -3.0716   -1.3922 H       1  UNL1        0.0239
     53 H          -7.1659   -4.6432   -0.7861 H       1  UNL1        0.0239
     54 H          -3.3999   -2.9283    1.8837 H       1  UNL1        0.0671
     55 H          -2.4602    0.1626    2.6664 H       1  UNL1        0.1578
     56 H          -0.0165    0.7991    2.4299 H       1  UNL1        0.1564
     57 H           0.7436    2.2261   -0.2783 H       1  UNL1        0.0637
     58 H           2.7037    2.1799   -1.6514 H       1  UNL1        0.0655
     59 H           6.0430    0.3333   -3.0821 H       1  UNL1        0.0709
     60 H           4.4765    1.1010   -3.4212 H       1  UNL1        0.0709
     61 H           6.2826    2.6990   -2.9427 H       1  UNL1        0.0460
     62 H           4.8783    2.8726   -1.7925 H       1  UNL1        0.0460
     63 H           8.0073    1.3455   -2.3184 H       1  UNL1        0.0449
     64 H           8.6938    2.4104   -1.0653 H       1  UNL1        0.0449
     65 H           7.4920   -0.3880   -0.7203 H       1  UNL1        0.0572
     66 H           9.2403    0.0848   -0.5480 H       1  UNL1        0.0572
     67 H           6.4855    1.1903    2.2104 H       1  UNL1        0.0572
     68 H           6.0502    0.0918    0.8757 H       1  UNL1        0.0572
     69 H           6.5364    3.0662    0.9099 H       1  UNL1        0.0449
     70 H           5.0779    2.2017    0.4122 H       1  UNL1        0.0449
     71 H           4.8818   -1.8641   -0.5468 H       1  UNL1        0.0625
     72 H           4.3471   -3.6921    1.0150 H       1  UNL1        0.0618
     73 H           2.2950   -3.6409    2.4299 H       1  UNL1        0.0618
     74 H           0.7812   -1.6654    2.2178 H       1  UNL1        0.0624
     75 H          -4.2986    1.9280    2.0626 H       1  UNL1        0.0639
     76 H          -4.2758    4.3297    1.3486 H       1  UNL1        0.0621
@<TRIPOS>BOND
     1     1     2    1
     2     2     3   ar
     3     3     4   ar
     4     4     5   ar
     5     5     6    1
     6     6     7   ar
     7     7     8   ar
     8     8     9    1
     9     9    10    1
    10     9    11    1
    11     9    12    1
    12     8    13   ar
    13    13    14   ar
    14    14    15    1
    15    15    16   am
    16    16    17    2
    17    16    18   am
    18    18    19    1
    19    19    20   ar
    20    20    21   ar
    21    21    22   ar
    22    22    23    1
    23    23    24    1
    24    24    25    1
    25    25    26    1
    26    26    27    1
    27    27    28    1
    28    28    29    1
    29    29    30    1
    30    30    31    1
    31    22    32   ar
    32    32    33   ar
    33    33    34   ar
    34    34    35   ar
    35    35    36   ar
    36    36    37   ar
    37     5    38   ar
    38    38    39   ar
    39    39     2   ar
    40    14     6   ar
    41    37    19   ar
    42    31    26    1
    43    37    32   ar
    44     1    40    1
    45     1    41    1
    46     1    42    1
    47     3    43    1
    48     4    44    1
    49    10    45    1
    50    10    46    1
    51    10    47    1
    52    11    48    1
    53    11    49    1
    54    11    50    1
    55    12    51    1
    56    12    52    1
    57    12    53    1
    58    13    54    1
    59    15    55    1
    60    18    56    1
    61    20    57    1
    62    21    58    1
    63    24    59    1
    64    24    60    1
    65    25    61    1
    66    25    62    1
    67    27    63    1
    68    27    64    1
    69    28    65    1
    70    28    66    1
    71    30    67    1
    72    30    68    1
    73    31    69    1
    74    31    70    1
    75    33    71    1
    76    34    72    1
    77    35    73    1
    78    36    74    1
    79    38    75    1
    80    39    76    1
