
     RDKit          3D

 58 60  0  0  0  0  0  0  0  0999 V2000
  -11.7411    1.0915    0.3888 C   0  0  0  0  0  0  0  0  0  0  0  0
  -10.2883    0.8002    0.3188 C   0  0  0  0  0  0  0  0  0  0  0  0
   -9.8358   -0.3989    0.7454 N   0  0  0  0  0  0  0  0  0  0  0  0
   -8.5128   -0.6433    0.6733 C   0  0  0  0  0  0  0  0  0  0  0  0
   -7.6022    0.2939    0.1764 C   0  0  0  0  0  0  0  0  0  0  0  0
   -8.0892    1.4776   -0.2396 N   0  0  0  0  0  0  0  0  0  0  0  0
   -9.4068    1.7395   -0.1752 C   0  0  0  0  0  0  0  0  0  0  0  0
   -6.2147   -0.1506    0.1769 C   0  0  0  0  0  0  0  0  0  0  0  0
   -5.8124   -1.2914    0.5864 O   0  0  0  0  0  0  0  0  0  0  0  0
   -5.1243    0.6380   -0.2832 N   0  0  0  0  0  0  0  0  0  0  0  0
   -3.8730   -0.0834   -0.1530 C   0  0  0  0  0  0  0  0  0  0  0  0
   -2.7002    0.7333   -0.6351 C   0  0  0  0  0  0  0  0  0  0  0  0
   -1.4895   -0.1402   -0.4381 C   0  0  0  0  0  0  0  0  0  0  0  0
   -1.1067   -0.9727   -1.4698 C   0  0  0  0  0  0  0  0  0  0  0  0
    0.0140   -1.7693   -1.2639 C   0  0  0  0  0  0  0  0  0  0  0  0
    0.7064   -1.7091   -0.0504 C   0  0  0  0  0  0  0  0  0  0  0  0
    0.3195   -0.8745    0.9786 C   0  0  0  0  0  0  0  0  0  0  0  0
   -0.7944   -0.0874    0.7649 C   0  0  0  0  0  0  0  0  0  0  0  0
    2.0901   -2.7835    0.0250 S   0  0  0  0  0  0  0  0  0  0  0  0
    1.8037   -4.0519   -0.7316 O   0  0  0  0  0  0  0  0  0  0  0  0
    2.2854   -3.1115    1.4923 O   0  0  0  0  0  0  0  0  0  0  0  0
    3.5341   -2.0197   -0.5373 N   0  0  0  0  0  0  0  0  0  0  0  0
    4.3683   -1.3175    0.3698 C   0  0  0  0  0  0  0  0  0  0  0  0
    4.1554   -1.1891    1.5902 O   0  0  0  0  0  0  0  0  0  0  0  0
    5.5154   -0.7432   -0.2298 N   0  0  0  0  0  0  0  0  0  0  0  0
    6.5495    0.0319    0.4449 C   0  0  0  0  0  0  0  0  0  0  0  0
    7.8624   -0.6514    0.2016 C   0  0  0  0  0  0  0  0  0  0  0  0
    8.9658    0.3586    0.2363 C   0  0  0  0  0  0  0  0  0  0  0  0
    8.6312    1.5480    1.1248 C   0  0  0  0  0  0  0  0  0  0  0  0
    7.5400    2.3298    0.4552 C   0  0  0  0  0  0  0  0  0  0  0  0
    6.5235    1.4234   -0.1722 C   0  0  0  0  0  0  0  0  0  0  0  0
  -12.2685    0.8914   -0.5460 H   0  0  0  0  0  0  0  0  0  0  0  0
  -12.1574    0.5054    1.2509 H   0  0  0  0  0  0  0  0  0  0  0  0
  -11.8153    2.1823    0.6217 H   0  0  0  0  0  0  0  0  0  0  0  0
   -8.1906   -1.6273    1.0297 H   0  0  0  0  0  0  0  0  0  0  0  0
   -9.7231    2.7123   -0.5278 H   0  0  0  0  0  0  0  0  0  0  0  0
   -5.3316    1.6143   -0.6514 H   0  0  0  0  0  0  0  0  0  0  0  0
   -3.9442   -0.9866   -0.8213 H   0  0  0  0  0  0  0  0  0  0  0  0
   -3.6615   -0.3969    0.8783 H   0  0  0  0  0  0  0  0  0  0  0  0
   -2.5434    1.6157    0.0272 H   0  0  0  0  0  0  0  0  0  0  0  0
   -2.7955    1.0222   -1.7087 H   0  0  0  0  0  0  0  0  0  0  0  0
   -1.6902   -0.9633   -2.3739 H   0  0  0  0  0  0  0  0  0  0  0  0
    0.2870   -2.4049   -2.0818 H   0  0  0  0  0  0  0  0  0  0  0  0
    0.9103   -0.8971    1.8684 H   0  0  0  0  0  0  0  0  0  0  0  0
   -1.1063    0.5783    1.5807 H   0  0  0  0  0  0  0  0  0  0  0  0
    3.7248   -2.1195   -1.5586 H   0  0  0  0  0  0  0  0  0  0  0  0
    5.7802   -0.7966   -1.2455 H   0  0  0  0  0  0  0  0  0  0  0  0
    6.2985    0.1103    1.5389 H   0  0  0  0  0  0  0  0  0  0  0  0
    7.9663   -1.4303    1.0059 H   0  0  0  0  0  0  0  0  0  0  0  0
    7.8056   -1.2115   -0.7348 H   0  0  0  0  0  0  0  0  0  0  0  0
    9.1214    0.7613   -0.7880 H   0  0  0  0  0  0  0  0  0  0  0  0
    9.8846   -0.1332    0.6039 H   0  0  0  0  0  0  0  0  0  0  0  0
    9.5508    2.1539    1.2318 H   0  0  0  0  0  0  0  0  0  0  0  0
    8.3146    1.2636    2.1348 H   0  0  0  0  0  0  0  0  0  0  0  0
    7.0177    2.9885    1.2014 H   0  0  0  0  0  0  0  0  0  0  0  0
    8.0274    2.9886   -0.3184 H   0  0  0  0  0  0  0  0  0  0  0  0
    6.7784    1.2867   -1.2610 H   0  0  0  0  0  0  0  0  0  0  0  0
    5.4872    1.8151   -0.0908 H   0  0  0  0  0  0  0  0  0  0  0  0
  1  2  1  0
  2  3  2  0
  3  4  1  0
  4  5  2  0
  5  6  1  0
  6  7  2  0
  5  8  1  0
  8  9  2  0
  8 10  1  0
 10 11  1  0
 11 12  1  0
 12 13  1  0
 13 14  2  0
 14 15  1  0
 15 16  2  0
 16 17  1  0
 17 18  2  0
 16 19  1  0
 19 20  2  0
 19 21  2  0
 19 22  1  0
 22 23  1  0
 23 24  2  0
 23 25  1  0
 25 26  1  0
 26 27  1  0
 27 28  1  0
 28 29  1  0
 29 30  1  0
 30 31  1  0
  7  2  1  0
 18 13  1  0
 31 26  1  0
  1 32  1  0
  1 33  1  0
  1 34  1  0
  4 35  1  0
  7 36  1  0
 10 37  1  0
 11 38  1  0
 11 39  1  0
 12 40  1  0
 12 41  1  0
 14 42  1  0
 15 43  1  0
 17 44  1  0
 18 45  1  0
 22 46  1  0
 25 47  1  0
 26 48  1  0
 27 49  1  0
 27 50  1  0
 28 51  1  0
 28 52  1  0
 29 53  1  0
 29 54  1  0
 30 55  1  0
 30 56  1  0
 31 57  1  0
 31 58  1  0
M  END
$$$$
