
     RDKit          3D

 68 72  0  0  0  0  0  0  0  0999 V2000
   -4.9759   -2.5016    3.5941 C   0  0  0  0  0  0  0  0  0  0  0  0
   -3.7079   -1.9164    3.0589 C   0  0  0  0  0  0  0  0  0  0  0  0
   -2.5114   -2.2088    3.6757 C   0  0  0  0  0  0  0  0  0  0  0  0
   -1.3596   -1.6523    3.1563 C   0  0  0  0  0  0  0  0  0  0  0  0
   -1.3866   -0.8261    2.0538 C   0  0  0  0  0  0  0  0  0  0  0  0
   -0.1924   -0.2617    1.5344 N   0  0  0  0  0  0  0  0  0  0  0  0
    0.6191   -0.8654    0.5500 C   0  0  0  0  0  0  0  0  0  0  0  0
    0.2455   -1.9791    0.1121 O   0  0  0  0  0  0  0  0  0  0  0  0
    1.8378   -0.2865    0.0235 C   0  0  0  0  0  0  0  0  0  0  0  0
    2.5470   -0.9821   -0.9257 C   0  0  0  0  0  0  0  0  0  0  0  0
    3.7008   -0.4949   -1.4596 C   0  0  0  0  0  0  0  0  0  0  0  0
    4.1798    0.7258   -1.0458 C   0  0  0  0  0  0  0  0  0  0  0  0
    5.4289    1.2374   -1.6290 C   0  0  0  0  0  0  0  0  0  0  0  0
    6.5879    0.8764   -0.8751 N   0  0  0  0  0  0  0  0  0  0  0  0
    6.7114   -0.5621   -0.8133 C   0  0  0  0  0  0  0  0  0  0  0  0
    7.8667   -0.8666    0.1259 C   0  0  0  0  0  0  0  0  0  0  0  0
    9.0823   -0.3372   -0.3749 N   0  0  0  0  0  0  0  0  0  0  0  0
    9.9714    0.1662    0.6477 C   0  0  0  0  0  0  0  0  0  0  0  0
    8.9531    0.5381   -1.4973 C   0  0  0  0  0  0  0  0  0  0  0  0
    7.7637    1.4278   -1.4664 C   0  0  0  0  0  0  0  0  0  0  0  0
    3.4902    1.4667   -0.0827 C   0  0  0  0  0  0  0  0  0  0  0  0
    2.3387    0.9360    0.4224 C   0  0  0  0  0  0  0  0  0  0  0  0
   -2.6254   -0.5508    1.4517 C   0  0  0  0  0  0  0  0  0  0  0  0
   -3.8081   -1.0857    1.9365 C   0  0  0  0  0  0  0  0  0  0  0  0
   -5.0752   -0.8516    1.3861 N   0  0  0  0  0  0  0  0  0  0  0  0
   -5.4249   -0.0675    0.2771 C   0  0  0  0  0  0  0  0  0  0  0  0
   -4.5226    0.5915   -0.4344 N   0  0  0  0  0  0  0  0  0  0  0  0
   -4.8066    1.3533   -1.5006 C   0  0  0  0  0  0  0  0  0  0  0  0
   -6.1488    1.4597   -1.8890 C   0  0  0  0  0  0  0  0  0  0  0  0
   -7.1056    0.7903   -1.1737 C   0  0  0  0  0  0  0  0  0  0  0  0
   -8.5231    0.8650   -1.5333 C   0  0  0  0  0  0  0  0  0  0  0  0
   -9.0031    1.5941   -2.5917 C   0  0  0  0  0  0  0  0  0  0  0  0
  -10.3780    1.6176   -2.8741 C   0  0  0  0  0  0  0  0  0  0  0  0
  -11.2370    0.9042   -2.0812 C   0  0  0  0  0  0  0  0  0  0  0  0
  -10.7327    0.2082   -1.0622 N   0  0  0  0  0  0  0  0  0  0  0  0
   -9.4282    0.1561   -0.7546 C   0  0  0  0  0  0  0  0  0  0  0  0
   -6.7172    0.0465   -0.1122 N   0  0  0  0  0  0  0  0  0  0  0  0
   -5.6787   -1.7206    3.9033 H   0  0  0  0  0  0  0  0  0  0  0  0
   -4.7507   -3.1408    4.4648 H   0  0  0  0  0  0  0  0  0  0  0  0
   -5.4663   -3.0996    2.7830 H   0  0  0  0  0  0  0  0  0  0  0  0
   -2.4493   -2.8541    4.5446 H   0  0  0  0  0  0  0  0  0  0  0  0
   -0.4001   -1.8463    3.5971 H   0  0  0  0  0  0  0  0  0  0  0  0
    0.1092    0.6655    1.9050 H   0  0  0  0  0  0  0  0  0  0  0  0
    2.1887   -1.9643   -1.2786 H   0  0  0  0  0  0  0  0  0  0  0  0
    4.2331   -1.0907   -2.2179 H   0  0  0  0  0  0  0  0  0  0  0  0
    5.5217    0.8027   -2.6614 H   0  0  0  0  0  0  0  0  0  0  0  0
    5.3586    2.3368   -1.7769 H   0  0  0  0  0  0  0  0  0  0  0  0
    5.8077   -1.0633   -0.3911 H   0  0  0  0  0  0  0  0  0  0  0  0
    6.9174   -0.9436   -1.8288 H   0  0  0  0  0  0  0  0  0  0  0  0
    7.5986   -0.3632    1.0989 H   0  0  0  0  0  0  0  0  0  0  0  0
    7.9803   -1.9568    0.2962 H   0  0  0  0  0  0  0  0  0  0  0  0
    9.6070   -0.0717    1.6767 H   0  0  0  0  0  0  0  0  0  0  0  0
   10.9392   -0.3650    0.5343 H   0  0  0  0  0  0  0  0  0  0  0  0
   10.1305    1.2627    0.5745 H   0  0  0  0  0  0  0  0  0  0  0  0
    9.8663    1.2010   -1.4949 H   0  0  0  0  0  0  0  0  0  0  0  0
    9.0300   -0.0557   -2.4227 H   0  0  0  0  0  0  0  0  0  0  0  0
    7.5154    1.6726   -2.5423 H   0  0  0  0  0  0  0  0  0  0  0  0
    8.0162    2.4389   -1.0290 H   0  0  0  0  0  0  0  0  0  0  0  0
    3.9121    2.4190    0.2046 H   0  0  0  0  0  0  0  0  0  0  0  0
    1.8041    1.5192    1.1745 H   0  0  0  0  0  0  0  0  0  0  0  0
   -2.6292    0.0877    0.6031 H   0  0  0  0  0  0  0  0  0  0  0  0
   -5.9048   -1.3306    1.8671 H   0  0  0  0  0  0  0  0  0  0  0  0
   -4.0598    1.8857   -2.0720 H   0  0  0  0  0  0  0  0  0  0  0  0
   -6.4154    2.0683   -2.7485 H   0  0  0  0  0  0  0  0  0  0  0  0
   -8.3287    2.1553   -3.2156 H   0  0  0  0  0  0  0  0  0  0  0  0
  -10.7499    2.1876   -3.7009 H   0  0  0  0  0  0  0  0  0  0  0  0
  -12.3074    0.9144   -2.2906 H   0  0  0  0  0  0  0  0  0  0  0  0
   -9.0495   -0.4157    0.0762 H   0  0  0  0  0  0  0  0  0  0  0  0
  1  2  1  0
  2  3  2  0
  3  4  1  0
  4  5  2  0
  5  6  1  0
  6  7  1  0
  7  8  2  0
  7  9  1  0
  9 10  2  0
 10 11  1  0
 11 12  2  0
 12 13  1  0
 13 14  1  0
 14 15  1  0
 15 16  1  0
 16 17  1  0
 17 18  1  0
 17 19  1  0
 19 20  1  0
 12 21  1  0
 21 22  2  0
  5 23  1  0
 23 24  2  0
 24 25  1  0
 25 26  1  0
 26 27  2  0
 27 28  1  0
 28 29  2  0
 29 30  1  0
 30 31  1  0
 31 32  2  0
 32 33  1  0
 33 34  2  0
 34 35  1  0
 35 36  2  0
 30 37  2  0
 24  2  1  0
 37 26  1  0
 22  9  1  0
 36 31  1  0
 20 14  1  0
  1 38  1  0
  1 39  1  0
  1 40  1  0
  3 41  1  0
  4 42  1  0
  6 43  1  0
 10 44  1  0
 11 45  1  0
 13 46  1  0
 13 47  1  0
 15 48  1  0
 15 49  1  0
 16 50  1  0
 16 51  1  0
 18 52  1  0
 18 53  1  0
 18 54  1  0
 19 55  1  0
 19 56  1  0
 20 57  1  0
 20 58  1  0
 21 59  1  0
 22 60  1  0
 23 61  1  0
 25 62  1  0
 28 63  1  0
 29 64  1  0
 32 65  1  0
 33 66  1  0
 34 67  1  0
 36 68  1  0
M  END
$$$$
