@<TRIPOS>MOLECULE
*****
 68 72 0 0 0
SMALL
GASTEIGER

@<TRIPOS>ATOM
      1 C          -4.9759   -2.5016    3.5941 C.3     1  UNL1       -0.0380
      2 C          -3.7079   -1.9164    3.0589 C.ar    1  UNL1       -0.0291
      3 C          -2.5114   -2.2088    3.6757 C.ar    1  UNL1       -0.0553
      4 C          -1.3596   -1.6523    3.1563 C.ar    1  UNL1       -0.0401
      5 C          -1.3866   -0.8261    2.0538 C.ar    1  UNL1        0.0354
      6 N          -0.1924   -0.2617    1.5344 N.am    1  UNL1       -0.2814
      7 C           0.6191   -0.8654    0.5500 C.2     1  UNL1        0.2483
      8 O           0.2455   -1.9791    0.1121 O.2     1  UNL1       -0.2699
      9 C           1.8378   -0.2865    0.0235 C.ar    1  UNL1        0.0370
     10 C           2.5470   -0.9821   -0.9257 C.ar    1  UNL1       -0.0493
     11 C           3.7008   -0.4949   -1.4596 C.ar    1  UNL1       -0.0566
     12 C           4.1798    0.7258   -1.0458 C.ar    1  UNL1       -0.0333
     13 C           5.4289    1.2374   -1.6290 C.3     1  UNL1        0.0241
     14 N           6.5879    0.8764   -0.8751 N.3     1  UNL1       -0.2957
     15 C           6.7114   -0.5621   -0.8133 C.3     1  UNL1        0.0120
     16 C           7.8667   -0.8666    0.1259 C.3     1  UNL1        0.0114
     17 N           9.0823   -0.3372   -0.3749 N.3     1  UNL1       -0.3029
     18 C           9.9714    0.1662    0.6477 C.3     1  UNL1       -0.0127
     19 C           8.9531    0.5381   -1.4973 C.3     1  UNL1        0.0114
     20 C           7.7637    1.4278   -1.4664 C.3     1  UNL1        0.0120
     21 C           3.4902    1.4667   -0.0827 C.ar    1  UNL1       -0.0566
     22 C           2.3387    0.9360    0.4224 C.ar    1  UNL1       -0.0493
     23 C          -2.6254   -0.5508    1.4517 C.ar    1  UNL1       -0.0190
     24 C          -3.8081   -1.0857    1.9365 C.ar    1  UNL1        0.0383
     25 N          -5.0752   -0.8516    1.3861 N.pl3   1  UNL1       -0.2833
     26 C          -5.4249   -0.0675    0.2771 C.ar    1  UNL1        0.2200
     27 N          -4.5226    0.5915   -0.4344 N.ar    1  UNL1       -0.2226
     28 C          -4.8066    1.3533   -1.5006 C.ar    1  UNL1        0.0332
     29 C          -6.1488    1.4597   -1.8890 C.ar    1  UNL1       -0.0174
     30 C          -7.1056    0.7903   -1.1737 C.ar    1  UNL1        0.0775
     31 C          -8.5231    0.8650   -1.5333 C.ar    1  UNL1        0.0186
     32 C          -9.0031    1.5941   -2.5917 C.ar    1  UNL1       -0.0497
     33 C         -10.3780    1.6176   -2.8741 C.ar    1  UNL1       -0.0430
     34 C         -11.2370    0.9042   -2.0812 C.ar    1  UNL1        0.0276
     35 N         -10.7327    0.2082   -1.0622 N.ar    1  UNL1       -0.2626
     36 C          -9.4282    0.1561   -0.7546 C.ar    1  UNL1        0.0367
     37 N          -6.7172    0.0465   -0.1122 N.ar    1  UNL1       -0.2142
     38 H          -5.6787   -1.7206    3.9033 H       1  UNL1        0.0278
     39 H          -4.7507   -3.1408    4.4648 H       1  UNL1        0.0278
     40 H          -5.4663   -3.0996    2.7830 H       1  UNL1        0.0278
     41 H          -2.4493   -2.8541    4.5446 H       1  UNL1        0.0621
     42 H          -0.4001   -1.8463    3.5971 H       1  UNL1        0.0636
     43 H           0.1092    0.6655    1.9050 H       1  UNL1        0.1551
     44 H           2.1887   -1.9643   -1.2786 H       1  UNL1        0.0625
     45 H           4.2331   -1.0907   -2.2179 H       1  UNL1        0.0621
     46 H           5.5217    0.8027   -2.6614 H       1  UNL1        0.0476
     47 H           5.3586    2.3368   -1.7769 H       1  UNL1        0.0476
     48 H           5.8077   -1.0633   -0.3911 H       1  UNL1        0.0439
     49 H           6.9174   -0.9436   -1.8288 H       1  UNL1        0.0439
     50 H           7.5986   -0.3632    1.0989 H       1  UNL1        0.0439
     51 H           7.9803   -1.9568    0.2962 H       1  UNL1        0.0439
     52 H           9.6070   -0.0717    1.6767 H       1  UNL1        0.0391
     53 H          10.9392   -0.3650    0.5343 H       1  UNL1        0.0391
     54 H          10.1305    1.2627    0.5745 H       1  UNL1        0.0391
     55 H           9.8663    1.2010   -1.4949 H       1  UNL1        0.0439
     56 H           9.0300   -0.0557   -2.4227 H       1  UNL1        0.0439
     57 H           7.5154    1.6726   -2.5423 H       1  UNL1        0.0439
     58 H           8.0162    2.4389   -1.0290 H       1  UNL1        0.0439
     59 H           3.9121    2.4190    0.2046 H       1  UNL1        0.0621
     60 H           1.8041    1.5192    1.1745 H       1  UNL1        0.0625
     61 H          -2.6292    0.0877    0.6031 H       1  UNL1        0.0655
     62 H          -5.9048   -1.3306    1.8671 H       1  UNL1        0.1550
     63 H          -4.0598    1.8857   -2.0720 H       1  UNL1        0.0831
     64 H          -6.4154    2.0683   -2.7485 H       1  UNL1        0.0654
     65 H          -8.3287    2.1553   -3.2156 H       1  UNL1        0.0625
     66 H         -10.7499    2.1876   -3.7009 H       1  UNL1        0.0633
     67 H         -12.3074    0.9144   -2.2906 H       1  UNL1        0.0829
     68 H          -9.0495   -0.4157    0.0762 H       1  UNL1        0.0836
@<TRIPOS>BOND
     1     1     2    1
     2     2     3   ar
     3     3     4   ar
     4     4     5   ar
     5     5     6    1
     6     6     7   am
     7     7     8    2
     8     7     9    1
     9     9    10   ar
    10    10    11   ar
    11    11    12   ar
    12    12    13    1
    13    13    14    1
    14    14    15    1
    15    15    16    1
    16    16    17    1
    17    17    18    1
    18    17    19    1
    19    19    20    1
    20    12    21   ar
    21    21    22   ar
    22     5    23   ar
    23    23    24   ar
    24    24    25    1
    25    25    26    1
    26    26    27   ar
    27    27    28   ar
    28    28    29   ar
    29    29    30   ar
    30    30    31    1
    31    31    32   ar
    32    32    33   ar
    33    33    34   ar
    34    34    35   ar
    35    35    36   ar
    36    30    37   ar
    37    24     2   ar
    38    37    26   ar
    39    22     9   ar
    40    36    31   ar
    41    20    14    1
    42     1    38    1
    43     1    39    1
    44     1    40    1
    45     3    41    1
    46     4    42    1
    47     6    43    1
    48    10    44    1
    49    11    45    1
    50    13    46    1
    51    13    47    1
    52    15    48    1
    53    15    49    1
    54    16    50    1
    55    16    51    1
    56    18    52    1
    57    18    53    1
    58    18    54    1
    59    19    55    1
    60    19    56    1
    61    20    57    1
    62    20    58    1
    63    21    59    1
    64    22    60    1
    65    23    61    1
    66    25    62    1
    67    28    63    1
    68    29    64    1
    69    32    65    1
    70    33    66    1
    71    34    67    1
    72    36    68    1
