@<TRIPOS>MOLECULE
*****
 52 55 0 0 0
SMALL
GASTEIGER

@<TRIPOS>ATOM
      1 C          -4.2376    2.5780   -0.7182 C.3     1  UNL1       -0.0234
      2 C          -3.8060    1.1344   -0.5088 C.3     1  UNL1        0.1253
      3 O          -3.4479    0.8769    0.8077 O.3     1  UNL1       -0.4810
      4 C          -2.2196    0.4571    1.2792 C.ar    1  UNL1        0.1613
      5 C          -1.1366    0.2249    0.4617 C.ar    1  UNL1       -0.0072
      6 C           0.0989   -0.2004    0.9635 C.ar    1  UNL1        0.0068
      7 C           1.2415   -0.4435    0.0850 C.ar    1  UNL1        0.0211
      8 C           1.2338   -0.8973   -1.2203 C.ar    1  UNL1        0.0571
      9 N           2.5085   -0.9728   -1.6373 N.ar    1  UNL1       -0.1788
     10 N           3.3477   -0.5974   -0.6877 N.ar    1  UNL1       -0.2677
     11 C           4.8167   -0.5451   -0.7652 C.3     1  UNL1        0.0550
     12 C           5.3129   -1.3495    0.4129 C.3     1  UNL1       -0.0179
     13 C           6.7673   -1.1646    0.6934 C.3     1  UNL1       -0.0022
     14 N           7.0565    0.2395    0.8332 N.3     1  UNL1       -0.3158
     15 C           6.7600    0.8837   -0.4303 C.3     1  UNL1       -0.0022
     16 C           5.2691    0.8811   -0.6193 C.3     1  UNL1       -0.0179
     17 C           2.5874   -0.2682    0.3792 C.ar    1  UNL1        0.0336
     18 C           0.1751   -0.3757    2.3283 C.ar    1  UNL1        0.0377
     19 N          -0.8949   -0.1427    3.1053 N.ar    1  UNL1       -0.2364
     20 C          -2.0913    0.2642    2.6631 C.ar    1  UNL1        0.1583
     21 N          -3.1862    0.4930    3.5569 N.pl3   1  UNL1       -0.3402
     22 C          -4.8897    0.2015   -0.9537 C.ar    1  UNL1        0.0318
     23 C          -5.8963   -0.1886   -0.0991 C.ar    1  UNL1        0.0492
     24 CL         -5.9068    0.4300    1.5395 Cl      1  UNL1       -0.0831
     25 C          -6.8947   -1.0642   -0.5410 C.ar    1  UNL1       -0.0402
     26 C          -6.9051   -1.5591   -1.8275 C.ar    1  UNL1       -0.0236
     27 C          -5.8965   -1.1674   -2.6814 C.ar    1  UNL1        0.1421
     28 F          -5.8829   -1.6401   -3.9544 F       1  UNL1       -0.2039
     29 C          -4.9020   -0.2955   -2.2423 C.ar    1  UNL1        0.0841
     30 CL         -3.6087    0.2131   -3.3217 Cl      1  UNL1       -0.0801
     31 H          -5.3470    2.5863   -0.7699 H       1  UNL1        0.0269
     32 H          -3.8767    2.9766   -1.6954 H       1  UNL1        0.0269
     33 H          -3.9372    3.2266    0.1334 H       1  UNL1        0.0269
     34 H          -2.9538    0.9623   -1.1873 H       1  UNL1        0.0782
     35 H          -1.1748    0.3549   -0.6005 H       1  UNL1        0.0662
     36 H           0.3247   -1.1373   -1.7686 H       1  UNL1        0.0854
     37 H           5.1024   -0.9614   -1.7328 H       1  UNL1        0.0545
     38 H           4.7554   -0.9597    1.3109 H       1  UNL1        0.0298
     39 H           5.0238   -2.4093    0.2999 H       1  UNL1        0.0298
     40 H           6.9576   -1.6231    1.7078 H       1  UNL1        0.0425
     41 H           7.3603   -1.6643   -0.0828 H       1  UNL1        0.0425
     42 H           6.4780    0.6292    1.5881 H       1  UNL1        0.1219
     43 H           7.2072    1.8933   -0.4149 H       1  UNL1        0.0425
     44 H           7.2953    0.3159   -1.2145 H       1  UNL1        0.0425
     45 H           5.0150    1.4771   -1.5259 H       1  UNL1        0.0298
     46 H           4.8048    1.3493    0.2608 H       1  UNL1        0.0298
     47 H           2.9968    0.0791    1.3153 H       1  UNL1        0.0832
     48 H           1.1316   -0.7060    2.7263 H       1  UNL1        0.0836
     49 H          -3.3513    1.4652    3.9052 H       1  UNL1        0.1438
     50 H          -3.8203   -0.2590    3.8732 H       1  UNL1        0.1438
     51 H          -7.6770   -1.3633    0.1324 H       1  UNL1        0.0633
     52 H          -7.6874   -2.2378   -2.1535 H       1  UNL1        0.0647
@<TRIPOS>BOND
     1     1     2    1
     2     2     3    1
     3     3     4    1
     4     4     5   ar
     5     5     6   ar
     6     6     7    1
     7     7     8   ar
     8     8     9   ar
     9     9    10   ar
    10    10    11    1
    11    11    12    1
    12    12    13    1
    13    13    14    1
    14    14    15    1
    15    15    16    1
    16    10    17   ar
    17     6    18   ar
    18    18    19   ar
    19    19    20   ar
    20    20    21    1
    21     2    22    1
    22    22    23   ar
    23    23    24    1
    24    23    25   ar
    25    25    26   ar
    26    26    27   ar
    27    27    28    1
    28    27    29   ar
    29    29    30    1
    30    20     4   ar
    31    29    22   ar
    32    17     7   ar
    33    16    11    1
    34     1    31    1
    35     1    32    1
    36     1    33    1
    37     2    34    1
    38     5    35    1
    39     8    36    1
    40    11    37    1
    41    12    38    1
    42    12    39    1
    43    13    40    1
    44    13    41    1
    45    14    42    1
    46    15    43    1
    47    15    44    1
    48    16    45    1
    49    16    46    1
    50    17    47    1
    51    18    48    1
    52    21    49    1
    53    21    50    1
    54    25    51    1
    55    26    52    1
