@<TRIPOS>MOLECULE
*****
 59 63 0 0 0
SMALL
GASTEIGER

@<TRIPOS>ATOM
      1 C           8.3949   -0.1728    1.5917 C.3     1  UNL1        0.0833
      2 O           7.1763   -0.0586    0.8682 O.3     1  UNL1       -0.4536
      3 C           6.1024   -0.9303    1.0967 C.2     1  UNL1        0.4026
      4 O           6.2810   -1.8115    1.9729 O.2     1  UNL1       -0.2263
      5 N           4.9094   -0.7871    0.3604 N.am    1  UNL1       -0.2673
      6 C           4.7827    0.2507   -0.6287 C.3     1  UNL1        0.0197
      7 C           3.4996    0.9995   -0.3283 C.3     1  UNL1       -0.0144
      8 C           2.2975    0.0803   -0.3065 C.3     1  UNL1        0.0578
      9 N           1.1385    0.8991   -0.0552 N.ar    1  UNL1       -0.2431
     10 N           1.0728    2.1535    0.3555 N.ar    1  UNL1       -0.1768
     11 C          -0.1741    2.5746    0.4750 C.ar    1  UNL1        0.0620
     12 C          -0.9798    1.5333    0.1213 C.ar    1  UNL1        0.0785
     13 C          -2.3684    1.3834    0.0514 C.ar    1  UNL1        0.1361
     14 N          -3.1738    2.4826    0.4000 N.pl3   1  UNL1       -0.3101
     15 C          -3.1615    3.7785   -0.2483 C.3     1  UNL1        0.0370
     16 C          -3.3522    4.8150    0.8389 C.3     1  UNL1        0.0634
     17 O          -4.6440    4.7120    1.3362 O.3     1  UNL1       -0.3767
     18 C          -5.1644    3.4476    1.2801 C.3     1  UNL1        0.0634
     19 C          -4.1150    2.3613    1.4962 C.3     1  UNL1        0.0370
     20 N          -2.8346    0.1910   -0.3467 N.ar    1  UNL1       -0.2118
     21 C          -2.0450   -0.8471   -0.6755 C.ar    1  UNL1        0.1641
     22 C          -2.6154   -2.1370   -1.1072 C.ar    1  UNL1        0.0194
     23 C          -3.9762   -2.3332   -1.1918 C.ar    1  UNL1       -0.0493
     24 C          -4.4908   -3.5597   -1.6018 C.ar    1  UNL1       -0.0404
     25 C          -3.6359   -4.5992   -1.9302 C.ar    1  UNL1        0.0246
     26 N          -4.1558   -5.8563   -2.3503 N.pl3   1  UNL1       -0.3580
     27 C          -2.2528   -4.4250   -1.8525 C.ar    1  UNL1       -0.0404
     28 C          -1.8003   -3.1913   -1.4410 C.ar    1  UNL1       -0.0493
     29 N          -0.7143   -0.6708   -0.5979 N.ar    1  UNL1       -0.2080
     30 C          -0.1389    0.4891   -0.2088 C.ar    1  UNL1        0.1642
     31 C           2.4837   -0.9852    0.7427 C.3     1  UNL1       -0.0144
     32 C           3.8179   -1.6811    0.5996 C.3     1  UNL1        0.0197
     33 H           9.0159    0.6903    1.3157 H       1  UNL1        0.0661
     34 H           8.2293   -0.2081    2.6803 H       1  UNL1        0.0661
     35 H           8.8917   -1.0901    1.2031 H       1  UNL1        0.0661
     36 H           4.7731   -0.1482   -1.6675 H       1  UNL1        0.0466
     37 H           5.6001    1.0003   -0.5769 H       1  UNL1        0.0466
     38 H           3.6172    1.3888    0.7230 H       1  UNL1        0.0301
     39 H           3.3378    1.8207   -1.0407 H       1  UNL1        0.0301
     40 H           2.2674   -0.4346   -1.2893 H       1  UNL1        0.0546
     41 H          -0.5770    3.5416    0.7863 H       1  UNL1        0.0856
     42 H          -4.0345    3.7729   -0.9582 H       1  UNL1        0.0487
     43 H          -2.2754    3.9643   -0.8556 H       1  UNL1        0.0487
     44 H          -2.6685    4.5359    1.6683 H       1  UNL1        0.0575
     45 H          -3.0888    5.8285    0.5321 H       1  UNL1        0.0575
     46 H          -5.8930    3.3341    2.1103 H       1  UNL1        0.0575
     47 H          -5.7414    3.2635    0.3457 H       1  UNL1        0.0575
     48 H          -3.6666    2.5201    2.4799 H       1  UNL1        0.0487
     49 H          -4.6438    1.3944    1.3861 H       1  UNL1        0.0487
     50 H          -4.6493   -1.5431   -0.9426 H       1  UNL1        0.0625
     51 H          -5.5520   -3.7400   -1.6768 H       1  UNL1        0.0636
     52 H          -3.5790   -6.7006   -2.1398 H       1  UNL1        0.1423
     53 H          -5.0777   -5.9235   -2.8485 H       1  UNL1        0.1423
     54 H          -1.5775   -5.2403   -2.1100 H       1  UNL1        0.0636
     55 H          -0.7344   -3.0448   -1.3771 H       1  UNL1        0.0625
     56 H           1.7064   -1.7708    0.6548 H       1  UNL1        0.0301
     57 H           2.4238   -0.6015    1.7766 H       1  UNL1        0.0301
     58 H           3.7242   -2.3269   -0.3209 H       1  UNL1        0.0466
     59 H           4.0086   -2.3882    1.4258 H       1  UNL1        0.0466
@<TRIPOS>BOND
     1     1     2    1
     2     2     3    1
     3     3     4    2
     4     3     5   am
     5     5     6    1
     6     6     7    1
     7     7     8    1
     8     8     9    1
     9     9    10   ar
    10    10    11   ar
    11    11    12   ar
    12    12    13   ar
    13    13    14    1
    14    14    15    1
    15    15    16    1
    16    16    17    1
    17    17    18    1
    18    18    19    1
    19    13    20   ar
    20    20    21   ar
    21    21    22    1
    22    22    23   ar
    23    23    24   ar
    24    24    25   ar
    25    25    26    1
    26    25    27   ar
    27    27    28   ar
    28    21    29   ar
    29    29    30   ar
    30     8    31    1
    31    31    32    1
    32    32     5    1
    33    30     9   ar
    34    30    12   ar
    35    19    14    1
    36    28    22   ar
    37     1    33    1
    38     1    34    1
    39     1    35    1
    40     6    36    1
    41     6    37    1
    42     7    38    1
    43     7    39    1
    44     8    40    1
    45    11    41    1
    46    15    42    1
    47    15    43    1
    48    16    44    1
    49    16    45    1
    50    18    46    1
    51    18    47    1
    52    19    48    1
    53    19    49    1
    54    23    50    1
    55    24    51    1
    56    26    52    1
    57    26    53    1
    58    27    54    1
    59    28    55    1
    60    31    56    1
    61    31    57    1
    62    32    58    1
    63    32    59    1
