
     RDKit          3D

 59 63  0  0  0  0  0  0  0  0999 V2000
    8.3949   -0.1728    1.5917 C   0  0  0  0  0  0  0  0  0  0  0  0
    7.1763   -0.0586    0.8682 O   0  0  0  0  0  0  0  0  0  0  0  0
    6.1024   -0.9303    1.0967 C   0  0  0  0  0  0  0  0  0  0  0  0
    6.2810   -1.8115    1.9729 O   0  0  0  0  0  0  0  0  0  0  0  0
    4.9094   -0.7871    0.3604 N   0  0  0  0  0  0  0  0  0  0  0  0
    4.7827    0.2507   -0.6287 C   0  0  0  0  0  0  0  0  0  0  0  0
    3.4996    0.9995   -0.3283 C   0  0  0  0  0  0  0  0  0  0  0  0
    2.2975    0.0803   -0.3065 C   0  0  0  0  0  0  0  0  0  0  0  0
    1.1385    0.8991   -0.0552 N   0  0  0  0  0  0  0  0  0  0  0  0
    1.0728    2.1535    0.3555 N   0  0  0  0  0  0  0  0  0  0  0  0
   -0.1741    2.5746    0.4750 C   0  0  0  0  0  0  0  0  0  0  0  0
   -0.9798    1.5333    0.1213 C   0  0  0  0  0  0  0  0  0  0  0  0
   -2.3684    1.3834    0.0514 C   0  0  0  0  0  0  0  0  0  0  0  0
   -3.1738    2.4826    0.4000 N   0  0  0  0  0  0  0  0  0  0  0  0
   -3.1615    3.7785   -0.2483 C   0  0  0  0  0  0  0  0  0  0  0  0
   -3.3522    4.8150    0.8389 C   0  0  0  0  0  0  0  0  0  0  0  0
   -4.6440    4.7120    1.3362 O   0  0  0  0  0  0  0  0  0  0  0  0
   -5.1644    3.4476    1.2801 C   0  0  0  0  0  0  0  0  0  0  0  0
   -4.1150    2.3613    1.4962 C   0  0  0  0  0  0  0  0  0  0  0  0
   -2.8346    0.1910   -0.3467 N   0  0  0  0  0  0  0  0  0  0  0  0
   -2.0450   -0.8471   -0.6755 C   0  0  0  0  0  0  0  0  0  0  0  0
   -2.6154   -2.1370   -1.1072 C   0  0  0  0  0  0  0  0  0  0  0  0
   -3.9762   -2.3332   -1.1918 C   0  0  0  0  0  0  0  0  0  0  0  0
   -4.4908   -3.5597   -1.6018 C   0  0  0  0  0  0  0  0  0  0  0  0
   -3.6359   -4.5992   -1.9302 C   0  0  0  0  0  0  0  0  0  0  0  0
   -4.1558   -5.8563   -2.3503 N   0  0  0  0  0  0  0  0  0  0  0  0
   -2.2528   -4.4250   -1.8525 C   0  0  0  0  0  0  0  0  0  0  0  0
   -1.8003   -3.1913   -1.4410 C   0  0  0  0  0  0  0  0  0  0  0  0
   -0.7143   -0.6708   -0.5979 N   0  0  0  0  0  0  0  0  0  0  0  0
   -0.1389    0.4891   -0.2088 C   0  0  0  0  0  0  0  0  0  0  0  0
    2.4837   -0.9852    0.7427 C   0  0  0  0  0  0  0  0  0  0  0  0
    3.8179   -1.6811    0.5996 C   0  0  0  0  0  0  0  0  0  0  0  0
    9.0159    0.6903    1.3157 H   0  0  0  0  0  0  0  0  0  0  0  0
    8.2293   -0.2081    2.6803 H   0  0  0  0  0  0  0  0  0  0  0  0
    8.8917   -1.0901    1.2031 H   0  0  0  0  0  0  0  0  0  0  0  0
    4.7731   -0.1482   -1.6675 H   0  0  0  0  0  0  0  0  0  0  0  0
    5.6001    1.0003   -0.5769 H   0  0  0  0  0  0  0  0  0  0  0  0
    3.6172    1.3888    0.7230 H   0  0  0  0  0  0  0  0  0  0  0  0
    3.3378    1.8207   -1.0407 H   0  0  0  0  0  0  0  0  0  0  0  0
    2.2674   -0.4346   -1.2893 H   0  0  0  0  0  0  0  0  0  0  0  0
   -0.5770    3.5416    0.7863 H   0  0  0  0  0  0  0  0  0  0  0  0
   -4.0345    3.7729   -0.9582 H   0  0  0  0  0  0  0  0  0  0  0  0
   -2.2754    3.9643   -0.8556 H   0  0  0  0  0  0  0  0  0  0  0  0
   -2.6685    4.5359    1.6683 H   0  0  0  0  0  0  0  0  0  0  0  0
   -3.0888    5.8285    0.5321 H   0  0  0  0  0  0  0  0  0  0  0  0
   -5.8930    3.3341    2.1103 H   0  0  0  0  0  0  0  0  0  0  0  0
   -5.7414    3.2635    0.3457 H   0  0  0  0  0  0  0  0  0  0  0  0
   -3.6666    2.5201    2.4799 H   0  0  0  0  0  0  0  0  0  0  0  0
   -4.6438    1.3944    1.3861 H   0  0  0  0  0  0  0  0  0  0  0  0
   -4.6493   -1.5431   -0.9426 H   0  0  0  0  0  0  0  0  0  0  0  0
   -5.5520   -3.7400   -1.6768 H   0  0  0  0  0  0  0  0  0  0  0  0
   -3.5790   -6.7006   -2.1398 H   0  0  0  0  0  0  0  0  0  0  0  0
   -5.0777   -5.9235   -2.8485 H   0  0  0  0  0  0  0  0  0  0  0  0
   -1.5775   -5.2403   -2.1100 H   0  0  0  0  0  0  0  0  0  0  0  0
   -0.7344   -3.0448   -1.3771 H   0  0  0  0  0  0  0  0  0  0  0  0
    1.7064   -1.7708    0.6548 H   0  0  0  0  0  0  0  0  0  0  0  0
    2.4238   -0.6015    1.7766 H   0  0  0  0  0  0  0  0  0  0  0  0
    3.7242   -2.3269   -0.3209 H   0  0  0  0  0  0  0  0  0  0  0  0
    4.0086   -2.3882    1.4258 H   0  0  0  0  0  0  0  0  0  0  0  0
  1  2  1  0
  2  3  1  0
  3  4  2  0
  3  5  1  0
  5  6  1  0
  6  7  1  0
  7  8  1  0
  8  9  1  0
  9 10  1  0
 10 11  2  0
 11 12  1  0
 12 13  2  0
 13 14  1  0
 14 15  1  0
 15 16  1  0
 16 17  1  0
 17 18  1  0
 18 19  1  0
 13 20  1  0
 20 21  2  0
 21 22  1  0
 22 23  2  0
 23 24  1  0
 24 25  2  0
 25 26  1  0
 25 27  1  0
 27 28  2  0
 21 29  1  0
 29 30  2  0
  8 31  1  0
 31 32  1  0
 32  5  1  0
 30  9  1  0
 30 12  1  0
 19 14  1  0
 28 22  1  0
  1 33  1  0
  1 34  1  0
  1 35  1  0
  6 36  1  0
  6 37  1  0
  7 38  1  0
  7 39  1  0
  8 40  1  0
 11 41  1  0
 15 42  1  0
 15 43  1  0
 16 44  1  0
 16 45  1  0
 18 46  1  0
 18 47  1  0
 19 48  1  0
 19 49  1  0
 23 50  1  0
 24 51  1  0
 26 52  1  0
 26 53  1  0
 27 54  1  0
 28 55  1  0
 31 56  1  0
 31 57  1  0
 32 58  1  0
 32 59  1  0
M  END
$$$$
