@<TRIPOS>MOLECULE
*****
 36 37 0 0 0
SMALL
GASTEIGER

@<TRIPOS>ATOM
      1 C           1.8374    1.0912    1.5847 C.3     1  UNL1        0.1939
      2 F           2.9620    0.3482    1.8646 F       1  UNL1       -0.2313
      3 C           1.2675    1.7326    2.7795 C.2     1  UNL1        0.1404
      4 F           2.2128    2.4833    3.3931 F       1  UNL1       -0.2067
      5 C           0.0416    1.6460    3.2522 C.2     1  UNL1       -0.0266
      6 C          -0.9200    0.8175    2.5352 C.2     1  UNL1       -0.0452
      7 C          -0.6030    0.1562    1.4351 C.2     1  UNL1        0.0632
      8 C          -1.4786   -0.6978    0.6398 C.2     1  UNL1        0.2685
      9 O          -1.1457   -1.3086   -0.3958 O.2     1  UNL1       -0.2680
     10 N          -2.8364   -0.9010    1.0100 N.am    1  UNL1       -0.1904
     11 O          -3.7493   -1.6635    0.3638 O.3     1  UNL1       -0.2773
     12 C          -4.3786   -0.8356   -0.5647 C.3     1  UNL1        0.0963
     13 C          -5.4380   -1.5524   -1.3743 C.3     1  UNL1        0.0698
     14 O          -5.9879   -0.6032   -2.2661 O.3     1  UNL1       -0.3927
     15 C           0.7698    0.2766    0.9393 C.2     1  UNL1        0.0946
     16 N           1.1661   -0.3454   -0.1433 N.2     1  UNL1       -0.2452
     17 C           2.5099   -0.2015   -0.5914 C.ar    1  UNL1        0.0994
     18 C           3.4805   -1.1648   -0.3356 C.ar    1  UNL1        0.1496
     19 F           3.1019   -2.2453    0.3554 F       1  UNL1       -0.2032
     20 C           4.7777   -1.0071   -0.7784 C.ar    1  UNL1       -0.0112
     21 C           5.1609    0.1132   -1.4922 C.ar    1  UNL1        0.0162
     22 I           7.1728    0.2221   -2.1054 I       1  UNL1       -0.0437
     23 C           4.1952    1.0775   -1.7500 C.ar    1  UNL1       -0.0464
     24 C           2.9038    0.9240   -1.3110 C.ar    1  UNL1       -0.0325
     25 H           2.1451    1.8571    0.8437 H       1  UNL1        0.0792
     26 H          -0.2649    2.1678    4.1477 H       1  UNL1        0.0644
     27 H          -1.9262    0.7086    2.8691 H       1  UNL1        0.0626
     28 H          -3.2586   -0.4551    1.8532 H       1  UNL1        0.1828
     29 H          -3.5774   -0.4584   -1.2647 H       1  UNL1        0.0606
     30 H          -4.8124    0.0481   -0.0544 H       1  UNL1        0.0606
     31 H          -5.0153   -2.3323   -2.0096 H       1  UNL1        0.0581
     32 H          -6.2431   -1.8796   -0.6854 H       1  UNL1        0.0581
     33 H          -6.3257    0.1523   -1.7152 H       1  UNL1        0.2095
     34 H           5.4684   -1.8117   -0.5316 H       1  UNL1        0.0657
     35 H           4.5750    1.9243   -2.3145 H       1  UNL1        0.0629
     36 H           2.2126    1.7166   -1.5512 H       1  UNL1        0.0640
@<TRIPOS>BOND
     1     1     2    1
     2     1     3    1
     3     3     4    1
     4     3     5    2
     5     5     6    1
     6     6     7    2
     7     7     8    1
     8     8     9    2
     9     8    10   am
    10    10    11    1
    11    11    12    1
    12    12    13    1
    13    13    14    1
    14     7    15    1
    15    15    16    2
    16    16    17    1
    17    17    18   ar
    18    18    19    1
    19    18    20   ar
    20    20    21   ar
    21    21    22    1
    22    21    23   ar
    23    23    24   ar
    24    15     1    1
    25    24    17   ar
    26     1    25    1
    27     5    26    1
    28     6    27    1
    29    10    28    1
    30    12    29    1
    31    12    30    1
    32    13    31    1
    33    13    32    1
    34    14    33    1
    35    20    34    1
    36    23    35    1
    37    24    36    1
