@<TRIPOS>MOLECULE
*****
 31 33 0 0 0
SMALL
GASTEIGER

@<TRIPOS>ATOM
      1 C           1.9447    2.3004   -0.0395 C.3     1  UNL1       -0.0341
      2 C           1.0003    1.1482   -0.0302 C.2     1  UNL1        0.0228
      3 C           1.4476   -0.0889    0.0032 C.2     1  UNL1        0.0842
      4 N           2.8785   -0.2851    0.0303 N.pl3   1  UNL1       -0.3237
      5 C           3.8393   -0.7906    1.1122 C.3     1  UNL1        0.0281
      6 C           4.3603   -0.4136   -0.1544 C.3     1  UNL1        0.0281
      7 C           0.5351   -1.2286    0.0128 C.2     1  UNL1        0.2074
      8 O           1.0092   -2.3889    0.0450 O.2     1  UNL1       -0.2855
      9 C          -0.8997   -0.9742   -0.0156 C.2     1  UNL1        0.0510
     10 C          -1.8266   -2.1351   -0.0058 C.3     1  UNL1        0.0748
     11 O          -1.5236   -2.8922   -1.1616 O.3     1  UNL1       -0.3902
     12 C          -1.3134    0.2757   -0.0487 C.2     1  UNL1        0.0866
     13 N          -2.7118    0.5285   -0.0765 N.pl3   1  UNL1       -0.3236
     14 C          -3.9547    0.6980   -0.7889 C.3     1  UNL1        0.0281
     15 C          -3.9046    0.8067    0.6793 C.3     1  UNL1        0.0281
     16 C          -0.4228    1.4425   -0.0592 C.2     1  UNL1        0.2050
     17 O          -0.9254    2.6101   -0.0920 O.2     1  UNL1       -0.2856
     18 H           1.9146    2.7349   -1.0800 H       1  UNL1        0.0279
     19 H           2.9690    2.0098    0.2492 H       1  UNL1        0.0279
     20 H           1.5097    3.0767    0.6236 H       1  UNL1        0.0279
     21 H           3.7217   -1.8671    1.3521 H       1  UNL1        0.0479
     22 H           3.9278   -0.1541    1.9938 H       1  UNL1        0.0479
     23 H           4.8241    0.5833   -0.3231 H       1  UNL1        0.0479
     24 H           4.6883   -1.1750   -0.8842 H       1  UNL1        0.0479
     25 H          -1.6134   -2.7161    0.9110 H       1  UNL1        0.0609
     26 H          -2.8461   -1.7246   -0.0247 H       1  UNL1        0.0609
     27 H          -1.9264   -2.4378   -1.9403 H       1  UNL1        0.2099
     28 H          -4.0344    1.5845   -1.4283 H       1  UNL1        0.0479
     29 H          -4.3204   -0.2665   -1.2429 H       1  UNL1        0.0479
     30 H          -4.0527    1.8022    1.1334 H       1  UNL1        0.0479
     31 H          -4.2938   -0.0631    1.2497 H       1  UNL1        0.0479
@<TRIPOS>BOND
     1     1     2    1
     2     2     3    2
     3     3     4    1
     4     4     5    1
     5     5     6    1
     6     3     7    1
     7     7     8    2
     8     7     9    1
     9     9    10    1
    10    10    11    1
    11     9    12    2
    12    12    13    1
    13    13    14    1
    14    14    15    1
    15    12    16    1
    16    16    17    2
    17    16     2    1
    18     6     4    1
    19    15    13    1
    20     1    18    1
    21     1    19    1
    22     1    20    1
    23     5    21    1
    24     5    22    1
    25     6    23    1
    26     6    24    1
    27    10    25    1
    28    10    26    1
    29    11    27    1
    30    14    28    1
    31    14    29    1
    32    15    30    1
    33    15    31    1
