
     RDKit          3D

 31 33  0  0  0  0  0  0  0  0999 V2000
    1.9447    2.3004   -0.0395 C   0  0  0  0  0  0  0  0  0  0  0  0
    1.0003    1.1482   -0.0302 C   0  0  0  0  0  0  0  0  0  0  0  0
    1.4476   -0.0889    0.0032 C   0  0  0  0  0  0  0  0  0  0  0  0
    2.8785   -0.2851    0.0303 N   0  0  0  0  0  0  0  0  0  0  0  0
    3.8393   -0.7906    1.1122 C   0  0  0  0  0  0  0  0  0  0  0  0
    4.3603   -0.4136   -0.1544 C   0  0  0  0  0  0  0  0  0  0  0  0
    0.5351   -1.2286    0.0128 C   0  0  0  0  0  0  0  0  0  0  0  0
    1.0092   -2.3889    0.0450 O   0  0  0  0  0  0  0  0  0  0  0  0
   -0.8997   -0.9742   -0.0156 C   0  0  0  0  0  0  0  0  0  0  0  0
   -1.8266   -2.1351   -0.0058 C   0  0  0  0  0  0  0  0  0  0  0  0
   -1.5236   -2.8922   -1.1616 O   0  0  0  0  0  0  0  0  0  0  0  0
   -1.3134    0.2757   -0.0487 C   0  0  0  0  0  0  0  0  0  0  0  0
   -2.7118    0.5285   -0.0765 N   0  0  0  0  0  0  0  0  0  0  0  0
   -3.9547    0.6980   -0.7889 C   0  0  0  0  0  0  0  0  0  0  0  0
   -3.9046    0.8067    0.6793 C   0  0  0  0  0  0  0  0  0  0  0  0
   -0.4228    1.4425   -0.0592 C   0  0  0  0  0  0  0  0  0  0  0  0
   -0.9254    2.6101   -0.0920 O   0  0  0  0  0  0  0  0  0  0  0  0
    1.9146    2.7349   -1.0800 H   0  0  0  0  0  0  0  0  0  0  0  0
    2.9690    2.0098    0.2492 H   0  0  0  0  0  0  0  0  0  0  0  0
    1.5097    3.0767    0.6236 H   0  0  0  0  0  0  0  0  0  0  0  0
    3.7217   -1.8671    1.3521 H   0  0  0  0  0  0  0  0  0  0  0  0
    3.9278   -0.1541    1.9938 H   0  0  0  0  0  0  0  0  0  0  0  0
    4.8241    0.5833   -0.3231 H   0  0  0  0  0  0  0  0  0  0  0  0
    4.6883   -1.1750   -0.8842 H   0  0  0  0  0  0  0  0  0  0  0  0
   -1.6134   -2.7161    0.9110 H   0  0  0  0  0  0  0  0  0  0  0  0
   -2.8461   -1.7246   -0.0247 H   0  0  0  0  0  0  0  0  0  0  0  0
   -1.9264   -2.4378   -1.9403 H   0  0  0  0  0  0  0  0  0  0  0  0
   -4.0344    1.5845   -1.4283 H   0  0  0  0  0  0  0  0  0  0  0  0
   -4.3204   -0.2665   -1.2429 H   0  0  0  0  0  0  0  0  0  0  0  0
   -4.0527    1.8022    1.1334 H   0  0  0  0  0  0  0  0  0  0  0  0
   -4.2938   -0.0631    1.2497 H   0  0  0  0  0  0  0  0  0  0  0  0
  1  2  1  0
  2  3  2  0
  3  4  1  0
  4  5  1  0
  5  6  1  0
  3  7  1  0
  7  8  2  0
  7  9  1  0
  9 10  1  0
 10 11  1  0
  9 12  2  0
 12 13  1  0
 13 14  1  0
 14 15  1  0
 12 16  1  0
 16 17  2  0
 16  2  1  0
  6  4  1  0
 15 13  1  0
  1 18  1  0
  1 19  1  0
  1 20  1  0
  5 21  1  0
  5 22  1  0
  6 23  1  0
  6 24  1  0
 10 25  1  0
 10 26  1  0
 11 27  1  0
 14 28  1  0
 14 29  1  0
 15 30  1  0
 15 31  1  0
M  END
$$$$
