@<TRIPOS>MOLECULE
*****
 44 45 0 0 0
SMALL
GASTEIGER

@<TRIPOS>ATOM
      1 C          -1.2974    4.1843   -0.8305 C.3     1  UNL1       -0.0526
      2 C          -0.5864    2.8509   -1.0910 C.3     1  UNL1       -0.0064
      3 N          -1.3446    1.7982   -0.4657 N.3     1  UNL1       -0.3084
      4 C          -0.7669    0.5248   -0.6838 C.3     1  UNL1        0.0498
      5 C           0.6037    0.3041   -0.1025 C.3     1  UNL1        0.0401
      6 N           1.2953   -0.6167   -0.9763 N.3     1  UNL1       -0.1742
      7 C           2.6736   -0.7813   -0.7154 C.3     1  UNL1        0.0227
      8 C           3.0078   -0.9494    0.7501 C.3     1  UNL1       -0.0150
      9 C           4.4985   -1.1202    0.9569 C.3     1  UNL1        0.0485
     10 O           5.2259   -0.0489    0.5053 O.3     1  UNL1       -0.3829
     11 C           4.9221    1.1460    1.1091 C.3     1  UNL1        0.0364
     12 S           0.4163   -2.0547   -1.2534 S.O2    1  UNL1        0.0675
     13 O           0.1939   -2.2068   -2.7318 O.2     1  UNL1       -0.1523
     14 O           1.0785   -3.2680   -0.7164 O.2     1  UNL1       -0.1523
     15 C          -1.1811   -1.8523   -0.5236 C.ar    1  UNL1        0.1491
     16 S          -2.4270   -2.9407    0.0315 S.2     1  UNL1       -0.0484
     17 C          -3.5838   -1.6656    0.5749 C.ar    1  UNL1        0.1443
     18 S          -5.1625   -1.9441    1.2909 S.O2    1  UNL1        0.0623
     19 N          -6.1796   -2.8260    0.1994 N.3     1  UNL1       -0.2030
     20 O          -4.9269   -2.7312    2.5558 O.2     1  UNL1       -0.1527
     21 O          -5.8280   -0.6421    1.5634 O.2     1  UNL1       -0.1527
     22 C          -2.9098   -0.5129    0.2815 C.ar    1  UNL1       -0.0214
     23 C          -1.6959   -0.5981   -0.2734 C.ar    1  UNL1        0.0063
     24 H          -0.6364    4.9615   -1.2331 H       1  UNL1        0.0242
     25 H          -2.2575    4.2459   -1.3638 H       1  UNL1        0.0242
     26 H          -1.4201    4.3029    0.2826 H       1  UNL1        0.0242
     27 H          -0.5510    2.7491   -2.1982 H       1  UNL1        0.0421
     28 H           0.4322    2.9744   -0.7147 H       1  UNL1        0.0421
     29 H          -1.4359    2.0275    0.5468 H       1  UNL1        0.1225
     30 H          -0.6920    0.3847   -1.8056 H       1  UNL1        0.0524
     31 H           0.5444   -0.0726    0.9412 H       1  UNL1        0.0463
     32 H           1.1816    1.2373   -0.1126 H       1  UNL1        0.0463
     33 H           3.0710   -1.5988   -1.3153 H       1  UNL1        0.0445
     34 H           3.2073    0.1569   -1.0470 H       1  UNL1        0.0445
     35 H           2.6728   -0.0760    1.3456 H       1  UNL1        0.0300
     36 H           2.4821   -1.8357    1.1545 H       1  UNL1        0.0300
     37 H           4.8166   -2.0090    0.3459 H       1  UNL1        0.0560
     38 H           4.6865   -1.3961    2.0032 H       1  UNL1        0.0560
     39 H           5.5913    1.9228    0.6409 H       1  UNL1        0.0523
     40 H           3.8942    1.5066    0.9398 H       1  UNL1        0.0523
     41 H           5.1333    1.1794    2.1891 H       1  UNL1        0.0523
     42 H          -7.1135   -2.8950    0.6405 H       1  UNL1        0.1443
     43 H          -6.1957   -2.2741   -0.6944 H       1  UNL1        0.1443
     44 H          -3.4372    0.4592    0.5339 H       1  UNL1        0.0646
@<TRIPOS>BOND
     1     1     2    1
     2     2     3    1
     3     3     4    1
     4     4     5    1
     5     5     6    1
     6     6     7    1
     7     7     8    1
     8     8     9    1
     9     9    10    1
    10    10    11    1
    11     6    12    1
    12    12    13    2
    13    12    14    2
    14    12    15    1
    15    15    16   ar
    16    16    17   ar
    17    17    18    1
    18    18    19    1
    19    18    20    2
    20    18    21    2
    21    17    22   ar
    22    22    23   ar
    23    23     4    1
    24    23    15   ar
    25     1    24    1
    26     1    25    1
    27     1    26    1
    28     2    27    1
    29     2    28    1
    30     3    29    1
    31     4    30    1
    32     5    31    1
    33     5    32    1
    34     7    33    1
    35     7    34    1
    36     8    35    1
    37     8    36    1
    38     9    37    1
    39     9    38    1
    40    11    39    1
    41    11    40    1
    42    11    41    1
    43    19    42    1
    44    19    43    1
    45    22    44    1
