
     RDKit          3D

 44 45  0  0  0  0  0  0  0  0999 V2000
   -1.2974    4.1843   -0.8305 C   0  0  0  0  0  0  0  0  0  0  0  0
   -0.5864    2.8509   -1.0910 C   0  0  0  0  0  0  0  0  0  0  0  0
   -1.3446    1.7982   -0.4657 N   0  0  0  0  0  0  0  0  0  0  0  0
   -0.7669    0.5248   -0.6838 C   0  0  1  0  0  0  0  0  0  0  0  0
    0.6037    0.3041   -0.1025 C   0  0  0  0  0  0  0  0  0  0  0  0
    1.2953   -0.6167   -0.9763 N   0  0  0  0  0  0  0  0  0  0  0  0
    2.6736   -0.7813   -0.7154 C   0  0  0  0  0  0  0  0  0  0  0  0
    3.0078   -0.9494    0.7501 C   0  0  0  0  0  0  0  0  0  0  0  0
    4.4985   -1.1202    0.9569 C   0  0  0  0  0  0  0  0  0  0  0  0
    5.2259   -0.0489    0.5053 O   0  0  0  0  0  0  0  0  0  0  0  0
    4.9221    1.1460    1.1091 C   0  0  0  0  0  0  0  0  0  0  0  0
    0.4163   -2.0547   -1.2534 S   0  0  0  0  0  6  0  0  0  0  0  0
    0.1939   -2.2068   -2.7318 O   0  0  0  0  0  0  0  0  0  0  0  0
    1.0785   -3.2680   -0.7164 O   0  0  0  0  0  0  0  0  0  0  0  0
   -1.1811   -1.8523   -0.5236 C   0  0  0  0  0  0  0  0  0  0  0  0
   -2.4270   -2.9407    0.0315 S   0  0  0  0  0  0  0  0  0  0  0  0
   -3.5838   -1.6656    0.5749 C   0  0  0  0  0  0  0  0  0  0  0  0
   -5.1625   -1.9441    1.2909 S   0  0  0  0  0  6  0  0  0  0  0  0
   -6.1796   -2.8260    0.1994 N   0  0  0  0  0  0  0  0  0  0  0  0
   -4.9269   -2.7312    2.5558 O   0  0  0  0  0  0  0  0  0  0  0  0
   -5.8280   -0.6421    1.5634 O   0  0  0  0  0  0  0  0  0  0  0  0
   -2.9098   -0.5129    0.2815 C   0  0  0  0  0  0  0  0  0  0  0  0
   -1.6959   -0.5981   -0.2734 C   0  0  0  0  0  0  0  0  0  0  0  0
   -0.6364    4.9615   -1.2331 H   0  0  0  0  0  0  0  0  0  0  0  0
   -2.2575    4.2459   -1.3638 H   0  0  0  0  0  0  0  0  0  0  0  0
   -1.4201    4.3029    0.2826 H   0  0  0  0  0  0  0  0  0  0  0  0
   -0.5510    2.7491   -2.1982 H   0  0  0  0  0  0  0  0  0  0  0  0
    0.4322    2.9744   -0.7147 H   0  0  0  0  0  0  0  0  0  0  0  0
   -1.4359    2.0275    0.5468 H   0  0  0  0  0  0  0  0  0  0  0  0
   -0.6920    0.3847   -1.8056 H   0  0  0  0  0  0  0  0  0  0  0  0
    0.5444   -0.0726    0.9412 H   0  0  0  0  0  0  0  0  0  0  0  0
    1.1816    1.2373   -0.1126 H   0  0  0  0  0  0  0  0  0  0  0  0
    3.0710   -1.5988   -1.3153 H   0  0  0  0  0  0  0  0  0  0  0  0
    3.2073    0.1569   -1.0470 H   0  0  0  0  0  0  0  0  0  0  0  0
    2.6728   -0.0760    1.3456 H   0  0  0  0  0  0  0  0  0  0  0  0
    2.4821   -1.8357    1.1545 H   0  0  0  0  0  0  0  0  0  0  0  0
    4.8166   -2.0090    0.3459 H   0  0  0  0  0  0  0  0  0  0  0  0
    4.6865   -1.3961    2.0032 H   0  0  0  0  0  0  0  0  0  0  0  0
    5.5913    1.9228    0.6409 H   0  0  0  0  0  0  0  0  0  0  0  0
    3.8942    1.5066    0.9398 H   0  0  0  0  0  0  0  0  0  0  0  0
    5.1333    1.1794    2.1891 H   0  0  0  0  0  0  0  0  0  0  0  0
   -7.1135   -2.8950    0.6405 H   0  0  0  0  0  0  0  0  0  0  0  0
   -6.1957   -2.2741   -0.6944 H   0  0  0  0  0  0  0  0  0  0  0  0
   -3.4372    0.4592    0.5339 H   0  0  0  0  0  0  0  0  0  0  0  0
  1  2  1  0
  2  3  1  0
  3  4  1  0
  4  5  1  0
  5  6  1  0
  6  7  1  0
  7  8  1  0
  8  9  1  0
  9 10  1  0
 10 11  1  0
  6 12  1  0
 12 13  2  0
 12 14  2  0
 12 15  1  0
 15 16  1  0
 16 17  1  0
 17 18  1  0
 18 19  1  0
 18 20  2  0
 18 21  2  0
 17 22  2  0
 22 23  1  0
 23  4  1  0
 23 15  2  0
  1 24  1  0
  1 25  1  0
  1 26  1  0
  2 27  1  0
  2 28  1  0
  3 29  1  0
  4 30  1  6
  5 31  1  0
  5 32  1  0
  7 33  1  0
  7 34  1  0
  8 35  1  0
  8 36  1  0
  9 37  1  0
  9 38  1  0
 11 39  1  0
 11 40  1  0
 11 41  1  0
 19 42  1  0
 19 43  1  0
 22 44  1  0
M  END
$$$$
