@<TRIPOS>MOLECULE
*****
 47 46 0 0 0
SMALL
GASTEIGER

@<TRIPOS>ATOM
      1 C           6.2006    1.0779   -1.3561 C.3     1  UNL1       -0.0653
      2 C           5.6226   -0.0374   -0.4991 C.3     1  UNL1       -0.0559
      3 C           4.3289    0.5147    0.0754 C.3     1  UNL1       -0.0533
      4 C           3.6305   -0.4706    0.9513 C.3     1  UNL1       -0.0531
      5 C           2.3638    0.1055    1.5195 C.3     1  UNL1       -0.0531
      6 C           1.4192    0.4915    0.4544 C.3     1  UNL1       -0.0531
      7 C           0.9647   -0.5911   -0.4771 C.3     1  UNL1       -0.0531
      8 C           0.2712   -1.7278    0.1199 C.3     1  UNL1       -0.0531
      9 C          -0.9598   -1.5618    0.9154 C.3     1  UNL1       -0.0529
     10 C          -2.1990   -1.0122    0.3297 C.3     1  UNL1       -0.0483
     11 C          -2.2364    0.3492   -0.2201 C.3     1  UNL1       -0.0126
     12 C          -3.6735    0.6770   -0.6892 C.3     1  UNL1       -0.0332
     13 N          -4.6247    0.6452    0.3682 N.3     1  UNL1        0.2128
     14 C          -5.3492   -0.6068    0.3219 C.3     1  UNL1       -0.0441
     15 C          -5.6136    1.7384    0.2097 C.3     1  UNL1       -0.0441
     16 O          -4.0846    0.8794    1.6040 O.co2   1  UNL1       -0.7759
     17 H           6.1093    2.0619   -0.8550 H       1  UNL1        0.0230
     18 H           5.5251    1.1451   -2.2561 H       1  UNL1        0.0230
     19 H           7.2525    0.8937   -1.6468 H       1  UNL1        0.0230
     20 H           6.2876   -0.3360    0.3285 H       1  UNL1        0.0263
     21 H           5.3848   -0.9129   -1.1377 H       1  UNL1        0.0263
     22 H           3.6699    0.8661   -0.7440 H       1  UNL1        0.0265
     23 H           4.6014    1.4008    0.6827 H       1  UNL1        0.0265
     24 H           3.4032   -1.3593    0.3035 H       1  UNL1        0.0265
     25 H           4.3081   -0.8615    1.7432 H       1  UNL1        0.0265
     26 H           1.9237   -0.5367    2.3138 H       1  UNL1        0.0265
     27 H           2.6157    1.0561    2.0822 H       1  UNL1        0.0265
     28 H           0.5108    0.9811    0.9408 H       1  UNL1        0.0265
     29 H           1.8386    1.3130   -0.1537 H       1  UNL1        0.0265
     30 H           1.8999   -1.0227   -1.0022 H       1  UNL1        0.0265
     31 H           0.4225   -0.1401   -1.3033 H       1  UNL1        0.0265
     32 H          -0.0660   -2.3827   -0.7637 H       1  UNL1        0.0265
     33 H           0.9877   -2.4707    0.6200 H       1  UNL1        0.0265
     34 H          -0.7510   -1.0927    1.9294 H       1  UNL1        0.0265
     35 H          -1.2460   -2.6300    1.2396 H       1  UNL1        0.0265
     36 H          -2.5297   -1.7090   -0.5002 H       1  UNL1        0.0267
     37 H          -2.9799   -1.0744    1.1458 H       1  UNL1        0.0267
     38 H          -1.6933    0.3806   -1.1975 H       1  UNL1        0.0317
     39 H          -1.9564    1.1505    0.4626 H       1  UNL1        0.0317
     40 H          -3.6113    1.6856   -1.1640 H       1  UNL1        0.0813
     41 H          -3.8827   -0.0548   -1.4990 H       1  UNL1        0.0813
     42 H          -4.8721   -1.3501   -0.3436 H       1  UNL1        0.0776
     43 H          -6.4099   -0.4275    0.0323 H       1  UNL1        0.0776
     44 H          -5.3574   -1.0371    1.3540 H       1  UNL1        0.0776
     45 H          -6.2552    1.5803   -0.6566 H       1  UNL1        0.0776
     46 H          -6.1933    1.7495    1.1571 H       1  UNL1        0.0776
     47 H          -4.9975    2.6629    0.0827 H       1  UNL1        0.0776
@<TRIPOS>UNITY_ATOM_ATTR
13 1
charge 1
16 1
charge -1
@<TRIPOS>BOND
     1     1     2    1
     2     2     3    1
     3     3     4    1
     4     4     5    1
     5     5     6    1
     6     6     7    1
     7     7     8    1
     8     8     9    1
     9     9    10    1
    10    10    11    1
    11    11    12    1
    12    12    13    1
    13    13    14    1
    14    13    15    1
    15    13    16    1
    16     1    17    1
    17     1    18    1
    18     1    19    1
    19     2    20    1
    20     2    21    1
    21     3    22    1
    22     3    23    1
    23     4    24    1
    24     4    25    1
    25     5    26    1
    26     5    27    1
    27     6    28    1
    28     6    29    1
    29     7    30    1
    30     7    31    1
    31     8    32    1
    32     8    33    1
    33     9    34    1
    34     9    35    1
    35    10    36    1
    36    10    37    1
    37    11    38    1
    38    11    39    1
    39    12    40    1
    40    12    41    1
    41    14    42    1
    42    14    43    1
    43    14    44    1
    44    15    45    1
    45    15    46    1
    46    15    47    1
