
     RDKit          3D

 47 46  0  0  0  0  0  0  0  0999 V2000
    6.2006    1.0779   -1.3561 C   0  0  0  0  0  0  0  0  0  0  0  0
    5.6226   -0.0374   -0.4991 C   0  0  0  0  0  0  0  0  0  0  0  0
    4.3289    0.5147    0.0754 C   0  0  0  0  0  0  0  0  0  0  0  0
    3.6305   -0.4706    0.9513 C   0  0  0  0  0  0  0  0  0  0  0  0
    2.3638    0.1055    1.5195 C   0  0  0  0  0  0  0  0  0  0  0  0
    1.4192    0.4915    0.4544 C   0  0  0  0  0  0  0  0  0  0  0  0
    0.9647   -0.5911   -0.4771 C   0  0  0  0  0  0  0  0  0  0  0  0
    0.2712   -1.7278    0.1199 C   0  0  0  0  0  0  0  0  0  0  0  0
   -0.9598   -1.5618    0.9154 C   0  0  0  0  0  0  0  0  0  0  0  0
   -2.1990   -1.0122    0.3297 C   0  0  0  0  0  0  0  0  0  0  0  0
   -2.2364    0.3492   -0.2201 C   0  0  0  0  0  0  0  0  0  0  0  0
   -3.6735    0.6770   -0.6892 C   0  0  0  0  0  0  0  0  0  0  0  0
   -4.6247    0.6452    0.3682 N   0  0  0  0  0  4  0  0  0  0  0  0
   -5.3492   -0.6068    0.3219 C   0  0  0  0  0  0  0  0  0  0  0  0
   -5.6136    1.7384    0.2097 C   0  0  0  0  0  0  0  0  0  0  0  0
   -4.0846    0.8794    1.6040 O   0  0  0  0  0  1  0  0  0  0  0  0
    6.1093    2.0619   -0.8550 H   0  0  0  0  0  0  0  0  0  0  0  0
    5.5251    1.1451   -2.2561 H   0  0  0  0  0  0  0  0  0  0  0  0
    7.2525    0.8937   -1.6468 H   0  0  0  0  0  0  0  0  0  0  0  0
    6.2876   -0.3360    0.3285 H   0  0  0  0  0  0  0  0  0  0  0  0
    5.3848   -0.9129   -1.1377 H   0  0  0  0  0  0  0  0  0  0  0  0
    3.6699    0.8661   -0.7440 H   0  0  0  0  0  0  0  0  0  0  0  0
    4.6014    1.4008    0.6827 H   0  0  0  0  0  0  0  0  0  0  0  0
    3.4032   -1.3593    0.3035 H   0  0  0  0  0  0  0  0  0  0  0  0
    4.3081   -0.8615    1.7432 H   0  0  0  0  0  0  0  0  0  0  0  0
    1.9237   -0.5367    2.3138 H   0  0  0  0  0  0  0  0  0  0  0  0
    2.6157    1.0561    2.0822 H   0  0  0  0  0  0  0  0  0  0  0  0
    0.5108    0.9811    0.9408 H   0  0  0  0  0  0  0  0  0  0  0  0
    1.8386    1.3130   -0.1537 H   0  0  0  0  0  0  0  0  0  0  0  0
    1.8999   -1.0227   -1.0022 H   0  0  0  0  0  0  0  0  0  0  0  0
    0.4225   -0.1401   -1.3033 H   0  0  0  0  0  0  0  0  0  0  0  0
   -0.0660   -2.3827   -0.7637 H   0  0  0  0  0  0  0  0  0  0  0  0
    0.9877   -2.4707    0.6200 H   0  0  0  0  0  0  0  0  0  0  0  0
   -0.7510   -1.0927    1.9294 H   0  0  0  0  0  0  0  0  0  0  0  0
   -1.2460   -2.6300    1.2396 H   0  0  0  0  0  0  0  0  0  0  0  0
   -2.5297   -1.7090   -0.5002 H   0  0  0  0  0  0  0  0  0  0  0  0
   -2.9799   -1.0744    1.1458 H   0  0  0  0  0  0  0  0  0  0  0  0
   -1.6933    0.3806   -1.1975 H   0  0  0  0  0  0  0  0  0  0  0  0
   -1.9564    1.1505    0.4626 H   0  0  0  0  0  0  0  0  0  0  0  0
   -3.6113    1.6856   -1.1640 H   0  0  0  0  0  0  0  0  0  0  0  0
   -3.8827   -0.0548   -1.4990 H   0  0  0  0  0  0  0  0  0  0  0  0
   -4.8721   -1.3501   -0.3436 H   0  0  0  0  0  0  0  0  0  0  0  0
   -6.4099   -0.4275    0.0323 H   0  0  0  0  0  0  0  0  0  0  0  0
   -5.3574   -1.0371    1.3540 H   0  0  0  0  0  0  0  0  0  0  0  0
   -6.2552    1.5803   -0.6566 H   0  0  0  0  0  0  0  0  0  0  0  0
   -6.1933    1.7495    1.1571 H   0  0  0  0  0  0  0  0  0  0  0  0
   -4.9975    2.6629    0.0827 H   0  0  0  0  0  0  0  0  0  0  0  0
  1  2  1  0
  2  3  1  0
  3  4  1  0
  4  5  1  0
  5  6  1  0
  6  7  1  0
  7  8  1  0
  8  9  1  0
  9 10  1  0
 10 11  1  0
 11 12  1  0
 12 13  1  0
 13 14  1  0
 13 15  1  0
 13 16  1  0
  1 17  1  0
  1 18  1  0
  1 19  1  0
  2 20  1  0
  2 21  1  0
  3 22  1  0
  3 23  1  0
  4 24  1  0
  4 25  1  0
  5 26  1  0
  5 27  1  0
  6 28  1  0
  6 29  1  0
  7 30  1  0
  7 31  1  0
  8 32  1  0
  8 33  1  0
  9 34  1  0
  9 35  1  0
 10 36  1  0
 10 37  1  0
 11 38  1  0
 11 39  1  0
 12 40  1  0
 12 41  1  0
 14 42  1  0
 14 43  1  0
 14 44  1  0
 15 45  1  0
 15 46  1  0
 15 47  1  0
M  CHG  2  13   1  16  -1
M  END
$$$$
