
     RDKit          3D

 50 52  0  0  0  0  0  0  0  0999 V2000
   -4.0150   -2.4352   -2.3872 C   0  0  0  0  0  0  0  0  0  0  0  0
   -2.8680   -2.1334   -2.0154 O   0  0  0  0  0  0  0  0  0  0  0  0
   -1.6180   -1.8192   -1.6159 C   0  0  0  0  0  0  0  0  0  0  0  0
   -0.5076   -2.5557   -1.6456 C   0  0  0  0  0  0  0  0  0  0  0  0
    0.7253   -2.1476   -1.1086 C   0  0  0  0  0  0  0  0  0  0  0  0
    0.7438   -0.8675   -0.5040 C   0  0  0  0  0  0  0  0  0  0  0  0
    1.9128   -0.4844    0.3176 C   0  0  0  0  0  0  0  0  0  0  0  0
    1.1633    0.1778    1.5677 C   0  0  0  0  0  0  0  0  0  0  0  0
    0.6012    0.6832    2.5380 N   0  0  0  0  0  0  0  0  0  0  0  0
    2.9404    0.4427   -0.0688 C   0  0  0  0  0  0  0  0  0  0  0  0
    3.8454    0.5666    1.1880 C   0  0  0  0  0  0  0  0  0  0  0  0
    4.7103   -0.7375    1.2069 C   0  0  0  0  0  0  0  0  0  0  0  0
    5.4946   -0.8185    2.4434 C   0  0  0  0  0  0  0  0  0  0  0  0
    6.7464   -1.1818    2.3327 O   0  0  0  0  0  0  0  0  0  0  0  0
    5.0662   -0.5408    3.7275 O   0  0  0  0  0  0  0  0  0  0  0  0
    3.9664   -1.8662    0.6675 C   0  0  0  0  0  0  0  0  0  0  0  0
    2.4689   -1.7206    1.0383 C   0  0  0  0  0  0  0  0  0  0  0  0
   -0.3767   -0.1113   -0.4910 C   0  0  0  0  0  0  0  0  0  0  0  0
   -1.5513   -0.4797   -1.0097 C   0  0  0  0  0  0  0  0  0  0  0  0
   -2.6756    0.2314   -1.0486 O   0  0  0  0  0  0  0  0  0  0  0  0
   -2.9675    1.4793   -0.5208 C   0  0  0  0  0  0  0  0  0  0  0  0
   -2.4816    2.6676   -1.3144 C   0  0  0  0  0  0  0  0  0  0  0  0
   -3.4927    3.7648   -0.8207 C   0  0  0  0  0  0  0  0  0  0  0  0
   -4.7427    2.9679   -1.2393 C   0  0  0  0  0  0  0  0  0  0  0  0
   -4.4795    1.6898   -0.4079 C   0  0  0  0  0  0  0  0  0  0  0  0
   -4.2583   -2.2542   -3.5138 H   0  0  0  0  0  0  0  0  0  0  0  0
   -4.8634   -1.8857   -1.8329 H   0  0  0  0  0  0  0  0  0  0  0  0
   -4.2603   -3.5715   -2.2777 H   0  0  0  0  0  0  0  0  0  0  0  0
   -0.5286   -3.5384   -2.1619 H   0  0  0  0  0  0  0  0  0  0  0  0
    1.5907   -2.7556   -1.1913 H   0  0  0  0  0  0  0  0  0  0  0  0
    3.5879    0.0858   -0.8957 H   0  0  0  0  0  0  0  0  0  0  0  0
    2.5363    1.4658   -0.2849 H   0  0  0  0  0  0  0  0  0  0  0  0
    3.1187    0.4676    2.0480 H   0  0  0  0  0  0  0  0  0  0  0  0
    4.4714    1.4252    1.1761 H   0  0  0  0  0  0  0  0  0  0  0  0
    5.5054   -0.4906    0.3996 H   0  0  0  0  0  0  0  0  0  0  0  0
    5.6185    0.0739    4.3416 H   0  0  0  0  0  0  0  0  0  0  0  0
    4.2656   -2.8513    0.8128 H   0  0  0  0  0  0  0  0  0  0  0  0
    3.9285   -1.7785   -0.5017 H   0  0  0  0  0  0  0  0  0  0  0  0
    1.9599   -2.6027    0.7388 H   0  0  0  0  0  0  0  0  0  0  0  0
    2.4502   -1.6113    2.1603 H   0  0  0  0  0  0  0  0  0  0  0  0
   -0.3141    0.9145    0.0186 H   0  0  0  0  0  0  0  0  0  0  0  0
   -2.5287    1.5987    0.5193 H   0  0  0  0  0  0  0  0  0  0  0  0
   -1.4533    2.9450   -1.1744 H   0  0  0  0  0  0  0  0  0  0  0  0
   -2.7534    2.4475   -2.4036 H   0  0  0  0  0  0  0  0  0  0  0  0
   -3.3364    4.6781   -1.2933 H   0  0  0  0  0  0  0  0  0  0  0  0
   -3.4107    3.6838    0.2743 H   0  0  0  0  0  0  0  0  0  0  0  0
   -4.5416    2.7233   -2.3101 H   0  0  0  0  0  0  0  0  0  0  0  0
   -5.6624    3.3901   -0.9706 H   0  0  0  0  0  0  0  0  0  0  0  0
   -4.7880    1.8158    0.6525 H   0  0  0  0  0  0  0  0  0  0  0  0
   -4.9426    0.8532   -0.9356 H   0  0  0  0  0  0  0  0  0  0  0  0
  1  2  1  0
  2  3  1  0
  3  4  2  0
  4  5  1  0
  5  6  2  0
  6  7  1  0
  7  8  1  0
  8  9  3  0
  7 10  1  0
 10 11  1  0
 11 12  1  0
 12 13  1  0
 13 14  2  0
 13 15  1  0
 12 16  1  0
 16 17  1  0
  6 18  1  0
 18 19  2  0
 19 20  1  0
 20 21  1  0
 21 22  1  0
 22 23  1  0
 23 24  1  0
 24 25  1  0
 19  3  1  0
 25 21  1  0
 17  7  1  0
  1 26  1  0
  1 27  1  0
  1 28  1  0
  4 29  1  0
  5 30  1  0
 10 31  1  0
 10 32  1  0
 11 33  1  0
 11 34  1  0
 12 35  1  0
 15 36  1  0
 16 37  1  0
 16 38  1  0
 17 39  1  0
 17 40  1  0
 18 41  1  0
 21 42  1  0
 22 43  1  0
 22 44  1  0
 23 45  1  0
 23 46  1  0
 24 47  1  0
 24 48  1  0
 25 49  1  0
 25 50  1  0
M  END
$$$$
