@<TRIPOS>MOLECULE
*****
 50 52 0 0 0
SMALL
GASTEIGER

@<TRIPOS>ATOM
      1 C          -4.0150   -2.4352   -2.3872 C.3     1  UNL1        0.0790
      2 O          -2.8680   -2.1334   -2.0154 O.3     1  UNL1       -0.4915
      3 C          -1.6180   -1.8192   -1.6159 C.ar    1  UNL1        0.1615
      4 C          -0.5076   -2.5557   -1.6456 C.ar    1  UNL1       -0.0160
      5 C           0.7253   -2.1476   -1.1086 C.ar    1  UNL1       -0.0534
      6 C           0.7438   -0.8675   -0.5040 C.ar    1  UNL1       -0.0238
      7 C           1.9128   -0.4844    0.3176 C.3     1  UNL1        0.0823
      8 C           1.1633    0.1778    1.5677 C.1     1  UNL1        0.0739
      9 N           0.6012    0.6832    2.5380 N.1     1  UNL1       -0.1956
     10 C           2.9404    0.4427   -0.0688 C.3     1  UNL1       -0.0297
     11 C           3.8454    0.5666    1.1880 C.3     1  UNL1       -0.0384
     12 C           4.7103   -0.7375    1.2069 C.3     1  UNL1        0.0564
     13 C           5.4946   -0.8185    2.4434 C.2     1  UNL1        0.3078
     14 O           6.7464   -1.1818    2.3327 O.2     1  UNL1       -0.2507
     15 O           5.0662   -0.5408    3.7275 O.3     1  UNL1       -0.4804
     16 C           3.9664   -1.8662    0.6675 C.3     1  UNL1       -0.0384
     17 C           2.4689   -1.7206    1.0383 C.3     1  UNL1       -0.0297
     18 C          -0.3767   -0.1113   -0.4910 C.ar    1  UNL1       -0.0116
     19 C          -1.5513   -0.4797   -1.0097 C.ar    1  UNL1        0.1626
     20 O          -2.6756    0.2314   -1.0486 O.3     1  UNL1       -0.4852
     21 C          -2.9675    1.4793   -0.5208 C.3     1  UNL1        0.1004
     22 C          -2.4816    2.6676   -1.3144 C.3     1  UNL1       -0.0158
     23 C          -3.4927    3.7648   -0.8207 C.3     1  UNL1       -0.0496
     24 C          -4.7427    2.9679   -1.2393 C.3     1  UNL1       -0.0496
     25 C          -4.4795    1.6898   -0.4079 C.3     1  UNL1       -0.0158
     26 H          -4.2583   -2.2542   -3.5138 H       1  UNL1        0.0660
     27 H          -4.8634   -1.8857   -1.8329 H       1  UNL1        0.0660
     28 H          -4.2603   -3.5715   -2.2777 H       1  UNL1        0.0660
     29 H          -0.5286   -3.5384   -2.1619 H       1  UNL1        0.0655
     30 H           1.5907   -2.7556   -1.1913 H       1  UNL1        0.0622
     31 H           3.5879    0.0858   -0.8957 H       1  UNL1        0.0284
     32 H           2.5363    1.4658   -0.2849 H       1  UNL1        0.0284
     33 H           3.1187    0.4676    2.0480 H       1  UNL1        0.0274
     34 H           4.4714    1.4252    1.1761 H       1  UNL1        0.0274
     35 H           5.5054   -0.4906    0.3996 H       1  UNL1        0.0413
     36 H           5.6185    0.0739    4.3416 H       1  UNL1        0.2951
     37 H           4.2656   -2.8513    0.8128 H       1  UNL1        0.0274
     38 H           3.9285   -1.7785   -0.5017 H       1  UNL1        0.0274
     39 H           1.9599   -2.6027    0.7388 H       1  UNL1        0.0284
     40 H           2.4502   -1.6113    2.1603 H       1  UNL1        0.0284
     41 H          -0.3141    0.9145    0.0186 H       1  UNL1        0.0658
     42 H          -2.5287    1.5987    0.5193 H       1  UNL1        0.0733
     43 H          -1.4533    2.9450   -1.1744 H       1  UNL1        0.0301
     44 H          -2.7534    2.4475   -2.4036 H       1  UNL1        0.0301
     45 H          -3.3364    4.6781   -1.2933 H       1  UNL1        0.0266
     46 H          -3.4107    3.6838    0.2743 H       1  UNL1        0.0266
     47 H          -4.5416    2.7233   -2.3101 H       1  UNL1        0.0266
     48 H          -5.6624    3.3901   -0.9706 H       1  UNL1        0.0266
     49 H          -4.7880    1.8158    0.6525 H       1  UNL1        0.0301
     50 H          -4.9426    0.8532   -0.9356 H       1  UNL1        0.0301
@<TRIPOS>BOND
     1     1     2    1
     2     2     3    1
     3     3     4   ar
     4     4     5   ar
     5     5     6   ar
     6     6     7    1
     7     7     8    1
     8     8     9    3
     9     7    10    1
    10    10    11    1
    11    11    12    1
    12    12    13    1
    13    13    14    2
    14    13    15    1
    15    12    16    1
    16    16    17    1
    17     6    18   ar
    18    18    19   ar
    19    19    20    1
    20    20    21    1
    21    21    22    1
    22    22    23    1
    23    23    24    1
    24    24    25    1
    25    19     3   ar
    26    25    21    1
    27    17     7    1
    28     1    26    1
    29     1    27    1
    30     1    28    1
    31     4    29    1
    32     5    30    1
    33    10    31    1
    34    10    32    1
    35    11    33    1
    36    11    34    1
    37    12    35    1
    38    15    36    1
    39    16    37    1
    40    16    38    1
    41    17    39    1
    42    17    40    1
    43    18    41    1
    44    21    42    1
    45    22    43    1
    46    22    44    1
    47    23    45    1
    48    23    46    1
    49    24    47    1
    50    24    48    1
    51    25    49    1
    52    25    50    1
