
     RDKit          3D

 35 37  0  0  0  0  0  0  0  0999 V2000
   -4.9419   -0.0368   -0.0186 N   0  0  0  0  0  0  0  0  0  0  0  0
   -3.5660    0.3663    0.2100 C   0  0  0  0  0  0  0  0  0  0  0  0
   -2.9297   -0.6626    1.1066 C   0  0  0  0  0  0  0  0  0  0  0  0
   -1.4658   -0.4381    1.3372 C   0  0  0  0  0  0  0  0  0  0  0  0
   -0.9665    0.5692    0.3383 C   0  0  0  0  0  0  0  0  0  0  0  0
    0.3998    0.8989    0.4500 N   0  0  0  0  0  0  0  0  0  0  0  0
    1.3584   -0.1189    0.3058 C   0  0  1  0  0  0  0  0  0  0  0  0
    1.5773   -0.9547   -0.8597 C   0  0  0  0  0  0  0  0  0  0  0  0
    2.4844    0.2152   -0.6967 C   0  0  2  0  0  0  0  0  0  0  0  0
    3.8791    0.0259   -0.2529 C   0  0  0  0  0  0  0  0  0  0  0  0
    4.9738    0.7346   -0.5604 C   0  0  0  0  0  0  0  0  0  0  0  0
    6.1083    0.3449   -0.0191 N   0  0  0  0  0  0  0  0  0  0  0  0
    6.2946   -0.5447    0.7014 C   0  0  0  0  0  0  0  0  0  0  0  0
    4.5103   -1.2079    0.8262 S   0  0  0  0  0  0  0  0  0  0  0  0
   -1.4070    0.1062   -1.0286 C   0  0  0  0  0  0  0  0  0  0  0  0
   -2.8942    0.4444   -1.1428 C   0  0  0  0  0  0  0  0  0  0  0  0
   -5.6120    0.7532    0.1785 H   0  0  0  0  0  0  0  0  0  0  0  0
   -5.1164   -0.3312   -1.0014 H   0  0  0  0  0  0  0  0  0  0  0  0
   -3.5974    1.3462    0.7288 H   0  0  0  0  0  0  0  0  0  0  0  0
   -3.4432   -0.5972    2.0886 H   0  0  0  0  0  0  0  0  0  0  0  0
   -3.1606   -1.6686    0.6847 H   0  0  0  0  0  0  0  0  0  0  0  0
   -1.2588   -0.0342    2.3616 H   0  0  0  0  0  0  0  0  0  0  0  0
   -0.9565   -1.4095    1.2742 H   0  0  0  0  0  0  0  0  0  0  0  0
   -1.5477    1.5171    0.5495 H   0  0  0  0  0  0  0  0  0  0  0  0
    0.6166    1.5611    1.1990 H   0  0  0  0  0  0  0  0  0  0  0  0
    1.7630   -0.5024    1.2897 H   0  0  0  0  0  0  0  0  0  0  0  0
    0.9664   -0.9733   -1.7665 H   0  0  0  0  0  0  0  0  0  0  0  0
    2.0978   -1.9445   -0.6961 H   0  0  0  0  0  0  0  0  0  0  0  0
    2.3390    1.0557   -1.3711 H   0  0  0  0  0  0  0  0  0  0  0  0
    4.9354    1.6091   -1.2376 H   0  0  0  0  0  0  0  0  0  0  0  0
    7.0371   -1.1310    1.3090 H   0  0  0  0  0  0  0  0  0  0  0  0
   -0.8031    0.6519   -1.7817 H   0  0  0  0  0  0  0  0  0  0  0  0
   -1.3413   -0.9970   -1.1278 H   0  0  0  0  0  0  0  0  0  0  0  0
   -2.9359    1.5063   -1.4647 H   0  0  0  0  0  0  0  0  0  0  0  0
   -3.3971   -0.1535   -1.9134 H   0  0  0  0  0  0  0  0  0  0  0  0
  1  2  1  0
  2  3  1  0
  3  4  1  0
  4  5  1  0
  5  6  1  0
  6  7  1  0
  7  8  1  0
  8  9  1  0
  9 10  1  0
 10 11  2  0
 11 12  1  0
 12 13  2  0
 13 14  1  0
  5 15  1  0
 15 16  1  0
 16  2  1  0
  9  7  1  0
 14 10  1  0
  1 17  1  0
  1 18  1  0
  2 19  1  0
  3 20  1  0
  3 21  1  0
  4 22  1  0
  4 23  1  0
  5 24  1  0
  6 25  1  0
  7 26  1  1
  8 27  1  0
  8 28  1  0
  9 29  1  6
 11 30  1  0
 13 31  1  0
 15 32  1  0
 15 33  1  0
 16 34  1  0
 16 35  1  0
M  END
$$$$
