@<TRIPOS>MOLECULE
*****
 35 37 0 0 0
SMALL
GASTEIGER

@<TRIPOS>ATOM
      1 N          -4.9419   -0.0368   -0.0186 N.3     1  UNL1       -0.3272
      2 C          -3.5660    0.3663    0.2100 C.3     1  UNL1        0.0049
      3 C          -2.9297   -0.6626    1.1066 C.3     1  UNL1       -0.0363
      4 C          -1.4658   -0.4381    1.3372 C.3     1  UNL1       -0.0361
      5 C          -0.9665    0.5692    0.3383 C.3     1  UNL1        0.0080
      6 N           0.3998    0.8989    0.4500 N.3     1  UNL1       -0.3099
      7 C           1.3584   -0.1189    0.3058 C.3     1  UNL1        0.0159
      8 C           1.5773   -0.9547   -0.8597 C.3     1  UNL1       -0.0282
      9 C           2.4844    0.2152   -0.6967 C.3     1  UNL1        0.0087
     10 C           3.8791    0.0259   -0.2529 C.ar    1  UNL1        0.0138
     11 C           4.9738    0.7346   -0.5604 C.ar    1  UNL1        0.0382
     12 N           6.1083    0.3449   -0.0191 N.ar    1  UNL1       -0.2554
     13 C           6.2946   -0.5447    0.7014 C.ar    1  UNL1        0.0649
     14 S           4.5103   -1.2079    0.8262 S.2     1  UNL1       -0.0801
     15 C          -1.4070    0.1062   -1.0286 C.3     1  UNL1       -0.0361
     16 C          -2.8942    0.4444   -1.1428 C.3     1  UNL1       -0.0363
     17 H          -5.6120    0.7532    0.1785 H       1  UNL1        0.1185
     18 H          -5.1164   -0.3312   -1.0014 H       1  UNL1        0.1185
     19 H          -3.5974    1.3462    0.7288 H       1  UNL1        0.0458
     20 H          -3.4432   -0.5972    2.0886 H       1  UNL1        0.0281
     21 H          -3.1606   -1.6686    0.6847 H       1  UNL1        0.0281
     22 H          -1.2588   -0.0342    2.3616 H       1  UNL1        0.0281
     23 H          -0.9565   -1.4095    1.2742 H       1  UNL1        0.0281
     24 H          -1.5477    1.5171    0.5495 H       1  UNL1        0.0460
     25 H           0.6166    1.5611    1.1990 H       1  UNL1        0.1225
     26 H           1.7630   -0.5024    1.2897 H       1  UNL1        0.0467
     27 H           0.9664   -0.9733   -1.7665 H       1  UNL1        0.0287
     28 H           2.0978   -1.9445   -0.6961 H       1  UNL1        0.0287
     29 H           2.3390    1.0557   -1.3711 H       1  UNL1        0.0370
     30 H           4.9354    1.6091   -1.2376 H       1  UNL1        0.0838
     31 H           7.0371   -1.1310    1.3090 H       1  UNL1        0.0907
     32 H          -0.8031    0.6519   -1.7817 H       1  UNL1        0.0281
     33 H          -1.3413   -0.9970   -1.1278 H       1  UNL1        0.0281
     34 H          -2.9359    1.5063   -1.4647 H       1  UNL1        0.0281
     35 H          -3.3971   -0.1535   -1.9134 H       1  UNL1        0.0281
@<TRIPOS>BOND
     1     1     2    1
     2     2     3    1
     3     3     4    1
     4     4     5    1
     5     5     6    1
     6     6     7    1
     7     7     8    1
     8     8     9    1
     9     9    10    1
    10    10    11   ar
    11    11    12   ar
    12    12    13   ar
    13    13    14   ar
    14     5    15    1
    15    15    16    1
    16    16     2    1
    17     9     7    1
    18    14    10   ar
    19     1    17    1
    20     1    18    1
    21     2    19    1
    22     3    20    1
    23     3    21    1
    24     4    22    1
    25     4    23    1
    26     5    24    1
    27     6    25    1
    28     7    26    1
    29     8    27    1
    30     8    28    1
    31     9    29    1
    32    11    30    1
    33    13    31    1
    34    15    32    1
    35    15    33    1
    36    16    34    1
    37    16    35    1
