@<TRIPOS>MOLECULE
*****
 30 31 0 0 0
SMALL
GASTEIGER

@<TRIPOS>ATOM
      1 C          -0.8669   -0.5538   -0.2705 C.3     1  UNL1        0.0994
      2 C          -0.4488    0.0934   -1.5263 C.3     1  UNL1        0.0668
      3 N           0.9602    0.2994   -1.6106 N.2     1  UNL1       -0.2630
      4 C           1.8120   -0.0116   -0.7398 C.ar    1  UNL1        0.1596
      5 N           3.1254    0.2450   -0.9530 N.ar    1  UNL1       -0.3112
      6 C           4.0688   -0.0740   -0.0416 C.ar    1  UNL1        0.1953
      7 N           5.4555    0.1680   -0.2055 N.pl3   1  UNL1       -0.3289
      8 N           3.7073   -0.6704    1.1293 N.ar    1  UNL1       -0.1756
      9 C           2.4171   -0.9376    1.3702 C.ar    1  UNL1        0.3017
     10 O           2.0559   -1.4932    2.4548 O.2     1  UNL1       -0.2634
     11 C           1.4424   -0.6105    0.4330 C.ar    1  UNL1        0.1673
     12 N           0.2207   -0.8404    0.6113 N.2     1  UNL1       -0.2675
     13 C          -1.8546    0.2639    0.5361 C.3     1  UNL1        0.1047
     14 O          -1.2876    1.4301    0.9722 O.3     1  UNL1       -0.3871
     15 C          -3.1709    0.4940   -0.0980 C.3     1  UNL1        0.0803
     16 C          -3.9426   -0.7742   -0.3770 C.3     1  UNL1       -0.0364
     17 O          -3.1678    1.3310   -1.2078 O.3     1  UNL1       -0.3894
     18 H          -1.3476   -1.5332   -0.5350 H       1  UNL1        0.0589
     19 H          -0.7188   -0.5400   -2.4199 H       1  UNL1        0.0531
     20 H          -0.9199    1.1030   -1.6819 H       1  UNL1        0.0531
     21 H           3.4821    0.6945   -1.8143 H       1  UNL1        0.1700
     22 H           6.1288   -0.6308   -0.1695 H       1  UNL1        0.1451
     23 H           5.9382    1.0902   -0.3682 H       1  UNL1        0.1451
     24 H          -2.0381   -0.3588    1.4573 H       1  UNL1        0.0641
     25 H          -1.6505    1.6664    1.8515 H       1  UNL1        0.2100
     26 H          -3.7977    1.0392    0.6626 H       1  UNL1        0.0617
     27 H          -3.4542   -1.4637   -1.0636 H       1  UNL1        0.0255
     28 H          -4.9447   -0.4386   -0.7500 H       1  UNL1        0.0255
     29 H          -4.1477   -1.2463    0.6074 H       1  UNL1        0.0255
     30 H          -3.0559    2.2592   -0.8816 H       1  UNL1        0.2099
@<TRIPOS>BOND
     1     1     2    1
     2     2     3    1
     3     3     4    2
     4     4     5   ar
     5     5     6   ar
     6     6     7    1
     7     6     8   ar
     8     8     9   ar
     9     9    10    2
    10     9    11   ar
    11    11    12    2
    12     1    13    1
    13    13    14    1
    14    13    15    1
    15    15    16    1
    16    15    17    1
    17    12     1    1
    18    11     4   ar
    19     1    18    1
    20     2    19    1
    21     2    20    1
    22     5    21    1
    23     7    22    1
    24     7    23    1
    25    13    24    1
    26    14    25    1
    27    15    26    1
    28    16    27    1
    29    16    28    1
    30    16    29    1
    31    17    30    1
