
     RDKit          3D

 39 41  0  0  0  0  0  0  0  0999 V2000
    5.0415   -0.6786   -0.3655 C   0  0  0  0  0  0  0  0  0  0  0  0
    4.5452    0.5398    0.1561 N   0  0  0  0  0  0  0  0  0  0  0  0
    5.3505    1.6932    0.0166 C   0  0  0  0  0  0  0  0  0  0  0  0
    3.6121    0.4933    1.2121 C   0  0  0  0  0  0  0  0  0  0  0  0
    2.2997   -0.0261    0.7634 C   0  0  0  0  0  0  0  0  0  0  0  0
    1.5341   -0.0432    1.7869 O   0  0  0  0  0  0  0  0  0  0  0  0
    1.7415   -0.4776   -0.4704 N   0  0  0  0  0  0  0  0  0  0  0  0
    0.3978   -0.8565   -0.2495 C   0  0  0  0  0  0  0  0  0  0  0  0
   -0.6774    0.0213   -0.3755 C   0  0  0  0  0  0  0  0  0  0  0  0
   -1.9485   -0.4397   -0.1396 C   0  0  0  0  0  0  0  0  0  0  0  0
   -2.1590   -1.7507    0.2174 C   0  0  0  0  0  0  0  0  0  0  0  0
   -3.4097   -2.1849    0.4441 N   0  0  0  0  0  0  0  0  0  0  0  0
   -4.5028   -1.3948    0.3405 C   0  0  0  0  0  0  0  0  0  0  0  0
   -5.6683   -1.8314    0.5605 O   0  0  0  0  0  0  0  0  0  0  0  0
   -4.3002   -0.0668   -0.0206 C   0  0  0  0  0  0  0  0  0  0  0  0
   -5.3864    0.7422   -0.1301 C   0  0  0  0  0  0  0  0  0  0  0  0
   -5.2170    2.0640   -0.4864 C   0  0  0  0  0  0  0  0  0  0  0  0
   -3.9297    2.5534   -0.7296 C   0  0  0  0  0  0  0  0  0  0  0  0
   -2.8527    1.6995   -0.6076 C   0  0  0  0  0  0  0  0  0  0  0  0
   -3.0401    0.3863   -0.2526 C   0  0  0  0  0  0  0  0  0  0  0  0
   -1.0978   -2.6044    0.3384 C   0  0  0  0  0  0  0  0  0  0  0  0
    0.1847   -2.1651    0.1066 C   0  0  0  0  0  0  0  0  0  0  0  0
    5.2866   -0.5261   -1.4482 H   0  0  0  0  0  0  0  0  0  0  0  0
    6.0218   -0.9816    0.0842 H   0  0  0  0  0  0  0  0  0  0  0  0
    4.3207   -1.4953   -0.2174 H   0  0  0  0  0  0  0  0  0  0  0  0
    6.3062    1.6913    0.5480 H   0  0  0  0  0  0  0  0  0  0  0  0
    5.5312    1.8407   -1.0851 H   0  0  0  0  0  0  0  0  0  0  0  0
    4.7283    2.5863    0.3012 H   0  0  0  0  0  0  0  0  0  0  0  0
    3.4320    1.5443    1.5923 H   0  0  0  0  0  0  0  0  0  0  0  0
    3.9859   -0.0790    2.1097 H   0  0  0  0  0  0  0  0  0  0  0  0
    2.4665   -0.4076   -1.2108 H   0  0  0  0  0  0  0  0  0  0  0  0
   -0.4134    1.0144   -0.6544 H   0  0  0  0  0  0  0  0  0  0  0  0
   -3.5778   -3.1896    0.7163 H   0  0  0  0  0  0  0  0  0  0  0  0
   -6.3864    0.3340    0.0674 H   0  0  0  0  0  0  0  0  0  0  0  0
   -6.0950    2.6886   -0.5660 H   0  0  0  0  0  0  0  0  0  0  0  0
   -3.9215    3.6015   -0.9995 H   0  0  0  0  0  0  0  0  0  0  0  0
   -1.9221    2.1903   -0.8173 H   0  0  0  0  0  0  0  0  0  0  0  0
   -1.2830   -3.6213    0.6180 H   0  0  0  0  0  0  0  0  0  0  0  0
    1.0024   -2.8643    0.2107 H   0  0  0  0  0  0  0  0  0  0  0  0
  1  2  1  0
  2  3  1  0
  2  4  1  0
  4  5  1  0
  5  6  2  0
  5  7  1  0
  7  8  1  0
  8  9  2  0
  9 10  1  0
 10 11  2  0
 11 12  1  0
 12 13  1  0
 13 14  2  0
 13 15  1  0
 15 16  2  0
 16 17  1  0
 17 18  2  0
 18 19  1  0
 19 20  2  0
 11 21  1  0
 21 22  2  0
 22  8  1  0
 20 10  1  0
 20 15  1  0
  1 23  1  0
  1 24  1  0
  1 25  1  0
  3 26  1  0
  3 27  1  0
  3 28  1  0
  4 29  1  0
  4 30  1  0
  7 31  1  0
  9 32  1  0
 12 33  1  0
 16 34  1  0
 17 35  1  0
 18 36  1  0
 19 37  1  0
 21 38  1  0
 22 39  1  0
M  END
$$$$
