@<TRIPOS>MOLECULE
*****
 44 47 0 0 0
SMALL
GASTEIGER

@<TRIPOS>ATOM
      1 C          -6.2256   -0.3045    1.8556 C.3     1  UNL1        0.0124
      2 C          -4.9764   -0.9926    1.4660 C.2     1  UNL1        0.2128
      3 O          -4.7946   -2.1580    1.8941 O.2     1  UNL1       -0.2759
      4 N          -3.9893   -0.3927    0.6379 N.am    1  UNL1       -0.2968
      5 C          -4.2483    0.9536    0.1673 C.3     1  UNL1        0.0204
      6 C          -3.6400    1.1065   -1.2099 C.3     1  UNL1        0.0055
      7 C          -2.1752    0.8843   -1.0593 C.ar    1  UNL1        0.0469
      8 C          -1.7825   -0.2048   -0.3245 C.ar    1  UNL1        0.0324
      9 C          -0.3802   -0.2074   -0.3220 C.ar    1  UNL1        0.1498
     10 N           0.3910   -1.1935    0.3358 N.pl3   1  UNL1       -0.2977
     11 C           1.8087   -1.1692    0.3555 C.ar    1  UNL1        0.0345
     12 C           2.5062   -2.2860    0.8568 C.ar    1  UNL1       -0.0398
     13 C           3.8697   -2.3167    0.9076 C.ar    1  UNL1       -0.0493
     14 C           4.6316   -1.2482    0.4676 C.ar    1  UNL1        0.0198
     15 C           5.9709   -0.9675    0.3835 C.ar    1  UNL1        0.0329
     16 N           6.1217    0.2659   -0.1443 N.ar    1  UNL1       -0.2733
     17 C           7.3673    0.9697   -0.4136 C.3     1  UNL1        0.0302
     18 N           4.9331    0.7543   -0.3878 N.ar    1  UNL1       -0.1714
     19 C           3.9747   -0.1494   -0.0246 C.ar    1  UNL1        0.0945
     20 C           2.6017   -0.1374   -0.0676 C.ar    1  UNL1       -0.0128
     21 N          -0.0406    0.8618   -1.0431 N.ar    1  UNL1       -0.1557
     22 N          -1.0799    1.5311   -1.4951 N.ar    1  UNL1       -0.2692
     23 C          -1.0269    2.7370   -2.3087 C.3     1  UNL1        0.0306
     24 C          -2.7808   -1.1344    0.3030 C.3     1  UNL1        0.0447
     25 H          -6.0788    0.7945    1.9777 H       1  UNL1        0.0323
     26 H          -6.5796   -0.6557    2.8668 H       1  UNL1        0.0323
     27 H          -7.0548   -0.4450    1.1486 H       1  UNL1        0.0323
     28 H          -3.7484    1.7095    0.8134 H       1  UNL1        0.0468
     29 H          -5.3445    1.1215    0.1063 H       1  UNL1        0.0468
     30 H          -4.0743    0.3323   -1.9076 H       1  UNL1        0.0343
     31 H          -3.7977    2.1278   -1.6037 H       1  UNL1        0.0343
     32 H          -0.0970   -1.9773    0.8319 H       1  UNL1        0.1536
     33 H           1.9170   -3.1154    1.1986 H       1  UNL1        0.0636
     34 H           4.4075   -3.1785    1.2946 H       1  UNL1        0.0625
     35 H           6.7754   -1.5984    0.6780 H       1  UNL1        0.0832
     36 H           8.0225    0.2250   -0.9371 H       1  UNL1        0.0473
     37 H           7.8840    1.2420    0.5291 H       1  UNL1        0.0473
     38 H           7.1855    1.8241   -1.0864 H       1  UNL1        0.0473
     39 H           2.1431    0.7609   -0.4623 H       1  UNL1        0.0658
     40 H          -0.1107    2.7785   -2.9314 H       1  UNL1        0.0473
     41 H          -1.9523    2.7376   -2.9406 H       1  UNL1        0.0473
     42 H          -1.0589    3.6308   -1.6523 H       1  UNL1        0.0473
     43 H          -3.0736   -1.9339   -0.3849 H       1  UNL1        0.0515
     44 H          -2.4005   -1.5823    1.2367 H       1  UNL1        0.0515
@<TRIPOS>BOND
     1     1     2    1
     2     2     3    2
     3     2     4   am
     4     4     5    1
     5     5     6    1
     6     6     7    1
     7     7     8   ar
     8     8     9   ar
     9     9    10    1
    10    10    11    1
    11    11    12   ar
    12    12    13   ar
    13    13    14   ar
    14    14    15   ar
    15    15    16   ar
    16    16    17    1
    17    16    18   ar
    18    18    19   ar
    19    19    20   ar
    20     9    21   ar
    21    21    22   ar
    22    22    23    1
    23     8    24    1
    24    24     4    1
    25    22     7   ar
    26    20    11   ar
    27    19    14   ar
    28     1    25    1
    29     1    26    1
    30     1    27    1
    31     5    28    1
    32     5    29    1
    33     6    30    1
    34     6    31    1
    35    10    32    1
    36    12    33    1
    37    13    34    1
    38    15    35    1
    39    17    36    1
    40    17    37    1
    41    17    38    1
    42    20    39    1
    43    23    40    1
    44    23    41    1
    45    23    42    1
    46    24    43    1
    47    24    44    1
