@<TRIPOS>MOLECULE
*****
 40 41 0 0 0
SMALL
GASTEIGER

@<TRIPOS>ATOM
      1 C           2.5437    1.0527    0.9208 C.3     1  UNL1       -0.0376
      2 C           2.6015    0.1220   -0.2304 C.ar    1  UNL1       -0.0186
      3 C           1.5356    0.0779   -1.0922 C.ar    1  UNL1        0.0413
      4 C           0.3914    0.9155   -0.8812 C.2     1  UNL1        0.2474
      5 O           0.3755    2.0793   -1.4179 O.2     1  UNL1       -0.2700
      6 N          -0.7420    0.5497   -0.1122 N.am    1  UNL1       -0.2907
      7 C          -1.8186    1.5034    0.0092 C.3     1  UNL1        0.0210
      8 C          -2.3223    1.9446   -1.3609 C.3     1  UNL1       -0.0467
      9 C          -1.3195    2.7520    0.7093 C.3     1  UNL1       -0.0467
     10 C          -0.7982   -0.7389    0.5200 C.3     1  UNL1        0.0402
     11 C          -1.9450   -1.5895    0.0215 C.3     1  UNL1       -0.0205
     12 C          -2.1711   -2.4982    1.2394 C.3     1  UNL1       -0.0023
     13 N          -2.1788   -1.5072    2.2997 N.3     1  UNL1       -0.3142
     14 C          -1.0492   -0.6876    1.9942 C.3     1  UNL1        0.0146
     15 C           1.5887   -0.7836   -2.1580 C.ar    1  UNL1       -0.0479
     16 C           2.7050   -1.6039   -2.3679 C.ar    1  UNL1       -0.0412
     17 C           3.7772   -1.5426   -1.4792 C.ar    1  UNL1        0.0595
     18 CL          5.1452   -2.5835   -1.7821 Cl      1  UNL1       -0.0820
     19 C           3.7135   -0.6738   -0.4119 C.ar    1  UNL1        0.0629
     20 CL          5.0676   -0.6103    0.6925 Cl      1  UNL1       -0.0817
     21 H           3.4140    0.9488    1.5933 H       1  UNL1        0.0278
     22 H           1.6561    0.7269    1.5361 H       1  UNL1        0.0278
     23 H           2.3525    2.0987    0.6210 H       1  UNL1        0.0278
     24 H          -2.6550    1.1130    0.6326 H       1  UNL1        0.0495
     25 H          -1.8505    2.9248   -1.6534 H       1  UNL1        0.0247
     26 H          -2.0262    1.2275   -2.1518 H       1  UNL1        0.0247
     27 H          -3.4011    2.0963   -1.3885 H       1  UNL1        0.0247
     28 H          -0.5461    2.5085    1.4696 H       1  UNL1        0.0247
     29 H          -0.9443    3.4478   -0.0636 H       1  UNL1        0.0247
     30 H          -2.2074    3.2523    1.1582 H       1  UNL1        0.0247
     31 H           0.1311   -1.3123    0.2981 H       1  UNL1        0.0514
     32 H          -1.6944   -2.1937   -0.8517 H       1  UNL1        0.0296
     33 H          -2.8914   -1.0153   -0.0801 H       1  UNL1        0.0296
     34 H          -1.3234   -3.1698    1.4073 H       1  UNL1        0.0425
     35 H          -3.1404   -3.0124    1.1684 H       1  UNL1        0.0425
     36 H          -2.1523   -1.9517    3.2417 H       1  UNL1        0.1220
     37 H          -0.1611   -1.1370    2.5273 H       1  UNL1        0.0442
     38 H          -1.1492    0.3574    2.3430 H       1  UNL1        0.0442
     39 H           0.7465   -0.8124   -2.8312 H       1  UNL1        0.0626
     40 H           2.7424   -2.2753   -3.2016 H       1  UNL1        0.0633
@<TRIPOS>BOND
     1     1     2    1
     2     2     3   ar
     3     3     4    1
     4     4     5    2
     5     4     6   am
     6     6     7    1
     7     7     8    1
     8     7     9    1
     9     6    10    1
    10    10    11    1
    11    11    12    1
    12    12    13    1
    13    13    14    1
    14     3    15   ar
    15    15    16   ar
    16    16    17   ar
    17    17    18    1
    18    17    19   ar
    19    19    20    1
    20    19     2   ar
    21    14    10    1
    22     1    21    1
    23     1    22    1
    24     1    23    1
    25     7    24    1
    26     8    25    1
    27     8    26    1
    28     8    27    1
    29     9    28    1
    30     9    29    1
    31     9    30    1
    32    10    31    1
    33    11    32    1
    34    11    33    1
    35    12    34    1
    36    12    35    1
    37    13    36    1
    38    14    37    1
    39    14    38    1
    40    15    39    1
    41    16    40    1
