
     RDKit          3D

 40 41  0  0  0  0  0  0  0  0999 V2000
    2.5437    1.0527    0.9208 C   0  0  0  0  0  0  0  0  0  0  0  0
    2.6015    0.1220   -0.2304 C   0  0  0  0  0  0  0  0  0  0  0  0
    1.5356    0.0779   -1.0922 C   0  0  0  0  0  0  0  0  0  0  0  0
    0.3914    0.9155   -0.8812 C   0  0  0  0  0  0  0  0  0  0  0  0
    0.3755    2.0793   -1.4179 O   0  0  0  0  0  0  0  0  0  0  0  0
   -0.7420    0.5497   -0.1122 N   0  0  0  0  0  0  0  0  0  0  0  0
   -1.8186    1.5034    0.0092 C   0  0  0  0  0  0  0  0  0  0  0  0
   -2.3223    1.9446   -1.3609 C   0  0  0  0  0  0  0  0  0  0  0  0
   -1.3195    2.7520    0.7093 C   0  0  0  0  0  0  0  0  0  0  0  0
   -0.7982   -0.7389    0.5200 C   0  0  2  0  0  0  0  0  0  0  0  0
   -1.9450   -1.5895    0.0215 C   0  0  0  0  0  0  0  0  0  0  0  0
   -2.1711   -2.4982    1.2394 C   0  0  0  0  0  0  0  0  0  0  0  0
   -2.1788   -1.5072    2.2997 N   0  0  0  0  0  0  0  0  0  0  0  0
   -1.0492   -0.6876    1.9942 C   0  0  0  0  0  0  0  0  0  0  0  0
    1.5887   -0.7836   -2.1580 C   0  0  0  0  0  0  0  0  0  0  0  0
    2.7050   -1.6039   -2.3679 C   0  0  0  0  0  0  0  0  0  0  0  0
    3.7772   -1.5426   -1.4792 C   0  0  0  0  0  0  0  0  0  0  0  0
    5.1452   -2.5835   -1.7821 Cl  0  0  0  0  0  0  0  0  0  0  0  0
    3.7135   -0.6738   -0.4119 C   0  0  0  0  0  0  0  0  0  0  0  0
    5.0676   -0.6103    0.6925 Cl  0  0  0  0  0  0  0  0  0  0  0  0
    3.4140    0.9488    1.5933 H   0  0  0  0  0  0  0  0  0  0  0  0
    1.6561    0.7269    1.5361 H   0  0  0  0  0  0  0  0  0  0  0  0
    2.3525    2.0987    0.6210 H   0  0  0  0  0  0  0  0  0  0  0  0
   -2.6550    1.1130    0.6326 H   0  0  0  0  0  0  0  0  0  0  0  0
   -1.8505    2.9248   -1.6534 H   0  0  0  0  0  0  0  0  0  0  0  0
   -2.0262    1.2275   -2.1518 H   0  0  0  0  0  0  0  0  0  0  0  0
   -3.4011    2.0963   -1.3885 H   0  0  0  0  0  0  0  0  0  0  0  0
   -0.5461    2.5085    1.4696 H   0  0  0  0  0  0  0  0  0  0  0  0
   -0.9443    3.4478   -0.0636 H   0  0  0  0  0  0  0  0  0  0  0  0
   -2.2074    3.2523    1.1582 H   0  0  0  0  0  0  0  0  0  0  0  0
    0.1311   -1.3123    0.2981 H   0  0  0  0  0  0  0  0  0  0  0  0
   -1.6944   -2.1937   -0.8517 H   0  0  0  0  0  0  0  0  0  0  0  0
   -2.8914   -1.0153   -0.0801 H   0  0  0  0  0  0  0  0  0  0  0  0
   -1.3234   -3.1698    1.4073 H   0  0  0  0  0  0  0  0  0  0  0  0
   -3.1404   -3.0124    1.1684 H   0  0  0  0  0  0  0  0  0  0  0  0
   -2.1523   -1.9517    3.2417 H   0  0  0  0  0  0  0  0  0  0  0  0
   -0.1611   -1.1370    2.5273 H   0  0  0  0  0  0  0  0  0  0  0  0
   -1.1492    0.3574    2.3430 H   0  0  0  0  0  0  0  0  0  0  0  0
    0.7465   -0.8124   -2.8312 H   0  0  0  0  0  0  0  0  0  0  0  0
    2.7424   -2.2753   -3.2016 H   0  0  0  0  0  0  0  0  0  0  0  0
  1  2  1  0
  2  3  2  0
  3  4  1  0
  4  5  2  0
  4  6  1  0
  6  7  1  0
  7  8  1  0
  7  9  1  0
  6 10  1  0
 10 11  1  0
 11 12  1  0
 12 13  1  0
 13 14  1  0
  3 15  1  0
 15 16  2  0
 16 17  1  0
 17 18  1  0
 17 19  2  0
 19 20  1  0
 19  2  1  0
 14 10  1  0
  1 21  1  0
  1 22  1  0
  1 23  1  0
  7 24  1  0
  8 25  1  0
  8 26  1  0
  8 27  1  0
  9 28  1  0
  9 29  1  0
  9 30  1  0
 10 31  1  1
 11 32  1  0
 11 33  1  0
 12 34  1  0
 12 35  1  0
 13 36  1  0
 14 37  1  0
 14 38  1  0
 15 39  1  0
 16 40  1  0
M  END
$$$$
