@<TRIPOS>MOLECULE
*****
 61 63 0 0 0
SMALL
GASTEIGER

@<TRIPOS>ATOM
      1 C          -2.4600   -4.1786    1.5260 C.3     1  UNL1       -0.0307
      2 C          -2.2908   -3.6318    0.1453 C.3     1  UNL1        0.0868
      3 O          -2.0623   -2.2596    0.0646 O.3     1  UNL1       -0.4920
      4 C          -0.9576   -1.6810    0.6484 C.ar    1  UNL1        0.1240
      5 C          -0.0004   -2.3616    1.3356 C.ar    1  UNL1       -0.0194
      6 C           1.0983   -1.7226    1.9059 C.ar    1  UNL1       -0.0548
      7 C           1.2318   -0.3602    1.7771 C.ar    1  UNL1       -0.0426
      8 C           2.3831    0.3615    2.3666 C.3     1  UNL1       -0.0024
      9 C           3.5243    0.4598    1.4392 C.ar    1  UNL1       -0.0430
     10 C           3.6492    1.5193    0.5806 C.ar    1  UNL1       -0.0580
     11 C           4.7491    1.5536   -0.2696 C.ar    1  UNL1       -0.0583
     12 C           5.7095    0.5656   -0.2772 C.ar    1  UNL1       -0.0476
     13 C           6.8938    0.6105   -1.1984 C.3     1  UNL1       -0.0305
     14 C           6.4758   -0.1046   -2.4700 C.3     1  UNL1       -0.0613
     15 C           5.5567   -0.4907    0.6000 C.ar    1  UNL1       -0.0583
     16 C           4.4720   -0.5390    1.4489 C.ar    1  UNL1       -0.0580
     17 C           0.2584    0.3083    1.0816 C.ar    1  UNL1       -0.0513
     18 C          -0.8330   -0.3127    0.5132 C.ar    1  UNL1        0.0002
     19 C          -1.7949    0.5207   -0.1996 C.3     1  UNL1        0.0165
     20 C          -2.9125    1.0664    0.6545 C.3     1  UNL1       -0.0363
     21 C          -3.6503    2.1286   -0.0697 C.3     1  UNL1        0.0113
     22 C          -4.9900    2.3215    0.6568 C.3     1  UNL1        0.0495
     23 O          -5.7517    3.2966    0.0520 O.3     1  UNL1       -0.3946
     24 C          -3.9021    1.9296   -1.4993 C.3     1  UNL1        0.0884
     25 O          -3.8492    3.1813   -2.1473 O.3     1  UNL1       -0.3888
     26 C          -2.9918    1.0090   -2.2345 C.3     1  UNL1        0.1077
     27 O          -3.6354    0.4611   -3.3438 O.3     1  UNL1       -0.3866
     28 C          -2.4538   -0.1211   -1.3888 C.3     1  UNL1        0.0904
     29 O          -1.6148   -0.9015   -2.1470 O.3     1  UNL1       -0.3885
     30 H          -1.8209   -5.0524    1.7655 H       1  UNL1        0.0262
     31 H          -3.5137   -4.5737    1.6614 H       1  UNL1        0.0262
     32 H          -2.2934   -3.4299    2.3379 H       1  UNL1        0.0262
     33 H          -1.4511   -4.2255   -0.3250 H       1  UNL1        0.0694
     34 H          -3.1931   -3.8961   -0.4603 H       1  UNL1        0.0694
     35 H          -0.0916   -3.4536    1.4415 H       1  UNL1        0.0654
     36 H           1.8530   -2.3043    2.4550 H       1  UNL1        0.0622
     37 H           2.0682    1.4060    2.6078 H       1  UNL1        0.0361
     38 H           2.7027   -0.0834    3.3421 H       1  UNL1        0.0361
     39 H           2.9311    2.3297    0.5345 H       1  UNL1        0.0620
     40 H           4.9056    2.3710   -0.9771 H       1  UNL1        0.0620
     41 H           7.1227    1.6656   -1.3734 H       1  UNL1        0.0311
     42 H           7.7385    0.0530   -0.7391 H       1  UNL1        0.0311
     43 H           6.6766   -1.1850   -2.3810 H       1  UNL1        0.0233
     44 H           5.3866    0.0635   -2.6098 H       1  UNL1        0.0233
     45 H           7.0172    0.2784   -3.3509 H       1  UNL1        0.0233
     46 H           6.2852   -1.2749    0.6194 H       1  UNL1        0.0620
     47 H           4.3614   -1.3776    2.1372 H       1  UNL1        0.0620
     48 H           0.4000    1.4005    0.9992 H       1  UNL1        0.0624
     49 H          -1.2540    1.4239   -0.6089 H       1  UNL1        0.0376
     50 H          -2.4342    1.4889    1.5775 H       1  UNL1        0.0276
     51 H          -3.5274    0.2185    0.9794 H       1  UNL1        0.0276
     52 H          -3.1021    3.1005    0.1058 H       1  UNL1        0.0349
     53 H          -5.5186    1.3378    0.5397 H       1  UNL1        0.0561
     54 H          -4.8343    2.5050    1.7294 H       1  UNL1        0.0561
     55 H          -5.1494    4.0281   -0.2234 H       1  UNL1        0.2094
     56 H          -4.9566    1.5700   -1.6618 H       1  UNL1        0.0623
     57 H          -4.1604    3.1170   -3.0833 H       1  UNL1        0.2099
     58 H          -2.1121    1.5682   -2.6204 H       1  UNL1        0.0645
     59 H          -4.4801    0.0234   -3.1217 H       1  UNL1        0.2100
     60 H          -3.3672   -0.6738   -1.0230 H       1  UNL1        0.0626
     61 H          -2.0400   -1.0474   -3.0311 H       1  UNL1        0.2099
@<TRIPOS>BOND
     1     1     2    1
     2     2     3    1
     3     3     4    1
     4     4     5   ar
     5     5     6   ar
     6     6     7   ar
     7     7     8    1
     8     8     9    1
     9     9    10   ar
    10    10    11   ar
    11    11    12   ar
    12    12    13    1
    13    13    14    1
    14    12    15   ar
    15    15    16   ar
    16     7    17   ar
    17    17    18   ar
    18    18    19    1
    19    19    20    1
    20    20    21    1
    21    21    22    1
    22    22    23    1
    23    21    24    1
    24    24    25    1
    25    24    26    1
    26    26    27    1
    27    26    28    1
    28    28    29    1
    29    18     4   ar
    30    28    19    1
    31    16     9   ar
    32     1    30    1
    33     1    31    1
    34     1    32    1
    35     2    33    1
    36     2    34    1
    37     5    35    1
    38     6    36    1
    39     8    37    1
    40     8    38    1
    41    10    39    1
    42    11    40    1
    43    13    41    1
    44    13    42    1
    45    14    43    1
    46    14    44    1
    47    14    45    1
    48    15    46    1
    49    16    47    1
    50    17    48    1
    51    19    49    1
    52    20    50    1
    53    20    51    1
    54    21    52    1
    55    22    53    1
    56    22    54    1
    57    23    55    1
    58    24    56    1
    59    25    57    1
    60    26    58    1
    61    27    59    1
    62    28    60    1
    63    29    61    1
