
     RDKit          3D

 61 63  0  0  0  0  0  0  0  0999 V2000
   -2.4600   -4.1786    1.5260 C   0  0  0  0  0  0  0  0  0  0  0  0
   -2.2908   -3.6318    0.1453 C   0  0  0  0  0  0  0  0  0  0  0  0
   -2.0623   -2.2596    0.0646 O   0  0  0  0  0  0  0  0  0  0  0  0
   -0.9576   -1.6810    0.6484 C   0  0  0  0  0  0  0  0  0  0  0  0
   -0.0004   -2.3616    1.3356 C   0  0  0  0  0  0  0  0  0  0  0  0
    1.0983   -1.7226    1.9059 C   0  0  0  0  0  0  0  0  0  0  0  0
    1.2318   -0.3602    1.7771 C   0  0  0  0  0  0  0  0  0  0  0  0
    2.3831    0.3615    2.3666 C   0  0  0  0  0  0  0  0  0  0  0  0
    3.5243    0.4598    1.4392 C   0  0  0  0  0  0  0  0  0  0  0  0
    3.6492    1.5193    0.5806 C   0  0  0  0  0  0  0  0  0  0  0  0
    4.7491    1.5536   -0.2696 C   0  0  0  0  0  0  0  0  0  0  0  0
    5.7095    0.5656   -0.2772 C   0  0  0  0  0  0  0  0  0  0  0  0
    6.8938    0.6105   -1.1984 C   0  0  0  0  0  0  0  0  0  0  0  0
    6.4758   -0.1046   -2.4700 C   0  0  0  0  0  0  0  0  0  0  0  0
    5.5567   -0.4907    0.6000 C   0  0  0  0  0  0  0  0  0  0  0  0
    4.4720   -0.5390    1.4489 C   0  0  0  0  0  0  0  0  0  0  0  0
    0.2584    0.3083    1.0816 C   0  0  0  0  0  0  0  0  0  0  0  0
   -0.8330   -0.3127    0.5132 C   0  0  0  0  0  0  0  0  0  0  0  0
   -1.7949    0.5207   -0.1996 C   0  0  2  0  0  0  0  0  0  0  0  0
   -2.9125    1.0664    0.6545 C   0  0  0  0  0  0  0  0  0  0  0  0
   -3.6503    2.1286   -0.0697 C   0  0  2  0  0  0  0  0  0  0  0  0
   -4.9900    2.3215    0.6568 C   0  0  0  0  0  0  0  0  0  0  0  0
   -5.7517    3.2966    0.0520 O   0  0  0  0  0  0  0  0  0  0  0  0
   -3.9021    1.9296   -1.4993 C   0  0  1  0  0  0  0  0  0  0  0  0
   -3.8492    3.1813   -2.1473 O   0  0  0  0  0  0  0  0  0  0  0  0
   -2.9918    1.0090   -2.2345 C   0  0  2  0  0  0  0  0  0  0  0  0
   -3.6354    0.4611   -3.3438 O   0  0  0  0  0  0  0  0  0  0  0  0
   -2.4538   -0.1211   -1.3888 C   0  0  1  0  0  0  0  0  0  0  0  0
   -1.6148   -0.9015   -2.1470 O   0  0  0  0  0  0  0  0  0  0  0  0
   -1.8209   -5.0524    1.7655 H   0  0  0  0  0  0  0  0  0  0  0  0
   -3.5137   -4.5737    1.6614 H   0  0  0  0  0  0  0  0  0  0  0  0
   -2.2934   -3.4299    2.3379 H   0  0  0  0  0  0  0  0  0  0  0  0
   -1.4511   -4.2255   -0.3250 H   0  0  0  0  0  0  0  0  0  0  0  0
   -3.1931   -3.8961   -0.4603 H   0  0  0  0  0  0  0  0  0  0  0  0
   -0.0916   -3.4536    1.4415 H   0  0  0  0  0  0  0  0  0  0  0  0
    1.8530   -2.3043    2.4550 H   0  0  0  0  0  0  0  0  0  0  0  0
    2.0682    1.4060    2.6078 H   0  0  0  0  0  0  0  0  0  0  0  0
    2.7027   -0.0834    3.3421 H   0  0  0  0  0  0  0  0  0  0  0  0
    2.9311    2.3297    0.5345 H   0  0  0  0  0  0  0  0  0  0  0  0
    4.9056    2.3710   -0.9771 H   0  0  0  0  0  0  0  0  0  0  0  0
    7.1227    1.6656   -1.3734 H   0  0  0  0  0  0  0  0  0  0  0  0
    7.7385    0.0530   -0.7391 H   0  0  0  0  0  0  0  0  0  0  0  0
    6.6766   -1.1850   -2.3810 H   0  0  0  0  0  0  0  0  0  0  0  0
    5.3866    0.0635   -2.6098 H   0  0  0  0  0  0  0  0  0  0  0  0
    7.0172    0.2784   -3.3509 H   0  0  0  0  0  0  0  0  0  0  0  0
    6.2852   -1.2749    0.6194 H   0  0  0  0  0  0  0  0  0  0  0  0
    4.3614   -1.3776    2.1372 H   0  0  0  0  0  0  0  0  0  0  0  0
    0.4000    1.4005    0.9992 H   0  0  0  0  0  0  0  0  0  0  0  0
   -1.2540    1.4239   -0.6089 H   0  0  0  0  0  0  0  0  0  0  0  0
   -2.4342    1.4889    1.5775 H   0  0  0  0  0  0  0  0  0  0  0  0
   -3.5274    0.2185    0.9794 H   0  0  0  0  0  0  0  0  0  0  0  0
   -3.1021    3.1005    0.1058 H   0  0  0  0  0  0  0  0  0  0  0  0
   -5.5186    1.3378    0.5397 H   0  0  0  0  0  0  0  0  0  0  0  0
   -4.8343    2.5050    1.7294 H   0  0  0  0  0  0  0  0  0  0  0  0
   -5.1494    4.0281   -0.2234 H   0  0  0  0  0  0  0  0  0  0  0  0
   -4.9566    1.5700   -1.6618 H   0  0  0  0  0  0  0  0  0  0  0  0
   -4.1604    3.1170   -3.0833 H   0  0  0  0  0  0  0  0  0  0  0  0
   -2.1121    1.5682   -2.6204 H   0  0  0  0  0  0  0  0  0  0  0  0
   -4.4801    0.0234   -3.1217 H   0  0  0  0  0  0  0  0  0  0  0  0
   -3.3672   -0.6738   -1.0230 H   0  0  0  0  0  0  0  0  0  0  0  0
   -2.0400   -1.0474   -3.0311 H   0  0  0  0  0  0  0  0  0  0  0  0
  1  2  1  0
  2  3  1  0
  3  4  1  0
  4  5  2  0
  5  6  1  0
  6  7  2  0
  7  8  1  0
  8  9  1  0
  9 10  2  0
 10 11  1  0
 11 12  2  0
 12 13  1  0
 13 14  1  0
 12 15  1  0
 15 16  2  0
  7 17  1  0
 17 18  2  0
 18 19  1  0
 19 20  1  0
 20 21  1  0
 21 22  1  0
 22 23  1  0
 21 24  1  0
 24 25  1  0
 24 26  1  0
 26 27  1  0
 26 28  1  0
 28 29  1  0
 18  4  1  0
 28 19  1  0
 16  9  1  0
  1 30  1  0
  1 31  1  0
  1 32  1  0
  2 33  1  0
  2 34  1  0
  5 35  1  0
  6 36  1  0
  8 37  1  0
  8 38  1  0
 10 39  1  0
 11 40  1  0
 13 41  1  0
 13 42  1  0
 14 43  1  0
 14 44  1  0
 14 45  1  0
 15 46  1  0
 16 47  1  0
 17 48  1  0
 19 49  1  6
 20 50  1  0
 20 51  1  0
 21 52  1  6
 22 53  1  0
 22 54  1  0
 23 55  1  0
 24 56  1  1
 25 57  1  0
 26 58  1  6
 27 59  1  0
 28 60  1  1
 29 61  1  0
M  END
$$$$
