@<TRIPOS>MOLECULE
*****
 69 72 0 0 0
SMALL
GASTEIGER

@<TRIPOS>ATOM
      1 C          -8.4910    3.0990   -0.2166 C.3     1  UNL1        0.0788
      2 O          -7.9494    1.8322   -0.4523 O.3     1  UNL1       -0.4950
      3 C          -6.5800    1.6445   -0.5538 C.ar    1  UNL1        0.1221
      4 C          -5.7432    2.7237   -0.4199 C.ar    1  UNL1       -0.0193
      5 C          -4.3865    2.5088   -0.5252 C.ar    1  UNL1       -0.0489
      6 C          -3.8454    1.2390   -0.7615 C.ar    1  UNL1        0.0035
      7 C          -2.5533    0.7819   -0.9032 C.ar    1  UNL1       -0.0151
      8 C          -2.5987   -0.5555   -1.1202 C.ar    1  UNL1        0.0410
      9 N          -3.9096   -0.8940   -1.1082 N.ar    1  UNL1       -0.3561
     10 C          -4.6827    0.1617   -0.8951 C.ar    1  UNL1        0.0505
     11 C          -6.0417    0.4012   -0.7856 C.ar    1  UNL1        0.0040
     12 C          -1.3857   -1.3667   -1.3342 C.3     1  UNL1        0.0674
     13 C          -1.4624   -2.6453   -0.5947 C.3     1  UNL1       -0.0264
     14 C          -1.5692   -2.6269    0.8748 C.3     1  UNL1       -0.0447
     15 C          -2.7714   -1.9473    1.4624 C.3     1  UNL1       -0.0626
     16 C          -1.6884   -4.1014    1.3174 C.3     1  UNL1       -0.0626
     17 N          -0.1669   -0.6339   -1.1017 N.am    1  UNL1       -0.2796
     18 C           1.0864   -1.3526   -1.1292 C.2     1  UNL1        0.2371
     19 O           1.2140   -2.3954   -1.8577 O.2     1  UNL1       -0.2735
     20 CA          2.2288   -0.8786   -0.3088 C.3     1  UNL1        0.1001
     21 C           3.0326   -2.0504    0.1960 C.3     1  UNL1       -0.0159
     22 C           4.2004   -1.6397    1.0331 C.3     1  UNL1        0.0471
     23 C           5.1570   -0.7759    0.2932 C.2     1  UNL1        0.3076
     24 O           5.9302   -1.2780   -0.5906 O.2     1  UNL1       -0.2508
     25 O           5.2748    0.5847    0.5005 O.3     1  UNL1       -0.4589
     26 C           6.1866    1.4017   -0.2065 C.3     1  UNL1        0.1052
     27 C           7.6044    0.9093    0.0509 C.3     1  UNL1       -0.0254
     28 C           5.9340    1.4293   -1.6855 C.3     1  UNL1       -0.0254
     29 C           6.0688    2.8179    0.3174 C.3     1  UNL1       -0.0254
     30 N           1.6861   -0.0815    0.7707 N.am    1  UNL1       -0.3024
     31 C           0.6960    0.8845    0.4510 C.2     1  UNL1        0.2345
     32 O           0.4166    1.8546    1.1878 O.2     1  UNL1       -0.2737
     33 CA         -0.0753    0.7589   -0.8390 C.3     1  UNL1        0.1069
     34 C          -1.3122    1.5519   -0.8425 C.3     1  UNL1        0.0019
     35 H          -9.5704    3.0367    0.0926 H       1  UNL1        0.0660
     36 H          -8.4801    3.7634   -1.1034 H       1  UNL1        0.0660
     37 H          -7.9947    3.6548    0.6111 H       1  UNL1        0.0660
     38 H          -6.1410    3.7301   -0.2345 H       1  UNL1        0.0654
     39 H          -3.7214    3.3393   -0.4233 H       1  UNL1        0.0625
     40 H          -4.2966   -1.8619   -1.2472 H       1  UNL1        0.1657
     41 H          -6.7200   -0.4497   -0.8903 H       1  UNL1        0.0675
     42 H          -1.3823   -1.6102   -2.4289 H       1  UNL1        0.0565
     43 H          -2.4142   -3.1554   -0.9670 H       1  UNL1        0.0289
     44 H          -0.6753   -3.3902   -0.9373 H       1  UNL1        0.0289
     45 H          -0.6835   -2.1715    1.3853 H       1  UNL1        0.0296
     46 H          -2.7392   -0.8614    1.4098 H       1  UNL1        0.0232
     47 H          -3.7360   -2.4182    1.1601 H       1  UNL1        0.0232
     48 H          -2.7482   -2.1630    2.5875 H       1  UNL1        0.0232
     49 H          -2.5660   -4.4880    0.7575 H       1  UNL1        0.0232
     50 H          -1.9462   -4.1721    2.3876 H       1  UNL1        0.0232
     51 H          -0.8163   -4.6827    1.0125 H       1  UNL1        0.0232
     52 HA          2.8637   -0.1889   -0.9251 H       1  UNL1        0.0595
     53 H           2.3716   -2.7598    0.6948 H       1  UNL1        0.0293
     54 H           3.4419   -2.5639   -0.7109 H       1  UNL1        0.0293
     55 H           3.9255   -1.2176    2.0098 H       1  UNL1        0.0378
     56 H           4.7730   -2.5851    1.2657 H       1  UNL1        0.0378
     57 H           8.3542    1.7111   -0.0519 H       1  UNL1        0.0268
     58 H           7.8868    0.1210   -0.7027 H       1  UNL1        0.0268
     59 H           7.6913    0.4865    1.0832 H       1  UNL1        0.0268
     60 H           6.4310    0.5797   -2.2060 H       1  UNL1        0.0268
     61 H           4.8467    1.4883   -1.8994 H       1  UNL1        0.0268
     62 H           6.3857    2.3584   -2.0970 H       1  UNL1        0.0268
     63 H           7.0599    3.1830    0.7166 H       1  UNL1        0.0268
     64 H           5.7893    3.5424   -0.4760 H       1  UNL1        0.0268
     65 H           5.3785    2.8606    1.1734 H       1  UNL1        0.0268
     66 H           2.0113   -0.2083    1.7672 H       1  UNL1        0.1495
     67 HA          0.6233    1.2377   -1.5934 H       1  UNL1        0.0600
     68 H          -1.3713    2.1762    0.0984 H       1  UNL1        0.0337
     69 H          -1.3349    2.3168   -1.6636 H       1  UNL1        0.0337
@<TRIPOS>BOND
     1     1     2    1
     2     2     3    1
     3     3     4   ar
     4     4     5   ar
     5     5     6   ar
     6     6     7   ar
     7     7     8   ar
     8     8     9   ar
     9     9    10   ar
    10    10    11   ar
    11     8    12    1
    12    12    13    1
    13    13    14    1
    14    14    15    1
    15    14    16    1
    16    12    17    1
    17    17    18   am
    18    18    19    2
    19    18    20    1
    20    20    21    1
    21    21    22    1
    22    22    23    1
    23    23    24    2
    24    23    25    1
    25    25    26    1
    26    26    27    1
    27    26    28    1
    28    26    29    1
    29    20    30    1
    30    30    31   am
    31    31    32    2
    32    31    33    1
    33    33    34    1
    34    11     3   ar
    35    33    17    1
    36    10     6   ar
    37    34     7    1
    38     1    35    1
    39     1    36    1
    40     1    37    1
    41     4    38    1
    42     5    39    1
    43     9    40    1
    44    11    41    1
    45    12    42    1
    46    13    43    1
    47    13    44    1
    48    14    45    1
    49    15    46    1
    50    15    47    1
    51    15    48    1
    52    16    49    1
    53    16    50    1
    54    16    51    1
    55    20    52    1
    56    21    53    1
    57    21    54    1
    58    22    55    1
    59    22    56    1
    60    27    57    1
    61    27    58    1
    62    27    59    1
    63    28    60    1
    64    28    61    1
    65    28    62    1
    66    29    63    1
    67    29    64    1
    68    29    65    1
    69    30    66    1
    70    33    67    1
    71    34    68    1
    72    34    69    1
