@<TRIPOS>MOLECULE
*****
 43 43 0 0 0
SMALL
GASTEIGER

@<TRIPOS>ATOM
      1 N          -8.0224   -0.7169    0.7144 N.3     1  UNL1       -0.3279
      2 C          -6.7709   -1.0059    0.0275 C.3     1  UNL1        0.0166
      3 C          -5.8319    0.1714    0.2322 C.3     1  UNL1        0.0600
      4 O          -4.6628   -0.1101   -0.4155 O.3     1  UNL1       -0.3763
      5 C          -3.7025    0.8801   -0.3166 C.3     1  UNL1        0.0711
      6 C          -3.2703    1.2005    1.0754 C.3     1  UNL1        0.0711
      7 O          -2.7180    0.1608    1.7794 O.3     1  UNL1       -0.3760
      8 C          -1.5781   -0.3928    1.2243 C.3     1  UNL1        0.0633
      9 C          -0.4358    0.5435    1.0574 C.3     1  UNL1        0.0353
     10 N           0.7146   -0.1498    0.4621 N.am    1  UNL1       -0.3092
     11 C           1.7993    0.7575    0.3084 C.2     1  UNL1        0.2441
     12 O           1.5224    1.9353    0.7157 O.2     1  UNL1       -0.2702
     13 C           3.1002    0.4760   -0.2335 C.ar    1  UNL1        0.0368
     14 C           3.9826    1.5342   -0.2752 C.ar    1  UNL1       -0.0478
     15 C           5.2519    1.2842   -0.7976 C.ar    1  UNL1       -0.0346
     16 C           5.6292    0.0291   -1.2609 C.ar    1  UNL1        0.1050
     17 C           4.6955   -1.0061   -1.1948 C.ar    1  UNL1       -0.0346
     18 C           3.4234   -0.7797   -0.6776 C.ar    1  UNL1       -0.0478
     19 S           7.2440   -0.1259   -1.8830 S.O2    1  UNL1        0.0559
     20 N           8.3420   -0.5642   -0.6305 N.3     1  UNL1       -0.2035
     21 O           7.6663    1.1882   -2.4892 O.2     1  UNL1       -0.1533
     22 O           7.1999   -1.1567   -2.9765 O.2     1  UNL1       -0.1533
     23 H          -7.8572   -0.9063    1.7310 H       1  UNL1        0.1183
     24 H          -8.1444    0.3346    0.6375 H       1  UNL1        0.1183
     25 H          -6.3944   -1.9462    0.4396 H       1  UNL1        0.0444
     26 H          -6.9936   -1.1595   -1.0490 H       1  UNL1        0.0444
     27 H          -6.3684    1.0668   -0.1228 H       1  UNL1        0.0572
     28 H          -5.6166    0.1901    1.3296 H       1  UNL1        0.0572
     29 H          -4.1303    1.8035   -0.7476 H       1  UNL1        0.0583
     30 H          -2.8148    0.6330   -0.9266 H       1  UNL1        0.0583
     31 H          -4.0962    1.5992    1.6985 H       1  UNL1        0.0583
     32 H          -2.5103    2.0063    0.9920 H       1  UNL1        0.0583
     33 H          -1.2459   -1.1865    1.9384 H       1  UNL1        0.0575
     34 H          -1.8269   -0.8642    0.2648 H       1  UNL1        0.0575
     35 H          -0.6517    1.4089    0.4010 H       1  UNL1        0.0485
     36 H          -0.0715    0.9470    2.0246 H       1  UNL1        0.0485
     37 H           0.9000   -1.1437    0.1358 H       1  UNL1        0.1491
     38 H           3.7426    2.5353    0.0724 H       1  UNL1        0.0626
     39 H           5.9499    2.1158   -0.8320 H       1  UNL1        0.0637
     40 H           5.0591   -1.9723   -1.5778 H       1  UNL1        0.0637
     41 H           2.7542   -1.6070   -0.6524 H       1  UNL1        0.0626
     42 H           7.7803   -0.8071    0.2192 H       1  UNL1        0.1442
     43 H           8.9576    0.2416   -0.4223 H       1  UNL1        0.1442
@<TRIPOS>BOND
     1     1     2    1
     2     2     3    1
     3     3     4    1
     4     4     5    1
     5     5     6    1
     6     6     7    1
     7     7     8    1
     8     8     9    1
     9     9    10    1
    10    10    11   am
    11    11    12    2
    12    11    13    1
    13    13    14   ar
    14    14    15   ar
    15    15    16   ar
    16    16    17   ar
    17    17    18   ar
    18    16    19    1
    19    19    20    1
    20    19    21    2
    21    19    22    2
    22    18    13   ar
    23     1    23    1
    24     1    24    1
    25     2    25    1
    26     2    26    1
    27     3    27    1
    28     3    28    1
    29     5    29    1
    30     5    30    1
    31     6    31    1
    32     6    32    1
    33     8    33    1
    34     8    34    1
    35     9    35    1
    36     9    36    1
    37    10    37    1
    38    14    38    1
    39    15    39    1
    40    17    40    1
    41    18    41    1
    42    20    42    1
    43    20    43    1
