@<TRIPOS>MOLECULE
*****
 45 45 0 0 0
SMALL
GASTEIGER

@<TRIPOS>ATOM
      1 C          -2.5146    1.2997    1.3731 C.3     1  UNL1       -0.0410
      2 N          -3.1066    0.2745    0.5448 N.4     1  UNL1        0.2455
      3 C          -3.7202   -0.6901    1.4375 C.3     1  UNL1       -0.0410
      4 C          -4.2525    0.9359   -0.1147 C.3     1  UNL1       -0.0410
      5 C          -2.2952   -0.2764   -0.4608 C.3     1  UNL1        0.0579
      6 C          -1.4424   -1.4441   -0.2006 C.3     1  UNL1        0.0059
      7 C          -0.3685   -1.3890    0.8050 C.3     1  UNL1        0.0110
      8 C           0.7060   -0.4053    0.5277 C.ar    1  UNL1        0.1076
      9 N           1.8050   -0.7492   -0.2125 N.ar    1  UNL1       -0.2374
     10 C           2.6466    0.2720   -0.3327 C.ar    1  UNL1        0.0611
     11 C           3.9411    0.2756   -1.0628 C.3     1  UNL1        0.0166
     12 CA          5.0496   -0.1371   -0.1169 C.3     1  UNL1        0.1087
     13 N           5.0769    0.8358    0.9841 N.3     1  UNL1       -0.3181
     14 C           6.3559   -0.1739   -0.8111 C.2     1  UNL1        0.3221
     15 O           7.3713    0.6603   -0.3693 O.3     1  UNL1       -0.4795
     16 OXT         6.5220   -0.9521   -1.7793 O.2     1  UNL1       -0.2492
     17 C           2.1061    1.3396    0.3439 C.ar    1  UNL1        0.0246
     18 N           0.9526    0.8645    0.8304 N.ar    1  UNL1       -0.3480
     19 C          -3.0542   -0.6623   -1.7096 C.2     1  UNL1        0.2588
     20 N          -4.3646   -0.6691   -2.2541 N.am    1  UNL1       -0.3247
     21 O          -2.4012   -1.1546   -2.6489 O.2     1  UNL1       -0.2698
     22 H          -1.9307    2.0369    0.7722 H       1  UNL1        0.0778
     23 H          -3.2761    1.9212    1.8884 H       1  UNL1        0.0778
     24 H          -1.8930    0.8646    2.1981 H       1  UNL1        0.0778
     25 H          -4.5963   -0.2386    1.9739 H       1  UNL1        0.0778
     26 H          -3.0501   -1.0195    2.2565 H       1  UNL1        0.0778
     27 H          -4.1084   -1.5694    0.9385 H       1  UNL1        0.0778
     28 H          -5.1224    0.2738   -0.2129 H       1  UNL1        0.0778
     29 H          -4.0165    1.3657   -1.0803 H       1  UNL1        0.0778
     30 H          -4.6119    1.8084    0.5080 H       1  UNL1        0.0778
     31 H          -1.6069    0.5543   -0.8152 H       1  UNL1        0.0950
     32 H          -2.0274   -2.4149   -0.1290 H       1  UNL1        0.0329
     33 H          -0.9032   -1.6257   -1.1884 H       1  UNL1        0.0329
     34 H           0.1152   -2.4002    0.8278 H       1  UNL1        0.0345
     35 H          -0.7075   -1.2215    1.8470 H       1  UNL1        0.0345
     36 H           4.1140    1.2945   -1.4424 H       1  UNL1        0.0349
     37 H           3.8917   -0.4536   -1.8736 H       1  UNL1        0.0349
     38 HA          4.8280   -1.1446    0.2905 H       1  UNL1        0.0578
     39 H1          4.3538    0.5276    1.6728 H       1  UNL1        0.1190
     40 H2          4.8084    1.7484    0.5516 H       1  UNL1        0.1190
     41 H           8.3374    0.3890   -0.5035 H       1  UNL1        0.2951
     42 H           2.4854    2.3370    0.4760 H       1  UNL1        0.0825
     43 H           0.3062    1.4421    1.4037 H       1  UNL1        0.1665
     44 H          -5.2043   -1.2643   -2.0979 H       1  UNL1        0.1451
     45 H          -5.1988   -1.2659   -2.0943 H       1  UNL1        0.1451
@<TRIPOS>UNITY_ATOM_ATTR
2 1
charge 1
@<TRIPOS>BOND
     1     1     2    1
     2     2     3    1
     3     2     4    1
     4     2     5    1
     5     5     6    1
     6     6     7    1
     7     7     8    1
     8     8     9   ar
     9     9    10   ar
    10    10    11    1
    11    11    12    1
    12    12    13    1
    13    12    14    1
    14    14    15    1
    15    14    16    2
    16    10    17   ar
    17    17    18   ar
    18     5    19    1
    19    19    20   am
    20    19    21    2
    21    18     8   ar
    22     1    22    1
    23     1    23    1
    24     1    24    1
    25     3    25    1
    26     3    26    1
    27     3    27    1
    28     4    28    1
    29     4    29    1
    30     4    30    1
    31     5    31    1
    32     6    32    1
    33     6    33    1
    34     7    34    1
    35     7    35    1
    36    11    36    1
    37    11    37    1
    38    12    38    1
    39    13    39    1
    40    13    40    1
    41    15    41    1
    42    17    42    1
    43    18    43    1
    44    20    44    1
    45    20    45    1
