@<TRIPOS>MOLECULE
*****
 37 38 0 0 0
SMALL
GASTEIGER

@<TRIPOS>ATOM
      1 C          -5.0183    2.2521    0.4141 C.3     1  UNL1       -0.0395
      2 C          -4.3604    0.9434    0.1092 C.ar    1  UNL1       -0.0455
      3 C          -5.1210   -0.1973   -0.0452 C.ar    1  UNL1       -0.0192
      4 C          -4.4897   -1.4023   -0.3281 C.ar    1  UNL1        0.1167
      5 N          -5.3149   -2.5721   -0.4826 N.pl3   1  UNL1       -0.3431
      6 N          -3.1492   -1.5166   -0.4618 N.ar    1  UNL1       -0.2373
      7 C          -2.3876   -0.3957   -0.3113 C.ar    1  UNL1        0.0451
      8 C          -0.8883   -0.4678   -0.4501 C.3     1  UNL1        0.0053
      9 C          -0.2804    0.8918   -0.2412 C.3     1  UNL1        0.0173
     10 N           1.1558    0.7745   -0.3863 N.am    1  UNL1       -0.3110
     11 C           2.0162   -0.0351    0.4008 C.2     1  UNL1        0.2441
     12 O           1.5359   -0.7380    1.3283 O.2     1  UNL1       -0.2702
     13 C           3.4562   -0.1238    0.2195 C.ar    1  UNL1        0.0368
     14 C           4.1910   -0.9384    1.0371 C.ar    1  UNL1       -0.0484
     15 C           5.5660   -1.0849    0.9370 C.ar    1  UNL1       -0.0436
     16 C           6.2654   -0.3881   -0.0264 C.ar    1  UNL1        0.0518
     17 C           5.5537    0.4416   -0.8665 C.ar    1  UNL1       -0.0436
     18 C           4.1868    0.5569   -0.7311 C.ar    1  UNL1       -0.0484
     19 C           7.6852   -0.4669   -0.2154 C.1     1  UNL1        0.0992
     20 N           8.8231   -0.5350   -0.3679 N.1     1  UNL1       -0.1909
     21 C          -2.9936    0.8156   -0.0293 C.ar    1  UNL1       -0.0373
     22 H          -4.2188    3.0364    0.2916 H       1  UNL1        0.0278
     23 H          -5.8309    2.4303   -0.2939 H       1  UNL1        0.0278
     24 H          -5.3070    2.3182    1.4878 H       1  UNL1        0.0278
     25 H          -6.1952   -0.1831    0.0472 H       1  UNL1        0.0654
     26 H          -5.8974   -3.0846    0.2152 H       1  UNL1        0.1437
     27 H          -5.5148   -3.1625   -1.3105 H       1  UNL1        0.1437
     28 H          -0.5268   -1.1389    0.3428 H       1  UNL1        0.0343
     29 H          -0.6341   -0.9223   -1.4041 H       1  UNL1        0.0343
     30 H          -0.5299    1.2943    0.7621 H       1  UNL1        0.0466
     31 H          -0.6569    1.5760   -1.0063 H       1  UNL1        0.0466
     32 H           1.6577    1.3100   -1.1185 H       1  UNL1        0.1490
     33 H           3.7815   -1.5429    1.8338 H       1  UNL1        0.0625
     34 H           6.1637   -1.7188    1.5682 H       1  UNL1        0.0631
     35 H           6.0423    1.0221   -1.6505 H       1  UNL1        0.0631
     36 H           3.6607    1.2166   -1.4071 H       1  UNL1        0.0625
     37 H          -2.4259    1.7352    0.0990 H       1  UNL1        0.0638
@<TRIPOS>BOND
     1     1     2    1
     2     2     3   ar
     3     3     4   ar
     4     4     5    1
     5     4     6   ar
     6     6     7   ar
     7     7     8    1
     8     8     9    1
     9     9    10    1
    10    10    11   am
    11    11    12    2
    12    11    13    1
    13    13    14   ar
    14    14    15   ar
    15    15    16   ar
    16    16    17   ar
    17    17    18   ar
    18    16    19    1
    19    19    20    3
    20     7    21   ar
    21    21     2   ar
    22    18    13   ar
    23     1    22    1
    24     1    23    1
    25     1    24    1
    26     3    25    1
    27     5    26    1
    28     5    27    1
    29     8    28    1
    30     8    29    1
    31     9    30    1
    32     9    31    1
    33    10    32    1
    34    14    33    1
    35    15    34    1
    36    17    35    1
    37    18    36    1
    38    21    37    1
