
     RDKit          3D

 37 38  0  0  0  0  0  0  0  0999 V2000
   -5.0183    2.2521    0.4141 C   0  0  0  0  0  0  0  0  0  0  0  0
   -4.3604    0.9434    0.1092 C   0  0  0  0  0  0  0  0  0  0  0  0
   -5.1210   -0.1973   -0.0452 C   0  0  0  0  0  0  0  0  0  0  0  0
   -4.4897   -1.4023   -0.3281 C   0  0  0  0  0  0  0  0  0  0  0  0
   -5.3149   -2.5721   -0.4826 N   0  0  0  0  0  0  0  0  0  0  0  0
   -3.1492   -1.5166   -0.4618 N   0  0  0  0  0  0  0  0  0  0  0  0
   -2.3876   -0.3957   -0.3113 C   0  0  0  0  0  0  0  0  0  0  0  0
   -0.8883   -0.4678   -0.4501 C   0  0  0  0  0  0  0  0  0  0  0  0
   -0.2804    0.8918   -0.2412 C   0  0  0  0  0  0  0  0  0  0  0  0
    1.1558    0.7745   -0.3863 N   0  0  0  0  0  0  0  0  0  0  0  0
    2.0162   -0.0351    0.4008 C   0  0  0  0  0  0  0  0  0  0  0  0
    1.5359   -0.7380    1.3283 O   0  0  0  0  0  0  0  0  0  0  0  0
    3.4562   -0.1238    0.2195 C   0  0  0  0  0  0  0  0  0  0  0  0
    4.1910   -0.9384    1.0371 C   0  0  0  0  0  0  0  0  0  0  0  0
    5.5660   -1.0849    0.9370 C   0  0  0  0  0  0  0  0  0  0  0  0
    6.2654   -0.3881   -0.0264 C   0  0  0  0  0  0  0  0  0  0  0  0
    5.5537    0.4416   -0.8665 C   0  0  0  0  0  0  0  0  0  0  0  0
    4.1868    0.5569   -0.7311 C   0  0  0  0  0  0  0  0  0  0  0  0
    7.6852   -0.4669   -0.2154 C   0  0  0  0  0  0  0  0  0  0  0  0
    8.8231   -0.5350   -0.3679 N   0  0  0  0  0  0  0  0  0  0  0  0
   -2.9936    0.8156   -0.0293 C   0  0  0  0  0  0  0  0  0  0  0  0
   -4.2188    3.0364    0.2916 H   0  0  0  0  0  0  0  0  0  0  0  0
   -5.8309    2.4303   -0.2939 H   0  0  0  0  0  0  0  0  0  0  0  0
   -5.3070    2.3182    1.4878 H   0  0  0  0  0  0  0  0  0  0  0  0
   -6.1952   -0.1831    0.0472 H   0  0  0  0  0  0  0  0  0  0  0  0
   -5.8974   -3.0846    0.2152 H   0  0  0  0  0  0  0  0  0  0  0  0
   -5.5148   -3.1625   -1.3105 H   0  0  0  0  0  0  0  0  0  0  0  0
   -0.5268   -1.1389    0.3428 H   0  0  0  0  0  0  0  0  0  0  0  0
   -0.6341   -0.9223   -1.4041 H   0  0  0  0  0  0  0  0  0  0  0  0
   -0.5299    1.2943    0.7621 H   0  0  0  0  0  0  0  0  0  0  0  0
   -0.6569    1.5760   -1.0063 H   0  0  0  0  0  0  0  0  0  0  0  0
    1.6577    1.3100   -1.1185 H   0  0  0  0  0  0  0  0  0  0  0  0
    3.7815   -1.5429    1.8338 H   0  0  0  0  0  0  0  0  0  0  0  0
    6.1637   -1.7188    1.5682 H   0  0  0  0  0  0  0  0  0  0  0  0
    6.0423    1.0221   -1.6505 H   0  0  0  0  0  0  0  0  0  0  0  0
    3.6607    1.2166   -1.4071 H   0  0  0  0  0  0  0  0  0  0  0  0
   -2.4259    1.7352    0.0990 H   0  0  0  0  0  0  0  0  0  0  0  0
  1  2  1  0
  2  3  2  0
  3  4  1  0
  4  5  1  0
  4  6  2  0
  6  7  1  0
  7  8  1  0
  8  9  1  0
  9 10  1  0
 10 11  1  0
 11 12  2  0
 11 13  1  0
 13 14  2  0
 14 15  1  0
 15 16  2  0
 16 17  1  0
 17 18  2  0
 16 19  1  0
 19 20  3  0
  7 21  2  0
 21  2  1  0
 18 13  1  0
  1 22  1  0
  1 23  1  0
  1 24  1  0
  3 25  1  0
  5 26  1  0
  5 27  1  0
  8 28  1  0
  8 29  1  0
  9 30  1  0
  9 31  1  0
 10 32  1  0
 14 33  1  0
 15 34  1  0
 17 35  1  0
 18 36  1  0
 21 37  1  0
M  END
$$$$
