@<TRIPOS>MOLECULE
*****
 45 47 0 0 0
SMALL
GASTEIGER

@<TRIPOS>ATOM
      1 C          -1.8709   -0.3454   -1.6267 C.3     1  UNL1       -0.0352
      2 C          -2.4474   -0.0301   -0.2365 C.3     1  UNL1        0.0951
      3 C          -1.2901    0.1885    0.6689 C.ar    1  UNL1        0.0168
      4 C           0.0130    0.2542    0.2255 C.ar    1  UNL1       -0.0323
      5 C           1.0760    0.4590    1.0825 C.ar    1  UNL1        0.0342
      6 N           2.3849    0.5146    0.5536 N.am    1  UNL1       -0.2802
      7 C           3.2137   -0.6304    0.4084 C.2     1  UNL1        0.2666
      8 O           2.7992   -1.7548    0.7539 O.2     1  UNL1       -0.2682
      9 C           4.5815   -0.4868   -0.1580 C.ar    1  UNL1        0.1257
     10 C           5.3893   -1.5905   -0.3015 C.ar    1  UNL1       -0.0300
     11 C           6.6566   -1.4931   -0.8206 C.ar    1  UNL1       -0.0407
     12 C           7.1389   -0.2608   -1.2103 C.ar    1  UNL1        0.0699
     13 C           8.4600   -0.1062   -1.7599 C.1     1  UNL1        0.1007
     14 N           9.5454    0.0113   -2.1914 N.1     1  UNL1       -0.1908
     15 C           6.2811    0.8022   -1.0403 C.ar    1  UNL1        0.0458
     16 N           5.0455    0.7038   -0.5336 N.ar    1  UNL1       -0.2491
     17 C           0.7885    0.5988    2.4239 C.ar    1  UNL1       -0.0377
     18 C          -0.5006    0.5396    2.9087 C.ar    1  UNL1       -0.0243
     19 C          -1.5462    0.3319    2.0153 C.ar    1  UNL1        0.1290
     20 F          -2.8084    0.2793    2.5370 F       1  UNL1       -0.2051
     21 C          -3.3115    1.1808   -0.2795 C.3     1  UNL1        0.0223
     22 C          -4.7496    0.9796    0.0434 C.3     1  UNL1        0.1997
     23 C          -5.6628    1.9180   -0.7195 C.3     1  UNL1        0.4266
     24 F          -5.4016    3.2351   -0.4621 F       1  UNL1       -0.1669
     25 F          -6.9716    1.6250   -0.3694 F       1  UNL1       -0.1669
     26 F          -5.5519    1.6260   -2.0822 F       1  UNL1       -0.1669
     27 O          -5.1609   -0.3412   -0.2454 O.2     1  UNL1       -0.4534
     28 C          -4.3845   -1.3974    0.1712 C.2     1  UNL1        0.2765
     29 N          -4.9720   -2.6219    0.5873 N.pl3   1  UNL1       -0.3134
     30 N          -3.1188   -1.2451    0.1729 N.2     1  UNL1       -0.2257
     31 H          -1.1753   -1.1910   -1.5209 H       1  UNL1        0.0256
     32 H          -2.6787   -0.6851   -2.3070 H       1  UNL1        0.0256
     33 H          -1.3693    0.5112   -2.0766 H       1  UNL1        0.0256
     34 H           0.2101    0.1392   -0.8499 H       1  UNL1        0.0640
     35 H           2.8177    1.4271    0.2349 H       1  UNL1        0.1552
     36 H           4.9970   -2.5584    0.0098 H       1  UNL1        0.0641
     37 H           7.3175   -2.3496   -0.9456 H       1  UNL1        0.0631
     38 H           6.6753    1.7789   -1.3539 H       1  UNL1        0.0843
     39 H           1.5889    0.7629    3.1488 H       1  UNL1        0.0637
     40 H          -0.6684    0.6567    3.9774 H       1  UNL1        0.0647
     41 H          -2.9038    1.9353    0.4544 H       1  UNL1        0.0330
     42 H          -3.1736    1.6640   -1.2729 H       1  UNL1        0.0330
     43 H          -4.9139    1.1900    1.1197 H       1  UNL1        0.0826
     44 H          -5.9732   -2.7351    0.8157 H       1  UNL1        0.1466
     45 H          -4.3752   -3.4901    0.6791 H       1  UNL1        0.1466
@<TRIPOS>BOND
     1     2     1    1
     2     2     3    1
     3     3     4   ar
     4     4     5   ar
     5     5     6    1
     6     6     7   am
     7     7     8    2
     8     7     9    1
     9     9    10   ar
    10    10    11   ar
    11    11    12   ar
    12    12    13    1
    13    13    14    3
    14    12    15   ar
    15    15    16   ar
    16     5    17   ar
    17    17    18   ar
    18    18    19   ar
    19    19    20    1
    20     2    21    1
    21    21    22    1
    22    22    23    1
    23    23    24    1
    24    23    25    1
    25    23    26    1
    26    22    27    1
    27    27    28    1
    28    28    29    1
    29    28    30    2
    30    30     2    1
    31    19     3   ar
    32    16     9   ar
    33     1    31    1
    34     1    32    1
    35     1    33    1
    36     4    34    1
    37     6    35    1
    38    10    36    1
    39    11    37    1
    40    15    38    1
    41    17    39    1
    42    18    40    1
    43    21    41    1
    44    21    42    1
    45    22    43    1
    46    29    44    1
    47    29    45    1
