
     RDKit          3D

 45 47  0  0  0  0  0  0  0  0999 V2000
   -1.8709   -0.3454   -1.6267 C   0  0  0  0  0  0  0  0  0  0  0  0
   -2.4474   -0.0301   -0.2365 C   0  0  1  0  0  0  0  0  0  0  0  0
   -1.2901    0.1885    0.6689 C   0  0  0  0  0  0  0  0  0  0  0  0
    0.0130    0.2542    0.2255 C   0  0  0  0  0  0  0  0  0  0  0  0
    1.0760    0.4590    1.0825 C   0  0  0  0  0  0  0  0  0  0  0  0
    2.3849    0.5146    0.5536 N   0  0  0  0  0  0  0  0  0  0  0  0
    3.2137   -0.6304    0.4084 C   0  0  0  0  0  0  0  0  0  0  0  0
    2.7992   -1.7548    0.7539 O   0  0  0  0  0  0  0  0  0  0  0  0
    4.5815   -0.4868   -0.1580 C   0  0  0  0  0  0  0  0  0  0  0  0
    5.3893   -1.5905   -0.3015 C   0  0  0  0  0  0  0  0  0  0  0  0
    6.6566   -1.4931   -0.8206 C   0  0  0  0  0  0  0  0  0  0  0  0
    7.1389   -0.2608   -1.2103 C   0  0  0  0  0  0  0  0  0  0  0  0
    8.4600   -0.1062   -1.7599 C   0  0  0  0  0  0  0  0  0  0  0  0
    9.5454    0.0113   -2.1914 N   0  0  0  0  0  0  0  0  0  0  0  0
    6.2811    0.8022   -1.0403 C   0  0  0  0  0  0  0  0  0  0  0  0
    5.0455    0.7038   -0.5336 N   0  0  0  0  0  0  0  0  0  0  0  0
    0.7885    0.5988    2.4239 C   0  0  0  0  0  0  0  0  0  0  0  0
   -0.5006    0.5396    2.9087 C   0  0  0  0  0  0  0  0  0  0  0  0
   -1.5462    0.3319    2.0153 C   0  0  0  0  0  0  0  0  0  0  0  0
   -2.8084    0.2793    2.5370 F   0  0  0  0  0  0  0  0  0  0  0  0
   -3.3115    1.1808   -0.2795 C   0  0  0  0  0  0  0  0  0  0  0  0
   -4.7496    0.9796    0.0434 C   0  0  1  0  0  0  0  0  0  0  0  0
   -5.6628    1.9180   -0.7195 C   0  0  0  0  0  0  0  0  0  0  0  0
   -5.4016    3.2351   -0.4621 F   0  0  0  0  0  0  0  0  0  0  0  0
   -6.9716    1.6250   -0.3694 F   0  0  0  0  0  0  0  0  0  0  0  0
   -5.5519    1.6260   -2.0822 F   0  0  0  0  0  0  0  0  0  0  0  0
   -5.1609   -0.3412   -0.2454 O   0  0  0  0  0  0  0  0  0  0  0  0
   -4.3845   -1.3974    0.1712 C   0  0  0  0  0  0  0  0  0  0  0  0
   -4.9720   -2.6219    0.5873 N   0  0  0  0  0  0  0  0  0  0  0  0
   -3.1188   -1.2451    0.1729 N   0  0  0  0  0  0  0  0  0  0  0  0
   -1.1753   -1.1910   -1.5209 H   0  0  0  0  0  0  0  0  0  0  0  0
   -2.6787   -0.6851   -2.3070 H   0  0  0  0  0  0  0  0  0  0  0  0
   -1.3693    0.5112   -2.0766 H   0  0  0  0  0  0  0  0  0  0  0  0
    0.2101    0.1392   -0.8499 H   0  0  0  0  0  0  0  0  0  0  0  0
    2.8177    1.4271    0.2349 H   0  0  0  0  0  0  0  0  0  0  0  0
    4.9970   -2.5584    0.0098 H   0  0  0  0  0  0  0  0  0  0  0  0
    7.3175   -2.3496   -0.9456 H   0  0  0  0  0  0  0  0  0  0  0  0
    6.6753    1.7789   -1.3539 H   0  0  0  0  0  0  0  0  0  0  0  0
    1.5889    0.7629    3.1488 H   0  0  0  0  0  0  0  0  0  0  0  0
   -0.6684    0.6567    3.9774 H   0  0  0  0  0  0  0  0  0  0  0  0
   -2.9038    1.9353    0.4544 H   0  0  0  0  0  0  0  0  0  0  0  0
   -3.1736    1.6640   -1.2729 H   0  0  0  0  0  0  0  0  0  0  0  0
   -4.9139    1.1900    1.1197 H   0  0  0  0  0  0  0  0  0  0  0  0
   -5.9732   -2.7351    0.8157 H   0  0  0  0  0  0  0  0  0  0  0  0
   -4.3752   -3.4901    0.6791 H   0  0  0  0  0  0  0  0  0  0  0  0
  2  1  1  6
  2  3  1  0
  3  4  2  0
  4  5  1  0
  5  6  1  0
  6  7  1  0
  7  8  2  0
  7  9  1  0
  9 10  2  0
 10 11  1  0
 11 12  2  0
 12 13  1  0
 13 14  3  0
 12 15  1  0
 15 16  2  0
  5 17  2  0
 17 18  1  0
 18 19  2  0
 19 20  1  0
  2 21  1  0
 21 22  1  0
 22 23  1  0
 23 24  1  0
 23 25  1  0
 23 26  1  0
 22 27  1  0
 27 28  1  0
 28 29  1  0
 28 30  2  0
 30  2  1  0
 19  3  1  0
 16  9  1  0
  1 31  1  0
  1 32  1  0
  1 33  1  0
  4 34  1  0
  6 35  1  0
 10 36  1  0
 11 37  1  0
 15 38  1  0
 17 39  1  0
 18 40  1  0
 21 41  1  0
 21 42  1  0
 22 43  1  1
 29 44  1  0
 29 45  1  0
M  END
$$$$
