@<TRIPOS>MOLECULE
*****
 81 86 0 0 0
SMALL
GASTEIGER

@<TRIPOS>ATOM
      1 C           2.9426   -3.0665   -2.2915 C.3     1  UNL1       -0.0219
      2 C           3.7481   -1.9995   -1.6529 C.ar    1  UNL1        0.0464
      3 N           4.9204   -2.3842   -1.0972 N.ar    1  UNL1       -0.2175
      4 C           5.7156   -1.4975   -0.5311 C.ar    1  UNL1        0.2207
      5 O           6.9134   -1.9614    0.0235 O.3     1  UNL1       -0.4380
      6 C           7.7416   -1.0245    0.6134 C.ar    1  UNL1        0.1304
      7 C           8.6895   -0.3828   -0.1528 C.ar    1  UNL1       -0.0186
      8 C           9.5395    0.5587    0.3851 C.ar    1  UNL1       -0.0462
      9 C           9.4636    0.8925    1.7359 C.ar    1  UNL1        0.0367
     10 C          10.3592    1.8795    2.2914 C.2     1  UNL1        0.2415
     11 N          11.3236    2.5231    1.4910 N.am    1  UNL1       -0.3253
     12 O          10.2492    2.1508    3.5322 O.2     1  UNL1       -0.2704
     13 C           8.5124    0.2474    2.5017 C.ar    1  UNL1       -0.0462
     14 C           7.6564   -0.7033    1.9508 C.ar    1  UNL1       -0.0186
     15 C           5.3437   -0.1870   -0.5108 C.ar    1  UNL1        0.0007
     16 C           4.1638    0.2212   -1.0660 C.ar    1  UNL1       -0.0506
     17 C           3.2974   -0.7092   -1.6771 C.ar    1  UNL1       -0.0121
     18 C           2.0268   -0.2244   -2.2456 C.3     1  UNL1        0.0257
     19 N           0.8622   -0.3495   -1.4810 N.3     1  UNL1       -0.2980
     20 C          -0.3236    0.2245   -2.1062 C.3     1  UNL1        0.0009
     21 C          -1.4522   -0.7435   -2.1730 C.3     1  UNL1       -0.0213
     22 C          -1.8890   -1.3039   -0.8357 C.3     1  UNL1        0.0305
     23 N          -3.0159   -0.5881   -0.3278 N.am    1  UNL1       -0.2738
     24 C          -4.3557   -1.1105   -0.1774 C.2     1  UNL1        0.3059
     25 O          -4.6476   -2.2744    0.1666 O.2     1  UNL1       -0.2524
     26 N          -5.2549   -0.0236   -0.5035 N.am    1  UNL1       -0.2802
     27 C          -6.6771   -0.2066   -0.6383 C.3     1  UNL1        0.0317
     28 C          -7.1070    0.0400   -2.0655 C.3     1  UNL1       -0.0106
     29 C          -7.6985    1.3974   -2.2808 C.3     1  UNL1        0.0493
     30 O          -8.6645    1.6791   -1.3168 O.3     1  UNL1       -0.3796
     31 C          -7.9792    1.8973   -0.1236 C.3     1  UNL1        0.0493
     32 C          -7.4659    0.5629    0.3575 C.3     1  UNL1       -0.0106
     33 C          -4.4338    1.1363   -0.6646 C.3     1  UNL1        0.0393
     34 C          -3.1780    0.7823    0.1548 C.3     1  UNL1        0.0687
     35 C          -3.5918    0.7634    1.5832 C.ar    1  UNL1       -0.0255
     36 C          -4.4003    1.7524    2.1002 C.ar    1  UNL1       -0.0567
     37 C          -4.8120    1.7439    3.4345 C.ar    1  UNL1       -0.0614
     38 C          -4.4319    0.7542    4.2905 C.ar    1  UNL1       -0.0617
     39 C          -3.6233   -0.2386    3.7820 C.ar    1  UNL1       -0.0614
     40 C          -3.2135   -0.2366    2.4671 C.ar    1  UNL1       -0.0567
     41 C          -0.6990   -1.3821    0.0688 C.3     1  UNL1       -0.0213
     42 C           0.5679   -1.5373   -0.7772 C.3     1  UNL1        0.0009
     43 H           3.6257   -3.8484   -2.7483 H       1  UNL1        0.0293
     44 H           2.3609   -3.6630   -1.5269 H       1  UNL1        0.0293
     45 H           2.3270   -2.7165   -3.1282 H       1  UNL1        0.0293
     46 H           8.7443   -0.6488   -1.2143 H       1  UNL1        0.0654
     47 H          10.2761    1.0529   -0.2289 H       1  UNL1        0.0626
     48 H          11.1584    2.9018    0.5330 H       1  UNL1        0.1453
     49 H          12.3102    2.6544    1.8518 H       1  UNL1        0.1453
     50 H           8.4258    0.4760    3.5364 H       1  UNL1        0.0626
     51 H           6.9110   -1.2125    2.5348 H       1  UNL1        0.0654
     52 H           6.0218    0.5232   -0.0357 H       1  UNL1        0.0671
     53 H           3.8604    1.2573   -1.0559 H       1  UNL1        0.0623
     54 H           1.8554   -0.7977   -3.2152 H       1  UNL1        0.0476
     55 H           2.2153    0.8595   -2.5232 H       1  UNL1        0.0476
     56 H          -0.5398    1.1500   -1.5411 H       1  UNL1        0.0427
     57 H           0.0023    0.5510   -3.1122 H       1  UNL1        0.0427
     58 H          -2.3010   -0.2387   -2.6897 H       1  UNL1        0.0295
     59 H          -1.1257   -1.5759   -2.8385 H       1  UNL1        0.0295
     60 H          -2.1785   -2.3811   -1.0824 H       1  UNL1        0.0502
     61 H          -6.8981   -1.2909   -0.4509 H       1  UNL1        0.0502
     62 H          -7.9005   -0.6972   -2.3686 H       1  UNL1        0.0305
     63 H          -6.2546   -0.1082   -2.7542 H       1  UNL1        0.0305
     64 H          -8.2046    1.3778   -3.2878 H       1  UNL1        0.0560
     65 H          -6.9834    2.2210   -2.3008 H       1  UNL1        0.0560
     66 H          -7.1685    2.6022   -0.3248 H       1  UNL1        0.0560
     67 H          -8.6791    2.2602    0.6625 H       1  UNL1        0.0560
     68 H          -8.4131   -0.0230    0.6061 H       1  UNL1        0.0305
     69 H          -6.8912    0.6297    1.3024 H       1  UNL1        0.0305
     70 H          -4.0391    1.1210   -1.7338 H       1  UNL1        0.0487
     71 H          -4.8627    2.0931   -0.4112 H       1  UNL1        0.0487
     72 H          -2.3415    1.4383   -0.0426 H       1  UNL1        0.0567
     73 H          -4.7380    2.5708    1.4925 H       1  UNL1        0.0621
     74 H          -5.4560    2.5364    3.8382 H       1  UNL1        0.0618
     75 H          -4.7559    0.7546    5.3244 H       1  UNL1        0.0618
     76 H          -3.3213   -1.0320    4.4767 H       1  UNL1        0.0618
     77 H          -2.5960   -1.0341    2.1476 H       1  UNL1        0.0621
     78 H          -0.5902   -0.4045    0.5807 H       1  UNL1        0.0295
     79 H          -0.7548   -2.2320    0.7951 H       1  UNL1        0.0295
     80 H           0.3514   -2.3458   -1.5226 H       1  UNL1        0.0427
     81 H           1.4249   -1.8524   -0.1670 H       1  UNL1        0.0427
@<TRIPOS>BOND
     1     1     2    1
     2     2     3   ar
     3     3     4   ar
     4     4     5    1
     5     5     6    1
     6     6     7   ar
     7     7     8   ar
     8     8     9   ar
     9     9    10    1
    10    10    11   am
    11    10    12    2
    12     9    13   ar
    13    13    14   ar
    14     4    15   ar
    15    15    16   ar
    16    16    17   ar
    17    17    18    1
    18    18    19    1
    19    19    20    1
    20    20    21    1
    21    21    22    1
    22    22    23    1
    23    23    24   am
    24    24    25    2
    25    24    26   am
    26    26    27    1
    27    27    28    1
    28    28    29    1
    29    29    30    1
    30    30    31    1
    31    31    32    1
    32    26    33    1
    33    33    34    1
    34    34    35    1
    35    35    36   ar
    36    36    37   ar
    37    37    38   ar
    38    38    39   ar
    39    39    40   ar
    40    22    41    1
    41    41    42    1
    42    17     2   ar
    43    42    19    1
    44    14     6   ar
    45    34    23    1
    46    40    35   ar
    47    32    27    1
    48     1    43    1
    49     1    44    1
    50     1    45    1
    51     7    46    1
    52     8    47    1
    53    11    48    1
    54    11    49    1
    55    13    50    1
    56    14    51    1
    57    15    52    1
    58    16    53    1
    59    18    54    1
    60    18    55    1
    61    20    56    1
    62    20    57    1
    63    21    58    1
    64    21    59    1
    65    22    60    1
    66    27    61    1
    67    28    62    1
    68    28    63    1
    69    29    64    1
    70    29    65    1
    71    31    66    1
    72    31    67    1
    73    32    68    1
    74    32    69    1
    75    33    70    1
    76    33    71    1
    77    34    72    1
    78    36    73    1
    79    37    74    1
    80    38    75    1
    81    39    76    1
    82    40    77    1
    83    41    78    1
    84    41    79    1
    85    42    80    1
    86    42    81    1
