
     RDKit          3D

 81 86  0  0  0  0  0  0  0  0999 V2000
    2.9426   -3.0665   -2.2915 C   0  0  0  0  0  0  0  0  0  0  0  0
    3.7481   -1.9995   -1.6529 C   0  0  0  0  0  0  0  0  0  0  0  0
    4.9204   -2.3842   -1.0972 N   0  0  0  0  0  0  0  0  0  0  0  0
    5.7156   -1.4975   -0.5311 C   0  0  0  0  0  0  0  0  0  0  0  0
    6.9134   -1.9614    0.0235 O   0  0  0  0  0  0  0  0  0  0  0  0
    7.7416   -1.0245    0.6134 C   0  0  0  0  0  0  0  0  0  0  0  0
    8.6895   -0.3828   -0.1528 C   0  0  0  0  0  0  0  0  0  0  0  0
    9.5395    0.5587    0.3851 C   0  0  0  0  0  0  0  0  0  0  0  0
    9.4636    0.8925    1.7359 C   0  0  0  0  0  0  0  0  0  0  0  0
   10.3592    1.8795    2.2914 C   0  0  0  0  0  0  0  0  0  0  0  0
   11.3236    2.5231    1.4910 N   0  0  0  0  0  0  0  0  0  0  0  0
   10.2492    2.1508    3.5322 O   0  0  0  0  0  0  0  0  0  0  0  0
    8.5124    0.2474    2.5017 C   0  0  0  0  0  0  0  0  0  0  0  0
    7.6564   -0.7033    1.9508 C   0  0  0  0  0  0  0  0  0  0  0  0
    5.3437   -0.1870   -0.5108 C   0  0  0  0  0  0  0  0  0  0  0  0
    4.1638    0.2212   -1.0660 C   0  0  0  0  0  0  0  0  0  0  0  0
    3.2974   -0.7092   -1.6771 C   0  0  0  0  0  0  0  0  0  0  0  0
    2.0268   -0.2244   -2.2456 C   0  0  0  0  0  0  0  0  0  0  0  0
    0.8622   -0.3495   -1.4810 N   0  0  0  0  0  0  0  0  0  0  0  0
   -0.3236    0.2245   -2.1062 C   0  0  0  0  0  0  0  0  0  0  0  0
   -1.4522   -0.7435   -2.1730 C   0  0  0  0  0  0  0  0  0  0  0  0
   -1.8890   -1.3039   -0.8357 C   0  0  0  0  0  0  0  0  0  0  0  0
   -3.0159   -0.5881   -0.3278 N   0  0  0  0  0  0  0  0  0  0  0  0
   -4.3557   -1.1105   -0.1774 C   0  0  0  0  0  0  0  0  0  0  0  0
   -4.6476   -2.2744    0.1666 O   0  0  0  0  0  0  0  0  0  0  0  0
   -5.2549   -0.0236   -0.5035 N   0  0  0  0  0  0  0  0  0  0  0  0
   -6.6771   -0.2066   -0.6383 C   0  0  0  0  0  0  0  0  0  0  0  0
   -7.1070    0.0400   -2.0655 C   0  0  0  0  0  0  0  0  0  0  0  0
   -7.6985    1.3974   -2.2808 C   0  0  0  0  0  0  0  0  0  0  0  0
   -8.6645    1.6791   -1.3168 O   0  0  0  0  0  0  0  0  0  0  0  0
   -7.9792    1.8973   -0.1236 C   0  0  0  0  0  0  0  0  0  0  0  0
   -7.4659    0.5629    0.3575 C   0  0  0  0  0  0  0  0  0  0  0  0
   -4.4338    1.1363   -0.6646 C   0  0  0  0  0  0  0  0  0  0  0  0
   -3.1780    0.7823    0.1548 C   0  0  1  0  0  0  0  0  0  0  0  0
   -3.5918    0.7634    1.5832 C   0  0  0  0  0  0  0  0  0  0  0  0
   -4.4003    1.7524    2.1002 C   0  0  0  0  0  0  0  0  0  0  0  0
   -4.8120    1.7439    3.4345 C   0  0  0  0  0  0  0  0  0  0  0  0
   -4.4319    0.7542    4.2905 C   0  0  0  0  0  0  0  0  0  0  0  0
   -3.6233   -0.2386    3.7820 C   0  0  0  0  0  0  0  0  0  0  0  0
   -3.2135   -0.2366    2.4671 C   0  0  0  0  0  0  0  0  0  0  0  0
   -0.6990   -1.3821    0.0688 C   0  0  0  0  0  0  0  0  0  0  0  0
    0.5679   -1.5373   -0.7772 C   0  0  0  0  0  0  0  0  0  0  0  0
    3.6257   -3.8484   -2.7483 H   0  0  0  0  0  0  0  0  0  0  0  0
    2.3609   -3.6630   -1.5269 H   0  0  0  0  0  0  0  0  0  0  0  0
    2.3270   -2.7165   -3.1282 H   0  0  0  0  0  0  0  0  0  0  0  0
    8.7443   -0.6488   -1.2143 H   0  0  0  0  0  0  0  0  0  0  0  0
   10.2761    1.0529   -0.2289 H   0  0  0  0  0  0  0  0  0  0  0  0
   11.1584    2.9018    0.5330 H   0  0  0  0  0  0  0  0  0  0  0  0
   12.3102    2.6544    1.8518 H   0  0  0  0  0  0  0  0  0  0  0  0
    8.4258    0.4760    3.5364 H   0  0  0  0  0  0  0  0  0  0  0  0
    6.9110   -1.2125    2.5348 H   0  0  0  0  0  0  0  0  0  0  0  0
    6.0218    0.5232   -0.0357 H   0  0  0  0  0  0  0  0  0  0  0  0
    3.8604    1.2573   -1.0559 H   0  0  0  0  0  0  0  0  0  0  0  0
    1.8554   -0.7977   -3.2152 H   0  0  0  0  0  0  0  0  0  0  0  0
    2.2153    0.8595   -2.5232 H   0  0  0  0  0  0  0  0  0  0  0  0
   -0.5398    1.1500   -1.5411 H   0  0  0  0  0  0  0  0  0  0  0  0
    0.0023    0.5510   -3.1122 H   0  0  0  0  0  0  0  0  0  0  0  0
   -2.3010   -0.2387   -2.6897 H   0  0  0  0  0  0  0  0  0  0  0  0
   -1.1257   -1.5759   -2.8385 H   0  0  0  0  0  0  0  0  0  0  0  0
   -2.1785   -2.3811   -1.0824 H   0  0  0  0  0  0  0  0  0  0  0  0
   -6.8981   -1.2909   -0.4509 H   0  0  0  0  0  0  0  0  0  0  0  0
   -7.9005   -0.6972   -2.3686 H   0  0  0  0  0  0  0  0  0  0  0  0
   -6.2546   -0.1082   -2.7542 H   0  0  0  0  0  0  0  0  0  0  0  0
   -8.2046    1.3778   -3.2878 H   0  0  0  0  0  0  0  0  0  0  0  0
   -6.9834    2.2210   -2.3008 H   0  0  0  0  0  0  0  0  0  0  0  0
   -7.1685    2.6022   -0.3248 H   0  0  0  0  0  0  0  0  0  0  0  0
   -8.6791    2.2602    0.6625 H   0  0  0  0  0  0  0  0  0  0  0  0
   -8.4131   -0.0230    0.6061 H   0  0  0  0  0  0  0  0  0  0  0  0
   -6.8912    0.6297    1.3024 H   0  0  0  0  0  0  0  0  0  0  0  0
   -4.0391    1.1210   -1.7338 H   0  0  0  0  0  0  0  0  0  0  0  0
   -4.8627    2.0931   -0.4112 H   0  0  0  0  0  0  0  0  0  0  0  0
   -2.3415    1.4383   -0.0426 H   0  0  0  0  0  0  0  0  0  0  0  0
   -4.7380    2.5708    1.4925 H   0  0  0  0  0  0  0  0  0  0  0  0
   -5.4560    2.5364    3.8382 H   0  0  0  0  0  0  0  0  0  0  0  0
   -4.7559    0.7546    5.3244 H   0  0  0  0  0  0  0  0  0  0  0  0
   -3.3213   -1.0320    4.4767 H   0  0  0  0  0  0  0  0  0  0  0  0
   -2.5960   -1.0341    2.1476 H   0  0  0  0  0  0  0  0  0  0  0  0
   -0.5902   -0.4045    0.5807 H   0  0  0  0  0  0  0  0  0  0  0  0
   -0.7548   -2.2320    0.7951 H   0  0  0  0  0  0  0  0  0  0  0  0
    0.3514   -2.3458   -1.5226 H   0  0  0  0  0  0  0  0  0  0  0  0
    1.4249   -1.8524   -0.1670 H   0  0  0  0  0  0  0  0  0  0  0  0
  1  2  1  0
  2  3  2  0
  3  4  1  0
  4  5  1  0
  5  6  1  0
  6  7  2  0
  7  8  1  0
  8  9  2  0
  9 10  1  0
 10 11  1  0
 10 12  2  0
  9 13  1  0
 13 14  2  0
  4 15  2  0
 15 16  1  0
 16 17  2  0
 17 18  1  0
 18 19  1  0
 19 20  1  0
 20 21  1  0
 21 22  1  0
 22 23  1  0
 23 24  1  0
 24 25  2  0
 24 26  1  0
 26 27  1  0
 27 28  1  0
 28 29  1  0
 29 30  1  0
 30 31  1  0
 31 32  1  0
 26 33  1  0
 33 34  1  0
 34 35  1  0
 35 36  2  0
 36 37  1  0
 37 38  2  0
 38 39  1  0
 39 40  2  0
 22 41  1  0
 41 42  1  0
 17  2  1  0
 42 19  1  0
 14  6  1  0
 34 23  1  0
 40 35  1  0
 32 27  1  0
  1 43  1  0
  1 44  1  0
  1 45  1  0
  7 46  1  0
  8 47  1  0
 11 48  1  0
 11 49  1  0
 13 50  1  0
 14 51  1  0
 15 52  1  0
 16 53  1  0
 18 54  1  0
 18 55  1  0
 20 56  1  0
 20 57  1  0
 21 58  1  0
 21 59  1  0
 22 60  1  0
 27 61  1  0
 28 62  1  0
 28 63  1  0
 29 64  1  0
 29 65  1  0
 31 66  1  0
 31 67  1  0
 32 68  1  0
 32 69  1  0
 33 70  1  0
 33 71  1  0
 34 72  1  1
 36 73  1  0
 37 74  1  0
 38 75  1  0
 39 76  1  0
 40 77  1  0
 41 78  1  0
 41 79  1  0
 42 80  1  0
 42 81  1  0
M  END
$$$$
