@<TRIPOS>MOLECULE
*****
 40 43 0 0 0
SMALL
GASTEIGER

@<TRIPOS>ATOM
      1 O           4.2259    2.0332    1.0130 O.3     1  UNL1       -0.4806
      2 C           4.2396    0.8180    0.3044 C.2     1  UNL1        0.3048
      3 O           5.4710    0.9272    0.6039 O.2     1  UNL1       -0.2510
      4 C           4.0531   -0.4379   -0.4662 C.3     1  UNL1        0.0464
      5 C           2.5790   -0.6163   -0.8509 C.3     1  UNL1       -0.0248
      6 C           1.7366   -0.6789    0.3748 C.3     1  UNL1        0.0272
      7 N           0.3427   -0.8441    0.2034 N.ar    1  UNL1       -0.3069
      8 C          -0.5857    0.1041    0.0200 C.ar    1  UNL1        0.0641
      9 C          -1.9353   -0.1532   -0.0997 C.ar    1  UNL1        0.0543
     10 C          -2.6670    1.0906   -0.2963 C.2     1  UNL1        0.1963
     11 O          -3.9175    1.2554   -0.4443 O.2     1  UNL1       -0.2865
     12 C          -1.6773    2.1345   -0.2918 C.ar    1  UNL1        0.0315
     13 C          -1.8286    3.4863   -0.4446 C.ar    1  UNL1       -0.0503
     14 C          -0.7381    4.3288   -0.4185 C.ar    1  UNL1       -0.0610
     15 C           0.5096    3.7291   -0.2300 C.ar    1  UNL1       -0.0611
     16 C           0.6354    2.3653   -0.0784 C.ar    1  UNL1       -0.0519
     17 C          -0.4534    1.5379   -0.1049 C.ar    1  UNL1        0.0101
     18 C          -2.4092   -1.4414   -0.0351 C.ar    1  UNL1        0.0001
     19 C          -3.7371   -1.7531   -0.1477 C.ar    1  UNL1       -0.0531
     20 C          -4.1795   -3.0636   -0.0782 C.ar    1  UNL1       -0.0611
     21 C          -3.2497   -4.0634    0.1086 C.ar    1  UNL1       -0.0610
     22 C          -1.9219   -3.7445    0.2205 C.ar    1  UNL1       -0.0488
     23 C          -1.4828   -2.4476    0.1519 C.ar    1  UNL1        0.0474
     24 C          -0.1738   -2.1002    0.2597 C.ar    1  UNL1        0.2595
     25 O           0.6196   -3.0664    0.4290 O.2     1  UNL1       -0.2670
     26 H           3.8682    2.8854    0.5549 H       1  UNL1        0.2951
     27 H           4.6407   -0.3455   -1.3789 H       1  UNL1        0.0378
     28 H           4.3713   -1.2678    0.2150 H       1  UNL1        0.0378
     29 H           2.3325    0.3179   -1.4035 H       1  UNL1        0.0288
     30 H           2.4366   -1.4298   -1.5538 H       1  UNL1        0.0288
     31 H           1.9430    0.1328    1.0888 H       1  UNL1        0.0493
     32 H           2.1419   -1.5955    0.9453 H       1  UNL1        0.0493
     33 H          -2.8092    3.9230   -0.5894 H       1  UNL1        0.0625
     34 H          -0.8760    5.3815   -0.5394 H       1  UNL1        0.0618
     35 H           1.3204    4.4697   -0.2226 H       1  UNL1        0.0618
     36 H           1.6562    2.1106    0.0414 H       1  UNL1        0.0624
     37 H          -4.4752   -1.0054   -0.2919 H       1  UNL1        0.0624
     38 H          -5.2284   -3.3657   -0.1621 H       1  UNL1        0.0618
     39 H          -3.5659   -5.0804    0.1654 H       1  UNL1        0.0618
     40 H          -1.2118   -4.5304    0.3652 H       1  UNL1        0.0625
@<TRIPOS>BOND
     1     1     2    1
     2     2     3    2
     3     2     4    1
     4     4     5    1
     5     5     6    1
     6     6     7    1
     7     7     8   ar
     8     8     9   ar
     9     9    10    1
    10    10    11    2
    11    10    12    1
    12    12    13   ar
    13    13    14   ar
    14    14    15   ar
    15    15    16   ar
    16    16    17   ar
    17     9    18   ar
    18    18    19   ar
    19    19    20   ar
    20    20    21   ar
    21    21    22   ar
    22    22    23   ar
    23    23    24   ar
    24    24    25    2
    25    24     7   ar
    26    17     8    1
    27    23    18   ar
    28    17    12   ar
    29     1    26    1
    30     4    27    1
    31     4    28    1
    32     5    29    1
    33     5    30    1
    34     6    31    1
    35     6    32    1
    36    13    33    1
    37    14    34    1
    38    15    35    1
    39    16    36    1
    40    19    37    1
    41    20    38    1
    42    21    39    1
    43    22    40    1
