@<TRIPOS>MOLECULE
*****
 42 45 0 0 0
SMALL
GASTEIGER

@<TRIPOS>ATOM
      1 N          -5.1350    0.8554   -2.8696 N.pl3   1  UNL1       -0.3579
      2 C          -4.5139    0.9672   -1.5987 C.ar    1  UNL1        0.0251
      3 C          -4.9071    2.0145   -0.7818 C.ar    1  UNL1       -0.0410
      4 C          -4.3341    2.1668    0.4628 C.ar    1  UNL1       -0.0594
      5 C          -3.3735    1.2699    0.8779 C.ar    1  UNL1       -0.0538
      6 C          -2.9561    0.2151    0.0936 C.ar    1  UNL1       -0.0121
      7 C          -1.9365   -0.6988    0.5916 C.ar    1  UNL1        0.0313
      8 C          -2.3836   -1.8149    1.3044 C.ar    1  UNL1        0.1251
      9 O          -3.7534   -2.0017    1.5034 O.3     1  UNL1       -0.5061
     10 C          -1.4952   -2.7210    1.8059 C.ar    1  UNL1       -0.0190
     11 C          -0.1556   -2.5252    1.6033 C.ar    1  UNL1       -0.0505
     12 C           0.3390   -1.4306    0.9007 C.ar    1  UNL1       -0.0165
     13 C           1.6864   -1.2733    0.7211 C.ar    1  UNL1       -0.0463
     14 C           2.1416   -0.1758    0.0191 C.ar    1  UNL1       -0.0172
     15 C           3.5721   -0.0348   -0.1557 C.ar    1  UNL1       -0.0144
     16 C           4.4456   -0.4883    0.7990 C.ar    1  UNL1       -0.0538
     17 C           5.8062   -0.3706    0.6644 C.ar    1  UNL1       -0.0577
     18 C           6.3326    0.2272   -0.4739 C.ar    1  UNL1       -0.0201
     19 C           5.4670    0.6890   -1.4442 C.ar    1  UNL1        0.1174
     20 O           5.9870    1.2889   -2.5874 O.3     1  UNL1       -0.5067
     21 C           4.0863    0.5607   -1.2905 C.ar    1  UNL1       -0.0125
     22 C           1.2147    0.7210   -0.4744 C.ar    1  UNL1       -0.0534
     23 C          -0.1527    0.5647   -0.2941 C.ar    1  UNL1       -0.0528
     24 C          -0.5893   -0.5332    0.4070 C.ar    1  UNL1       -0.0067
     25 C          -3.5489    0.0893   -1.1482 C.ar    1  UNL1       -0.0332
     26 H          -6.0625    0.3862   -2.9080 H       1  UNL1        0.1423
     27 H          -4.7271    1.2080   -3.7541 H       1  UNL1        0.1423
     28 H          -5.6752    2.7194   -1.1318 H       1  UNL1        0.0636
     29 H          -4.6648    2.9949    1.0741 H       1  UNL1        0.0618
     30 H          -2.9302    1.3947    1.8510 H       1  UNL1        0.0624
     31 H          -4.1963   -1.2929    2.1046 H       1  UNL1        0.2922
     32 H          -1.8686   -3.5725    2.3516 H       1  UNL1        0.0654
     33 H           0.5655   -3.2419    1.9989 H       1  UNL1        0.0625
     34 H           2.3420   -2.0214    1.1402 H       1  UNL1        0.0630
     35 H           4.0420   -0.9542    1.6870 H       1  UNL1        0.0624
     36 H           6.4913   -0.7265    1.4128 H       1  UNL1        0.0619
     37 H           7.4036    0.3226   -0.5854 H       1  UNL1        0.0654
     38 H           6.5132    2.1525   -2.5451 H       1  UNL1        0.2921
     39 H           3.4440    0.9328   -2.0687 H       1  UNL1        0.0660
     40 H           1.6022    1.5685   -1.0187 H       1  UNL1        0.0624
     41 H          -0.8675    1.2783   -0.6883 H       1  UNL1        0.0624
     42 H          -3.2551   -0.7101   -1.7833 H       1  UNL1        0.0642
@<TRIPOS>BOND
     1     1     2    1
     2     2     3   ar
     3     3     4   ar
     4     4     5   ar
     5     5     6   ar
     6     6     7    1
     7     7     8   ar
     8     8     9    1
     9     8    10   ar
    10    10    11   ar
    11    11    12   ar
    12    12    13   ar
    13    13    14   ar
    14    14    15    1
    15    15    16   ar
    16    16    17   ar
    17    17    18   ar
    18    18    19   ar
    19    19    20    1
    20    19    21   ar
    21    14    22   ar
    22    22    23   ar
    23    23    24   ar
    24     6    25   ar
    25    25     2   ar
    26    24     7   ar
    27    24    12   ar
    28    21    15   ar
    29     1    26    1
    30     1    27    1
    31     3    28    1
    32     4    29    1
    33     5    30    1
    34     9    31    1
    35    10    32    1
    36    11    33    1
    37    13    34    1
    38    16    35    1
    39    17    36    1
    40    18    37    1
    41    20    38    1
    42    21    39    1
    43    22    40    1
    44    23    41    1
    45    25    42    1
