
     RDKit          3D

 42 45  0  0  0  0  0  0  0  0999 V2000
   -5.1350    0.8554   -2.8696 N   0  0  0  0  0  0  0  0  0  0  0  0
   -4.5139    0.9672   -1.5987 C   0  0  0  0  0  0  0  0  0  0  0  0
   -4.9071    2.0145   -0.7818 C   0  0  0  0  0  0  0  0  0  0  0  0
   -4.3341    2.1668    0.4628 C   0  0  0  0  0  0  0  0  0  0  0  0
   -3.3735    1.2699    0.8779 C   0  0  0  0  0  0  0  0  0  0  0  0
   -2.9561    0.2151    0.0936 C   0  0  0  0  0  0  0  0  0  0  0  0
   -1.9365   -0.6988    0.5916 C   0  0  0  0  0  0  0  0  0  0  0  0
   -2.3836   -1.8149    1.3044 C   0  0  0  0  0  0  0  0  0  0  0  0
   -3.7534   -2.0017    1.5034 O   0  0  0  0  0  0  0  0  0  0  0  0
   -1.4952   -2.7210    1.8059 C   0  0  0  0  0  0  0  0  0  0  0  0
   -0.1556   -2.5252    1.6033 C   0  0  0  0  0  0  0  0  0  0  0  0
    0.3390   -1.4306    0.9007 C   0  0  0  0  0  0  0  0  0  0  0  0
    1.6864   -1.2733    0.7211 C   0  0  0  0  0  0  0  0  0  0  0  0
    2.1416   -0.1758    0.0191 C   0  0  0  0  0  0  0  0  0  0  0  0
    3.5721   -0.0348   -0.1557 C   0  0  0  0  0  0  0  0  0  0  0  0
    4.4456   -0.4883    0.7990 C   0  0  0  0  0  0  0  0  0  0  0  0
    5.8062   -0.3706    0.6644 C   0  0  0  0  0  0  0  0  0  0  0  0
    6.3326    0.2272   -0.4739 C   0  0  0  0  0  0  0  0  0  0  0  0
    5.4670    0.6890   -1.4442 C   0  0  0  0  0  0  0  0  0  0  0  0
    5.9870    1.2889   -2.5874 O   0  0  0  0  0  0  0  0  0  0  0  0
    4.0863    0.5607   -1.2905 C   0  0  0  0  0  0  0  0  0  0  0  0
    1.2147    0.7210   -0.4744 C   0  0  0  0  0  0  0  0  0  0  0  0
   -0.1527    0.5647   -0.2941 C   0  0  0  0  0  0  0  0  0  0  0  0
   -0.5893   -0.5332    0.4070 C   0  0  0  0  0  0  0  0  0  0  0  0
   -3.5489    0.0893   -1.1482 C   0  0  0  0  0  0  0  0  0  0  0  0
   -6.0625    0.3862   -2.9080 H   0  0  0  0  0  0  0  0  0  0  0  0
   -4.7271    1.2080   -3.7541 H   0  0  0  0  0  0  0  0  0  0  0  0
   -5.6752    2.7194   -1.1318 H   0  0  0  0  0  0  0  0  0  0  0  0
   -4.6648    2.9949    1.0741 H   0  0  0  0  0  0  0  0  0  0  0  0
   -2.9302    1.3947    1.8510 H   0  0  0  0  0  0  0  0  0  0  0  0
   -4.1963   -1.2929    2.1046 H   0  0  0  0  0  0  0  0  0  0  0  0
   -1.8686   -3.5725    2.3516 H   0  0  0  0  0  0  0  0  0  0  0  0
    0.5655   -3.2419    1.9989 H   0  0  0  0  0  0  0  0  0  0  0  0
    2.3420   -2.0214    1.1402 H   0  0  0  0  0  0  0  0  0  0  0  0
    4.0420   -0.9542    1.6870 H   0  0  0  0  0  0  0  0  0  0  0  0
    6.4913   -0.7265    1.4128 H   0  0  0  0  0  0  0  0  0  0  0  0
    7.4036    0.3226   -0.5854 H   0  0  0  0  0  0  0  0  0  0  0  0
    6.5132    2.1525   -2.5451 H   0  0  0  0  0  0  0  0  0  0  0  0
    3.4440    0.9328   -2.0687 H   0  0  0  0  0  0  0  0  0  0  0  0
    1.6022    1.5685   -1.0187 H   0  0  0  0  0  0  0  0  0  0  0  0
   -0.8675    1.2783   -0.6883 H   0  0  0  0  0  0  0  0  0  0  0  0
   -3.2551   -0.7101   -1.7833 H   0  0  0  0  0  0  0  0  0  0  0  0
  1  2  1  0
  2  3  2  0
  3  4  1  0
  4  5  2  0
  5  6  1  0
  6  7  1  0
  7  8  2  0
  8  9  1  0
  8 10  1  0
 10 11  2  0
 11 12  1  0
 12 13  2  0
 13 14  1  0
 14 15  1  0
 15 16  2  0
 16 17  1  0
 17 18  2  0
 18 19  1  0
 19 20  1  0
 19 21  2  0
 14 22  2  0
 22 23  1  0
 23 24  2  0
  6 25  2  0
 25  2  1  0
 24  7  1  0
 24 12  1  0
 21 15  1  0
  1 26  1  0
  1 27  1  0
  3 28  1  0
  4 29  1  0
  5 30  1  0
  9 31  1  0
 10 32  1  0
 11 33  1  0
 13 34  1  0
 16 35  1  0
 17 36  1  0
 18 37  1  0
 20 38  1  0
 21 39  1  0
 22 40  1  0
 23 41  1  0
 25 42  1  0
M  END
$$$$
