@<TRIPOS>MOLECULE
*****
 50 53 0 0 0
SMALL
GASTEIGER

@<TRIPOS>ATOM
      1 C           3.1178    1.0388    2.0401 C.3     1  UNL1        0.0418
      2 C           2.9758    0.1833    3.2822 C.3     1  UNL1       -0.0327
      3 C           1.9145    0.8717    4.0930 C.3     1  UNL1       -0.0496
      4 C           1.7682    2.2451    3.4971 C.3     1  UNL1       -0.0327
      5 C           1.9418    1.9392    2.0082 C.3     1  UNL1        0.0418
      6 N           0.7622    1.4872    1.3880 N.am    1  UNL1       -0.3067
      7 C          -0.0571    1.9853    0.3481 C.2     1  UNL1        0.2443
      8 O           0.2666    3.0489   -0.1868 O.2     1  UNL1       -0.2702
      9 C          -1.2526    1.2955   -0.1064 C.ar    1  UNL1        0.0368
     10 C          -1.9716    1.8735   -1.1251 C.ar    1  UNL1       -0.0477
     11 C          -3.1150    1.2592   -1.5938 C.ar    1  UNL1       -0.0370
     12 C          -3.6092    0.0768   -1.1083 C.ar    1  UNL1        0.0495
     13 C          -2.8671   -0.4972   -0.0738 C.ar    1  UNL1       -0.0370
     14 C          -1.7067    0.1028    0.4195 C.ar    1  UNL1       -0.0477
     15 N          -4.7638   -0.5942   -1.5436 N.ar    1  UNL1       -0.2842
     16 C          -5.6006   -0.9824   -0.5656 C.ar    1  UNL1        0.0132
     17 C          -6.7855   -1.6596   -0.8618 C.ar    1  UNL1       -0.0449
     18 C          -7.1178   -1.9418   -2.1599 C.ar    1  UNL1       -0.0552
     19 C          -6.2340   -1.5278   -3.1407 C.ar    1  UNL1        0.0033
     20 C          -5.0721   -0.8618   -2.8241 C.ar    1  UNL1        0.2557
     21 O          -4.2225   -0.4568   -3.6743 O.2     1  UNL1       -0.2673
     22 N           3.3712    0.3057    0.8449 N.am    1  UNL1       -0.3063
     23 C           4.5728    0.4506    0.1526 C.2     1  UNL1        0.2510
     24 O           5.4697    1.2220    0.5471 O.2     1  UNL1       -0.2696
     25 C           4.7467   -0.3579   -1.0872 C.ar    1  UNL1        0.0752
     26 C           5.8145   -0.3516   -1.8707 C.ar    1  UNL1       -0.0411
     27 C           5.8821   -1.1314   -2.9922 C.ar    1  UNL1       -0.0355
     28 C           4.6987   -1.9378   -3.2223 C.ar    1  UNL1        0.0787
     29 CL          4.4565   -3.0787   -4.6102 Cl      1  UNL1       -0.0758
     30 S           3.6048   -1.4640   -1.7599 S.2     1  UNL1       -0.0722
     31 H           4.0311    1.6603    2.2164 H       1  UNL1        0.0516
     32 H           2.7670   -0.8806    3.0556 H       1  UNL1        0.0284
     33 H           3.8972    0.1575    3.9094 H       1  UNL1        0.0284
     34 H           0.9630    0.3218    4.1715 H       1  UNL1        0.0266
     35 H           2.2384    1.0452    5.1571 H       1  UNL1        0.0266
     36 H           0.8159    2.7253    3.7112 H       1  UNL1        0.0284
     37 H           2.6253    2.8643    3.8426 H       1  UNL1        0.0284
     38 H           2.2623    2.8989    1.5494 H       1  UNL1        0.0516
     39 H           0.5326    0.5903    1.8743 H       1  UNL1        0.1494
     40 H          -1.7046    2.8050   -1.6071 H       1  UNL1        0.0626
     41 H          -3.6925    1.7127   -2.4039 H       1  UNL1        0.0638
     42 H          -3.1389   -1.4188    0.3970 H       1  UNL1        0.0638
     43 H          -1.1485   -0.3599    1.2208 H       1  UNL1        0.0626
     44 H          -5.4641   -0.8257    0.5044 H       1  UNL1        0.0814
     45 H          -7.5064   -2.0018   -0.1226 H       1  UNL1        0.0632
     46 H          -8.0143   -2.4618   -2.4834 H       1  UNL1        0.0620
     47 H          -6.4444   -1.7245   -4.1988 H       1  UNL1        0.0672
     48 H           2.6276   -0.3589    0.4834 H       1  UNL1        0.1494
     49 H           6.6993    0.2741   -1.6672 H       1  UNL1        0.0631
     50 H           6.6658   -1.2413   -3.7246 H       1  UNL1        0.0638
@<TRIPOS>BOND
     1     1     2    1
     2     2     3    1
     3     3     4    1
     4     4     5    1
     5     5     6    1
     6     6     7   am
     7     7     8    2
     8     7     9    1
     9     9    10   ar
    10    10    11   ar
    11    11    12   ar
    12    12    13   ar
    13    13    14   ar
    14    12    15    1
    15    15    16   ar
    16    16    17   ar
    17    17    18   ar
    18    18    19   ar
    19    19    20   ar
    20    20    21    2
    21     1    22    1
    22    22    23   am
    23    23    24    2
    24    23    25    1
    25    25    26   ar
    26    26    27   ar
    27    27    28   ar
    28    28    29    1
    29    28    30   ar
    30     5     1    1
    31    14     9   ar
    32    20    15   ar
    33    30    25   ar
    34     1    31    1
    35     2    32    1
    36     2    33    1
    37     3    34    1
    38     3    35    1
    39     4    36    1
    40     4    37    1
    41     5    38    1
    42     6    39    1
    43    10    40    1
    44    11    41    1
    45    13    42    1
    46    14    43    1
    47    16    44    1
    48    17    45    1
    49    18    46    1
    50    19    47    1
    51    22    48    1
    52    26    49    1
    53    27    50    1
