
     RDKit          3D

 50 53  0  0  0  0  0  0  0  0999 V2000
    3.1178    1.0388    2.0401 C   0  0  2  0  0  0  0  0  0  0  0  0
    2.9758    0.1833    3.2822 C   0  0  0  0  0  0  0  0  0  0  0  0
    1.9145    0.8717    4.0930 C   0  0  0  0  0  0  0  0  0  0  0  0
    1.7682    2.2451    3.4971 C   0  0  0  0  0  0  0  0  0  0  0  0
    1.9418    1.9392    2.0082 C   0  0  2  0  0  0  0  0  0  0  0  0
    0.7622    1.4872    1.3880 N   0  0  0  0  0  0  0  0  0  0  0  0
   -0.0571    1.9853    0.3481 C   0  0  0  0  0  0  0  0  0  0  0  0
    0.2666    3.0489   -0.1868 O   0  0  0  0  0  0  0  0  0  0  0  0
   -1.2526    1.2955   -0.1064 C   0  0  0  0  0  0  0  0  0  0  0  0
   -1.9716    1.8735   -1.1251 C   0  0  0  0  0  0  0  0  0  0  0  0
   -3.1150    1.2592   -1.5938 C   0  0  0  0  0  0  0  0  0  0  0  0
   -3.6092    0.0768   -1.1083 C   0  0  0  0  0  0  0  0  0  0  0  0
   -2.8671   -0.4972   -0.0738 C   0  0  0  0  0  0  0  0  0  0  0  0
   -1.7067    0.1028    0.4195 C   0  0  0  0  0  0  0  0  0  0  0  0
   -4.7638   -0.5942   -1.5436 N   0  0  0  0  0  0  0  0  0  0  0  0
   -5.6006   -0.9824   -0.5656 C   0  0  0  0  0  0  0  0  0  0  0  0
   -6.7855   -1.6596   -0.8618 C   0  0  0  0  0  0  0  0  0  0  0  0
   -7.1178   -1.9418   -2.1599 C   0  0  0  0  0  0  0  0  0  0  0  0
   -6.2340   -1.5278   -3.1407 C   0  0  0  0  0  0  0  0  0  0  0  0
   -5.0721   -0.8618   -2.8241 C   0  0  0  0  0  0  0  0  0  0  0  0
   -4.2225   -0.4568   -3.6743 O   0  0  0  0  0  0  0  0  0  0  0  0
    3.3712    0.3057    0.8449 N   0  0  0  0  0  0  0  0  0  0  0  0
    4.5728    0.4506    0.1526 C   0  0  0  0  0  0  0  0  0  0  0  0
    5.4697    1.2220    0.5471 O   0  0  0  0  0  0  0  0  0  0  0  0
    4.7467   -0.3579   -1.0872 C   0  0  0  0  0  0  0  0  0  0  0  0
    5.8145   -0.3516   -1.8707 C   0  0  0  0  0  0  0  0  0  0  0  0
    5.8821   -1.1314   -2.9922 C   0  0  0  0  0  0  0  0  0  0  0  0
    4.6987   -1.9378   -3.2223 C   0  0  0  0  0  0  0  0  0  0  0  0
    4.4565   -3.0787   -4.6102 Cl  0  0  0  0  0  0  0  0  0  0  0  0
    3.6048   -1.4640   -1.7599 S   0  0  0  0  0  0  0  0  0  0  0  0
    4.0311    1.6603    2.2164 H   0  0  0  0  0  0  0  0  0  0  0  0
    2.7670   -0.8806    3.0556 H   0  0  0  0  0  0  0  0  0  0  0  0
    3.8972    0.1575    3.9094 H   0  0  0  0  0  0  0  0  0  0  0  0
    0.9630    0.3218    4.1715 H   0  0  0  0  0  0  0  0  0  0  0  0
    2.2384    1.0452    5.1571 H   0  0  0  0  0  0  0  0  0  0  0  0
    0.8159    2.7253    3.7112 H   0  0  0  0  0  0  0  0  0  0  0  0
    2.6253    2.8643    3.8426 H   0  0  0  0  0  0  0  0  0  0  0  0
    2.2623    2.8989    1.5494 H   0  0  0  0  0  0  0  0  0  0  0  0
    0.5326    0.5903    1.8743 H   0  0  0  0  0  0  0  0  0  0  0  0
   -1.7046    2.8050   -1.6071 H   0  0  0  0  0  0  0  0  0  0  0  0
   -3.6925    1.7127   -2.4039 H   0  0  0  0  0  0  0  0  0  0  0  0
   -3.1389   -1.4188    0.3970 H   0  0  0  0  0  0  0  0  0  0  0  0
   -1.1485   -0.3599    1.2208 H   0  0  0  0  0  0  0  0  0  0  0  0
   -5.4641   -0.8257    0.5044 H   0  0  0  0  0  0  0  0  0  0  0  0
   -7.5064   -2.0018   -0.1226 H   0  0  0  0  0  0  0  0  0  0  0  0
   -8.0143   -2.4618   -2.4834 H   0  0  0  0  0  0  0  0  0  0  0  0
   -6.4444   -1.7245   -4.1988 H   0  0  0  0  0  0  0  0  0  0  0  0
    2.6276   -0.3589    0.4834 H   0  0  0  0  0  0  0  0  0  0  0  0
    6.6993    0.2741   -1.6672 H   0  0  0  0  0  0  0  0  0  0  0  0
    6.6658   -1.2413   -3.7246 H   0  0  0  0  0  0  0  0  0  0  0  0
  1  2  1  0
  2  3  1  0
  3  4  1  0
  4  5  1  0
  5  6  1  0
  6  7  1  0
  7  8  2  0
  7  9  1  0
  9 10  2  0
 10 11  1  0
 11 12  2  0
 12 13  1  0
 13 14  2  0
 12 15  1  0
 15 16  1  0
 16 17  2  0
 17 18  1  0
 18 19  2  0
 19 20  1  0
 20 21  2  0
  1 22  1  0
 22 23  1  0
 23 24  2  0
 23 25  1  0
 25 26  2  0
 26 27  1  0
 27 28  2  0
 28 29  1  0
 28 30  1  0
  5  1  1  0
 14  9  1  0
 20 15  1  0
 30 25  1  0
  1 31  1  1
  2 32  1  0
  2 33  1  0
  3 34  1  0
  3 35  1  0
  4 36  1  0
  4 37  1  0
  5 38  1  6
  6 39  1  0
 10 40  1  0
 11 41  1  0
 13 42  1  0
 14 43  1  0
 16 44  1  0
 17 45  1  0
 18 46  1  0
 19 47  1  0
 22 48  1  0
 26 49  1  0
 27 50  1  0
M  END
$$$$
