@<TRIPOS>MOLECULE
*****
 44 43 0 0 0
SMALL
GASTEIGER

@<TRIPOS>ATOM
      1 C           6.9353   -1.3353   -0.5689 C.3     1  UNL1        0.0365
      2 O           6.6495   -1.4442    0.7580 O.3     1  UNL1       -0.3807
      3 C           5.3387   -1.2067    1.0929 C.3     1  UNL1        0.0706
      4 C           4.9353    0.1785    0.7330 C.3     1  UNL1        0.0711
      5 O           3.6040    0.4598    1.0666 O.3     1  UNL1       -0.3752
      6 C           2.6862   -0.3514    0.4519 C.3     1  UNL1        0.0711
      7 C           1.3024    0.0689    0.9062 C.3     1  UNL1        0.0711
      8 O           0.9983    1.3619    0.5985 O.3     1  UNL1       -0.3752
      9 C           0.9962    1.7320   -0.7056 C.3     1  UNL1        0.0711
     10 C           0.0271    1.0802   -1.6215 C.3     1  UNL1        0.0711
     11 O          -1.3048    1.2430   -1.3379 O.3     1  UNL1       -0.3752
     12 C          -1.7634    0.8024   -0.1373 C.3     1  UNL1        0.0711
     13 C          -3.2791    1.0970   -0.1204 C.3     1  UNL1        0.0711
     14 O          -3.8022    0.3980   -1.1782 O.3     1  UNL1       -0.3752
     15 C          -5.1608    0.5264   -1.3486 C.3     1  UNL1        0.0711
     16 C          -5.8925    0.0347   -0.1202 C.3     1  UNL1        0.0706
     17 O          -5.5789   -1.3085    0.0892 O.3     1  UNL1       -0.3807
     18 C          -6.2869   -1.6965    1.2364 C.3     1  UNL1        0.0365
     19 H           6.7759   -0.3696   -1.0517 H       1  UNL1        0.0524
     20 H           6.4383   -2.1228   -1.1927 H       1  UNL1        0.0524
     21 H           8.0382   -1.5706   -0.6848 H       1  UNL1        0.0524
     22 H           5.2488   -1.3478    2.1975 H       1  UNL1        0.0582
     23 H           4.7430   -1.9877    0.5486 H       1  UNL1        0.0582
     24 H           5.5595    0.8740    1.3313 H       1  UNL1        0.0583
     25 H           5.1310    0.4044   -0.3318 H       1  UNL1        0.0583
     26 H           2.7846   -1.4285    0.6922 H       1  UNL1        0.0583
     27 H           2.8096   -0.2722   -0.6494 H       1  UNL1        0.0583
     28 H           1.3524    0.0247    2.0314 H       1  UNL1        0.0583
     29 H           0.5453   -0.6942    0.6490 H       1  UNL1        0.0583
     30 H           2.0245    1.7331   -1.1737 H       1  UNL1        0.0583
     31 H           0.7388    2.8360   -0.7143 H       1  UNL1        0.0583
     32 H           0.1777    1.4940   -2.6604 H       1  UNL1        0.0583
     33 H           0.2016   -0.0134   -1.7470 H       1  UNL1        0.0583
     34 H          -1.3048    1.2726    0.7622 H       1  UNL1        0.0583
     35 H          -1.6968   -0.2953   -0.1002 H       1  UNL1        0.0583
     36 H          -3.6478    0.7709    0.8745 H       1  UNL1        0.0583
     37 H          -3.3919    2.1790   -0.1856 H       1  UNL1        0.0583
     38 H          -5.4396   -0.1258   -2.2123 H       1  UNL1        0.0583
     39 H          -5.4689    1.5470   -1.6354 H       1  UNL1        0.0583
     40 H          -6.9792    0.0642   -0.3487 H       1  UNL1        0.0582
     41 H          -5.6737    0.6743    0.7578 H       1  UNL1        0.0582
     42 H          -5.9262   -1.0385    2.0579 H       1  UNL1        0.0524
     43 H          -7.3667   -1.5120    1.1555 H       1  UNL1        0.0524
     44 H          -6.0777   -2.7360    1.5261 H       1  UNL1        0.0524
@<TRIPOS>BOND
     1     1     2    1
     2     2     3    1
     3     3     4    1
     4     4     5    1
     5     5     6    1
     6     6     7    1
     7     7     8    1
     8     8     9    1
     9     9    10    1
    10    10    11    1
    11    11    12    1
    12    12    13    1
    13    13    14    1
    14    14    15    1
    15    15    16    1
    16    16    17    1
    17    17    18    1
    18     1    19    1
    19     1    20    1
    20     1    21    1
    21     3    22    1
    22     3    23    1
    23     4    24    1
    24     4    25    1
    25     6    26    1
    26     6    27    1
    27     7    28    1
    28     7    29    1
    29     9    30    1
    30     9    31    1
    31    10    32    1
    32    10    33    1
    33    12    34    1
    34    12    35    1
    35    13    36    1
    36    13    37    1
    37    15    38    1
    38    15    39    1
    39    16    40    1
    40    16    41    1
    41    18    42    1
    42    18    43    1
    43    18    44    1
