
     RDKit          3D

 44 43  0  0  0  0  0  0  0  0999 V2000
    6.9353   -1.3353   -0.5689 C   0  0  0  0  0  0  0  0  0  0  0  0
    6.6495   -1.4442    0.7580 O   0  0  0  0  0  0  0  0  0  0  0  0
    5.3387   -1.2067    1.0929 C   0  0  0  0  0  0  0  0  0  0  0  0
    4.9353    0.1785    0.7330 C   0  0  0  0  0  0  0  0  0  0  0  0
    3.6040    0.4598    1.0666 O   0  0  0  0  0  0  0  0  0  0  0  0
    2.6862   -0.3514    0.4519 C   0  0  0  0  0  0  0  0  0  0  0  0
    1.3024    0.0689    0.9062 C   0  0  0  0  0  0  0  0  0  0  0  0
    0.9983    1.3619    0.5985 O   0  0  0  0  0  0  0  0  0  0  0  0
    0.9962    1.7320   -0.7056 C   0  0  0  0  0  0  0  0  0  0  0  0
    0.0271    1.0802   -1.6215 C   0  0  0  0  0  0  0  0  0  0  0  0
   -1.3048    1.2430   -1.3379 O   0  0  0  0  0  0  0  0  0  0  0  0
   -1.7634    0.8024   -0.1373 C   0  0  0  0  0  0  0  0  0  0  0  0
   -3.2791    1.0970   -0.1204 C   0  0  0  0  0  0  0  0  0  0  0  0
   -3.8022    0.3980   -1.1782 O   0  0  0  0  0  0  0  0  0  0  0  0
   -5.1608    0.5264   -1.3486 C   0  0  0  0  0  0  0  0  0  0  0  0
   -5.8925    0.0347   -0.1202 C   0  0  0  0  0  0  0  0  0  0  0  0
   -5.5789   -1.3085    0.0892 O   0  0  0  0  0  0  0  0  0  0  0  0
   -6.2869   -1.6965    1.2364 C   0  0  0  0  0  0  0  0  0  0  0  0
    6.7759   -0.3696   -1.0517 H   0  0  0  0  0  0  0  0  0  0  0  0
    6.4383   -2.1228   -1.1927 H   0  0  0  0  0  0  0  0  0  0  0  0
    8.0382   -1.5706   -0.6848 H   0  0  0  0  0  0  0  0  0  0  0  0
    5.2488   -1.3478    2.1975 H   0  0  0  0  0  0  0  0  0  0  0  0
    4.7430   -1.9877    0.5486 H   0  0  0  0  0  0  0  0  0  0  0  0
    5.5595    0.8740    1.3313 H   0  0  0  0  0  0  0  0  0  0  0  0
    5.1310    0.4044   -0.3318 H   0  0  0  0  0  0  0  0  0  0  0  0
    2.7846   -1.4285    0.6922 H   0  0  0  0  0  0  0  0  0  0  0  0
    2.8096   -0.2722   -0.6494 H   0  0  0  0  0  0  0  0  0  0  0  0
    1.3524    0.0247    2.0314 H   0  0  0  0  0  0  0  0  0  0  0  0
    0.5453   -0.6942    0.6490 H   0  0  0  0  0  0  0  0  0  0  0  0
    2.0245    1.7331   -1.1737 H   0  0  0  0  0  0  0  0  0  0  0  0
    0.7388    2.8360   -0.7143 H   0  0  0  0  0  0  0  0  0  0  0  0
    0.1777    1.4940   -2.6604 H   0  0  0  0  0  0  0  0  0  0  0  0
    0.2016   -0.0134   -1.7470 H   0  0  0  0  0  0  0  0  0  0  0  0
   -1.3048    1.2726    0.7622 H   0  0  0  0  0  0  0  0  0  0  0  0
   -1.6968   -0.2953   -0.1002 H   0  0  0  0  0  0  0  0  0  0  0  0
   -3.6478    0.7709    0.8745 H   0  0  0  0  0  0  0  0  0  0  0  0
   -3.3919    2.1790   -0.1856 H   0  0  0  0  0  0  0  0  0  0  0  0
   -5.4396   -0.1258   -2.2123 H   0  0  0  0  0  0  0  0  0  0  0  0
   -5.4689    1.5470   -1.6354 H   0  0  0  0  0  0  0  0  0  0  0  0
   -6.9792    0.0642   -0.3487 H   0  0  0  0  0  0  0  0  0  0  0  0
   -5.6737    0.6743    0.7578 H   0  0  0  0  0  0  0  0  0  0  0  0
   -5.9262   -1.0385    2.0579 H   0  0  0  0  0  0  0  0  0  0  0  0
   -7.3667   -1.5120    1.1555 H   0  0  0  0  0  0  0  0  0  0  0  0
   -6.0777   -2.7360    1.5261 H   0  0  0  0  0  0  0  0  0  0  0  0
  1  2  1  0
  2  3  1  0
  3  4  1  0
  4  5  1  0
  5  6  1  0
  6  7  1  0
  7  8  1  0
  8  9  1  0
  9 10  1  0
 10 11  1  0
 11 12  1  0
 12 13  1  0
 13 14  1  0
 14 15  1  0
 15 16  1  0
 16 17  1  0
 17 18  1  0
  1 19  1  0
  1 20  1  0
  1 21  1  0
  3 22  1  0
  3 23  1  0
  4 24  1  0
  4 25  1  0
  6 26  1  0
  6 27  1  0
  7 28  1  0
  7 29  1  0
  9 30  1  0
  9 31  1  0
 10 32  1  0
 10 33  1  0
 12 34  1  0
 12 35  1  0
 13 36  1  0
 13 37  1  0
 15 38  1  0
 15 39  1  0
 16 40  1  0
 16 41  1  0
 18 42  1  0
 18 43  1  0
 18 44  1  0
M  END
$$$$
