@<TRIPOS>MOLECULE
*****
 46 48 0 0 0
SMALL
GASTEIGER

@<TRIPOS>ATOM
      1 C           1.5315    4.0106    0.0048 C.3     1  UNL1        0.0196
      2 N           0.8175    2.7554    0.1300 N.ar    1  UNL1       -0.2639
      3 C          -0.1594    2.6228    1.0292 C.ar    1  UNL1        0.2581
      4 O          -0.4248    3.6619    1.7397 O.2     1  UNL1       -0.2675
      5 C          -0.8430    1.4752    1.1864 C.ar    1  UNL1        0.0414
      6 C          -0.5625    0.3468    0.4028 C.ar    1  UNL1        0.1107
      7 N          -1.4565   -0.7306    0.4828 N.pl3   1  UNL1       -0.3148
      8 C          -1.6888   -1.7906   -0.4706 C.3     1  UNL1        0.0136
      9 C          -3.2278   -2.0206   -0.5165 C.3     1  UNL1       -0.0357
     10 C          -3.9170   -0.6946   -0.2060 C.3     1  UNL1       -0.0349
     11 C          -3.6786   -0.2792    1.2336 C.3     1  UNL1        0.0207
     12 N          -4.6991   -0.7897    2.1415 N.3     1  UNL1       -0.3259
     13 C          -2.3485   -0.8270    1.6602 C.3     1  UNL1        0.0286
     14 N           0.4557    0.4754   -0.5175 N.ar    1  UNL1       -0.2770
     15 C           0.9552   -0.7557   -1.1251 C.3     1  UNL1        0.0554
     16 C           2.4737   -0.8925   -0.8778 C.ar    1  UNL1       -0.0102
     17 C           2.9201   -1.1509    0.4083 C.ar    1  UNL1       -0.0556
     18 C           4.3287   -1.0955    0.6297 C.ar    1  UNL1       -0.0614
     19 C           5.1539   -0.7931   -0.4072 C.ar    1  UNL1       -0.0605
     20 C           4.7307   -0.5388   -1.6762 C.ar    1  UNL1       -0.0440
     21 C           3.2797   -0.6176   -1.8727 C.ar    1  UNL1        0.0566
     22 C           2.8737   -0.4018   -3.1720 C.1     1  UNL1        0.0995
     23 N           2.5127   -0.2278   -4.3478 N.1     1  UNL1       -0.1909
     24 C           1.0946    1.6498   -0.6182 C.ar    1  UNL1        0.3333
     25 O           2.0109    1.7899   -1.4481 O.2     1  UNL1       -0.2462
     26 H           1.3955    4.5600    0.9773 H       1  UNL1        0.0458
     27 H           2.6157    3.8947   -0.1567 H       1  UNL1        0.0458
     28 H           1.0169    4.6499   -0.7730 H       1  UNL1        0.0458
     29 H          -1.5948    1.4442    1.9560 H       1  UNL1        0.0706
     30 H          -1.3000   -2.7300   -0.0672 H       1  UNL1        0.0464
     31 H          -1.3762   -1.5362   -1.5073 H       1  UNL1        0.0464
     32 H          -3.4982   -2.7691    0.2565 H       1  UNL1        0.0281
     33 H          -3.5339   -2.3143   -1.5332 H       1  UNL1        0.0281
     34 H          -3.4687    0.0256   -0.9114 H       1  UNL1        0.0281
     35 H          -4.9843   -0.8162   -0.3776 H       1  UNL1        0.0281
     36 H          -3.7903    0.8083    1.2655 H       1  UNL1        0.0474
     37 H          -4.5523   -1.7759    2.3784 H       1  UNL1        0.1185
     38 H          -4.7017   -0.1835    2.9828 H       1  UNL1        0.1185
     39 H          -1.9131   -0.4358    2.5591 H       1  UNL1        0.0479
     40 H          -2.5120   -1.9223    1.8375 H       1  UNL1        0.0479
     41 H           0.6064   -1.6285   -0.5602 H       1  UNL1        0.0544
     42 H           0.8506   -0.7370   -2.1931 H       1  UNL1        0.0544
     43 H           2.2720   -1.3727    1.1794 H       1  UNL1        0.0621
     44 H           4.7535   -1.2910    1.5889 H       1  UNL1        0.0618
     45 H           6.2347   -0.7483   -0.2044 H       1  UNL1        0.0618
     46 H           5.3473   -0.3041   -2.4908 H       1  UNL1        0.0630
@<TRIPOS>BOND
     1     1     2    1
     2     2     3   ar
     3     3     4    2
     4     3     5   ar
     5     5     6   ar
     6     6     7    1
     7     7     8    1
     8     8     9    1
     9     9    10    1
    10    10    11    1
    11    11    12    1
    12    11    13    1
    13     6    14   ar
    14    14    15    1
    15    15    16    1
    16    16    17   ar
    17    17    18   ar
    18    18    19   ar
    19    19    20   ar
    20    20    21   ar
    21    21    22    1
    22    22    23    3
    23    14    24   ar
    24    24    25    2
    25    24     2   ar
    26    13     7    1
    27    21    16   ar
    28     1    26    1
    29     1    27    1
    30     1    28    1
    31     5    29    1
    32     8    30    1
    33     8    31    1
    34     9    32    1
    35     9    33    1
    36    10    34    1
    37    10    35    1
    38    11    36    1
    39    12    37    1
    40    12    38    1
    41    13    39    1
    42    13    40    1
    43    15    41    1
    44    15    42    1
    45    17    43    1
    46    18    44    1
    47    19    45    1
    48    20    46    1
