
     RDKit          3D

 46 48  0  0  0  0  0  0  0  0999 V2000
    1.5315    4.0106    0.0048 C   0  0  0  0  0  0  0  0  0  0  0  0
    0.8175    2.7554    0.1300 N   0  0  0  0  0  0  0  0  0  0  0  0
   -0.1594    2.6228    1.0292 C   0  0  0  0  0  0  0  0  0  0  0  0
   -0.4248    3.6619    1.7397 O   0  0  0  0  0  0  0  0  0  0  0  0
   -0.8430    1.4752    1.1864 C   0  0  0  0  0  0  0  0  0  0  0  0
   -0.5625    0.3468    0.4028 C   0  0  0  0  0  0  0  0  0  0  0  0
   -1.4565   -0.7306    0.4828 N   0  0  0  0  0  0  0  0  0  0  0  0
   -1.6888   -1.7906   -0.4706 C   0  0  0  0  0  0  0  0  0  0  0  0
   -3.2278   -2.0206   -0.5165 C   0  0  0  0  0  0  0  0  0  0  0  0
   -3.9170   -0.6946   -0.2060 C   0  0  0  0  0  0  0  0  0  0  0  0
   -3.6786   -0.2792    1.2336 C   0  0  1  0  0  0  0  0  0  0  0  0
   -4.6991   -0.7897    2.1415 N   0  0  0  0  0  0  0  0  0  0  0  0
   -2.3485   -0.8270    1.6602 C   0  0  0  0  0  0  0  0  0  0  0  0
    0.4557    0.4754   -0.5175 N   0  0  0  0  0  0  0  0  0  0  0  0
    0.9552   -0.7557   -1.1251 C   0  0  0  0  0  0  0  0  0  0  0  0
    2.4737   -0.8925   -0.8778 C   0  0  0  0  0  0  0  0  0  0  0  0
    2.9201   -1.1509    0.4083 C   0  0  0  0  0  0  0  0  0  0  0  0
    4.3287   -1.0955    0.6297 C   0  0  0  0  0  0  0  0  0  0  0  0
    5.1539   -0.7931   -0.4072 C   0  0  0  0  0  0  0  0  0  0  0  0
    4.7307   -0.5388   -1.6762 C   0  0  0  0  0  0  0  0  0  0  0  0
    3.2797   -0.6176   -1.8727 C   0  0  0  0  0  0  0  0  0  0  0  0
    2.8737   -0.4018   -3.1720 C   0  0  0  0  0  0  0  0  0  0  0  0
    2.5127   -0.2278   -4.3478 N   0  0  0  0  0  0  0  0  0  0  0  0
    1.0946    1.6498   -0.6182 C   0  0  0  0  0  0  0  0  0  0  0  0
    2.0109    1.7899   -1.4481 O   0  0  0  0  0  0  0  0  0  0  0  0
    1.3955    4.5600    0.9773 H   0  0  0  0  0  0  0  0  0  0  0  0
    2.6157    3.8947   -0.1567 H   0  0  0  0  0  0  0  0  0  0  0  0
    1.0169    4.6499   -0.7730 H   0  0  0  0  0  0  0  0  0  0  0  0
   -1.5948    1.4442    1.9560 H   0  0  0  0  0  0  0  0  0  0  0  0
   -1.3000   -2.7300   -0.0672 H   0  0  0  0  0  0  0  0  0  0  0  0
   -1.3762   -1.5362   -1.5073 H   0  0  0  0  0  0  0  0  0  0  0  0
   -3.4982   -2.7691    0.2565 H   0  0  0  0  0  0  0  0  0  0  0  0
   -3.5339   -2.3143   -1.5332 H   0  0  0  0  0  0  0  0  0  0  0  0
   -3.4687    0.0256   -0.9114 H   0  0  0  0  0  0  0  0  0  0  0  0
   -4.9843   -0.8162   -0.3776 H   0  0  0  0  0  0  0  0  0  0  0  0
   -3.7903    0.8083    1.2655 H   0  0  0  0  0  0  0  0  0  0  0  0
   -4.5523   -1.7759    2.3784 H   0  0  0  0  0  0  0  0  0  0  0  0
   -4.7017   -0.1835    2.9828 H   0  0  0  0  0  0  0  0  0  0  0  0
   -1.9131   -0.4358    2.5591 H   0  0  0  0  0  0  0  0  0  0  0  0
   -2.5120   -1.9223    1.8375 H   0  0  0  0  0  0  0  0  0  0  0  0
    0.6064   -1.6285   -0.5602 H   0  0  0  0  0  0  0  0  0  0  0  0
    0.8506   -0.7370   -2.1931 H   0  0  0  0  0  0  0  0  0  0  0  0
    2.2720   -1.3727    1.1794 H   0  0  0  0  0  0  0  0  0  0  0  0
    4.7535   -1.2910    1.5889 H   0  0  0  0  0  0  0  0  0  0  0  0
    6.2347   -0.7483   -0.2044 H   0  0  0  0  0  0  0  0  0  0  0  0
    5.3473   -0.3041   -2.4908 H   0  0  0  0  0  0  0  0  0  0  0  0
  1  2  1  0
  2  3  1  0
  3  4  2  0
  3  5  1  0
  5  6  2  0
  6  7  1  0
  7  8  1  0
  8  9  1  0
  9 10  1  0
 10 11  1  0
 11 12  1  0
 11 13  1  0
  6 14  1  0
 14 15  1  0
 15 16  1  0
 16 17  2  0
 17 18  1  0
 18 19  2  0
 19 20  1  0
 20 21  2  0
 21 22  1  0
 22 23  3  0
 14 24  1  0
 24 25  2  0
 24  2  1  0
 13  7  1  0
 21 16  1  0
  1 26  1  0
  1 27  1  0
  1 28  1  0
  5 29  1  0
  8 30  1  0
  8 31  1  0
  9 32  1  0
  9 33  1  0
 10 34  1  0
 10 35  1  0
 11 36  1  6
 12 37  1  0
 12 38  1  0
 13 39  1  0
 13 40  1  0
 15 41  1  0
 15 42  1  0
 17 43  1  0
 18 44  1  0
 19 45  1  0
 20 46  1  0
M  END
$$$$
