@<TRIPOS>MOLECULE
*****
 27 28 0 0 0
SMALL
GASTEIGER

@<TRIPOS>ATOM
      1 O           1.4933   -2.9770    0.7197 O.2     1  UNL1       -0.2872
      2 C           1.3549   -1.6948    0.4351 C.2     1  UNL1        0.1875
      3 C           0.0216   -1.2378    0.5639 C.2     1  UNL1       -0.0137
      4 C          -0.4788   -0.0668    0.2756 C.2     1  UNL1       -0.0509
      5 C          -1.9063    0.2943    0.4656 C.ar    1  UNL1       -0.0235
      6 C          -2.3038    1.5767    0.1184 C.ar    1  UNL1       -0.0531
      7 C          -3.6036    2.0203    0.2524 C.ar    1  UNL1       -0.0414
      8 C          -4.5360    1.1653    0.7455 C.ar    1  UNL1        0.0593
      9 CL         -6.1939    1.6827    0.9328 Cl      1  UNL1       -0.0820
     10 C          -4.1632   -0.1083    1.0951 C.ar    1  UNL1        0.0598
     11 CL         -5.3688   -1.2021    1.7288 Cl      1  UNL1       -0.0820
     12 C          -2.8398   -0.5667    0.9610 C.ar    1  UNL1       -0.0348
     13 C           2.5400   -1.0030    0.0518 C.ar    1  UNL1        0.0397
     14 C           2.6631    0.3540    0.1297 C.ar    1  UNL1       -0.0480
     15 C           3.8151    0.9873   -0.3381 C.ar    1  UNL1       -0.0429
     16 C           4.8081    0.2144   -0.8690 C.ar    1  UNL1        0.0276
     17 N           4.6743   -1.1177   -0.9365 N.ar    1  UNL1       -0.2626
     18 C           3.5992   -1.7560   -0.5060 C.ar    1  UNL1        0.0383
     19 H          -0.7639   -1.9487    0.9717 H       1  UNL1        0.0656
     20 H           0.1766    0.6593   -0.1767 H       1  UNL1        0.0625
     21 H          -1.5594    2.2604   -0.2756 H       1  UNL1        0.0624
     22 H          -3.8534    3.0447   -0.0397 H       1  UNL1        0.0633
     23 H          -2.6079   -1.5716    1.2504 H       1  UNL1        0.0638
     24 H           1.9487    1.0166    0.5924 H       1  UNL1        0.0626
     25 H           3.9167    2.0800   -0.2790 H       1  UNL1        0.0633
     26 H           5.7119    0.7142   -1.2356 H       1  UNL1        0.0829
     27 H           3.4555   -2.8197   -0.5443 H       1  UNL1        0.0837
@<TRIPOS>BOND
     1     1     2    2
     2     2     3    1
     3     3     4    2
     4     4     5    1
     5     5     6   ar
     6     6     7   ar
     7     7     8   ar
     8     8     9    1
     9     8    10   ar
    10    10    11    1
    11    10    12   ar
    12     2    13    1
    13    13    14   ar
    14    14    15   ar
    15    15    16   ar
    16    16    17   ar
    17    17    18   ar
    18    12     5   ar
    19    18    13   ar
    20     3    19    1
    21     4    20    1
    22     6    21    1
    23     7    22    1
    24    12    23    1
    25    14    24    1
    26    15    25    1
    27    16    26    1
    28    18    27    1
