@<TRIPOS>MOLECULE
*****
 56 56 0 0 0
SMALL
GASTEIGER

@<TRIPOS>ATOM
      1 C           7.5391    3.0563   -4.0288 C.3     1  UNL1       -0.0306
      2 C           6.3590    3.8939   -3.6463 C.3     1  UNL1        0.0900
      3 O           5.2563    3.0656   -3.3931 O.3     1  UNL1       -0.4618
      4 C           4.7694    2.2817   -4.3910 C.2     1  UNL1        0.3322
      5 O           5.4480    2.4565   -5.4177 O.2     1  UNL1       -0.2456
      6 C           3.7494    1.3168   -4.7108 C.2     1  UNL1        0.0254
      7 C           2.7289    0.7186   -4.0802 C.2     1  UNL1       -0.0437
      8 C           1.5741   -0.1725   -3.9586 C.3     1  UNL1       -0.0395
      9 C           2.7577    1.2702   -2.6736 C.2     1  UNL1       -0.0586
     10 C           2.1136    1.1685   -1.5400 C.2     1  UNL1       -0.0613
     11 C           1.0747    0.6383   -0.6888 C.2     1  UNL1       -0.0588
     12 C           0.5716    0.6926    0.4965 C.2     1  UNL1       -0.0504
     13 C           1.1794    1.5996    1.4786 C.3     1  UNL1       -0.0397
     14 C          -0.5527   -0.1996    0.5798 C.2     1  UNL1       -0.0583
     15 C          -1.3962   -0.5184    1.4644 C.2     1  UNL1       -0.0538
     16 C          -2.4912   -1.1335    2.1439 C.ar    1  UNL1       -0.0187
     17 C          -2.8684   -0.7906    3.4453 C.ar    1  UNL1       -0.0367
     18 C          -2.1734    0.2642    4.1889 C.3     1  UNL1       -0.0388
     19 C          -3.9161   -1.4494    3.9928 C.ar    1  UNL1       -0.0053
     20 C          -4.3219   -1.0917    5.3957 C.3     1  UNL1       -0.0360
     21 C          -4.5961   -2.4077    3.3311 C.ar    1  UNL1        0.1235
     22 O          -5.6395   -3.0042    3.9774 O.3     1  UNL1       -0.4948
     23 C          -6.4381   -4.0111    3.4366 C.3     1  UNL1        0.0788
     24 C          -4.2343   -2.7655    2.0348 C.ar    1  UNL1       -0.0162
     25 C          -3.1728   -2.1270    1.4329 C.ar    1  UNL1       -0.0396
     26 C          -2.9012   -2.6074    0.0654 C.3     1  UNL1       -0.0390
     27 H           7.9454    3.3794   -5.0207 H       1  UNL1        0.0262
     28 H           7.2948    1.9860   -4.1044 H       1  UNL1        0.0262
     29 H           8.3318    3.1171   -3.2250 H       1  UNL1        0.0262
     30 H           6.6048    4.4984   -2.7377 H       1  UNL1        0.0695
     31 H           6.1394    4.5985   -4.4842 H       1  UNL1        0.0695
     32 H           3.5349    0.7998   -5.6055 H       1  UNL1        0.0691
     33 H           0.6643    0.4270   -3.6930 H       1  UNL1        0.0278
     34 H           1.3479   -0.6242   -4.9988 H       1  UNL1        0.0278
     35 H           1.7566   -1.0309   -3.3361 H       1  UNL1        0.0278
     36 H           3.5361    1.9933   -2.4299 H       1  UNL1        0.0620
     37 H           2.4292    1.7628   -0.6841 H       1  UNL1        0.0618
     38 H           0.7375   -0.0001   -1.5004 H       1  UNL1        0.0620
     39 H           1.1607    2.6270    0.9869 H       1  UNL1        0.0278
     40 H           0.5672    1.6036    2.3912 H       1  UNL1        0.0278
     41 H           2.2417    1.4061    1.6733 H       1  UNL1        0.0278
     42 H          -0.9892   -0.8731   -0.1148 H       1  UNL1        0.0620
     43 H          -0.8906    0.1624    2.1776 H       1  UNL1        0.0624
     44 H          -1.9425    1.1664    3.5273 H       1  UNL1        0.0278
     45 H          -2.9033    0.7200    4.9287 H       1  UNL1        0.0278
     46 H          -1.3124   -0.0308    4.7823 H       1  UNL1        0.0278
     47 H          -4.9949   -1.8825    5.7953 H       1  UNL1        0.0279
     48 H          -4.7580   -0.1113    5.4563 H       1  UNL1        0.0279
     49 H          -3.3943   -1.1353    6.0089 H       1  UNL1        0.0279
     50 H          -5.8899   -4.9779    3.5469 H       1  UNL1        0.0660
     51 H          -7.4303   -4.0575    3.9837 H       1  UNL1        0.0660
     52 H          -6.6757   -3.9019    2.3582 H       1  UNL1        0.0660
     53 H          -4.8470   -3.5641    1.5918 H       1  UNL1        0.0657
     54 H          -3.0997   -1.7667   -0.6645 H       1  UNL1        0.0278
     55 H          -1.9162   -3.0543   -0.0935 H       1  UNL1        0.0278
     56 H          -3.6678   -3.3812   -0.2587 H       1  UNL1        0.0278
@<TRIPOS>BOND
     1     1     2    1
     2     2     3    1
     3     3     4    1
     4     4     5    2
     5     4     6    1
     6     6     7    2
     7     7     8    1
     8     7     9    1
     9     9    10    2
    10    10    11    1
    11    11    12    2
    12    12    13    1
    13    12    14    1
    14    14    15    2
    15    15    16    1
    16    16    17   ar
    17    17    18    1
    18    17    19   ar
    19    19    20    1
    20    19    21   ar
    21    21    22    1
    22    22    23    1
    23    21    24   ar
    24    24    25   ar
    25    25    26    1
    26    25    16   ar
    27     1    27    1
    28     1    28    1
    29     1    29    1
    30     2    30    1
    31     2    31    1
    32     6    32    1
    33     8    33    1
    34     8    34    1
    35     8    35    1
    36     9    36    1
    37    10    37    1
    38    11    38    1
    39    13    39    1
    40    13    40    1
    41    13    41    1
    42    14    42    1
    43    15    43    1
    44    18    44    1
    45    18    45    1
    46    18    46    1
    47    20    47    1
    48    20    48    1
    49    20    49    1
    50    23    50    1
    51    23    51    1
    52    23    52    1
    53    24    53    1
    54    26    54    1
    55    26    55    1
    56    26    56    1
