@<TRIPOS>MOLECULE
*****
 40 42 0 0 0
SMALL
GASTEIGER

@<TRIPOS>ATOM
      1 C           6.2221    0.7417    0.5120 C.3     1  UNL1       -0.0397
      2 C           4.7385    0.6961    0.4761 C.ar    1  UNL1       -0.0490
      3 C           4.0772    1.2271   -0.6088 C.ar    1  UNL1       -0.0577
      4 C           2.6840    1.1780   -0.6305 C.ar    1  UNL1       -0.0463
      5 C           1.9819    0.6035    0.4243 C.ar    1  UNL1        0.0311
      6 S           0.2011    0.5821    0.3162 S.3     1  UNL1       -0.0861
      7 C          -0.3678   -0.8821   -0.4735 C.ar    1  UNL1        0.0338
      8 C           0.5799   -1.8125   -0.9040 C.ar    1  UNL1       -0.0462
      9 C           0.1645   -2.9580   -1.5178 C.ar    1  UNL1       -0.0606
     10 C          -1.1533   -3.2289   -1.7277 C.ar    1  UNL1       -0.0599
     11 C          -2.0933   -2.3017   -1.2985 C.ar    1  UNL1       -0.0396
     12 C          -1.6933   -1.1321   -0.6730 C.ar    1  UNL1        0.0437
     13 N          -2.7411   -0.2461   -0.2734 N.pl3   1  UNL1       -0.3266
     14 C          -2.9034    0.1380    1.1020 C.3     1  UNL1        0.0248
     15 C          -3.1125    1.6199    1.1855 C.3     1  UNL1        0.0117
     16 N          -4.2604    1.9558    0.3518 N.3     1  UNL1       -0.3130
     17 C          -3.8847    1.7222   -1.0320 C.3     1  UNL1        0.0117
     18 C          -3.6857    0.2542   -1.2448 C.3     1  UNL1        0.0248
     19 C           2.6471    0.0700    1.5143 C.ar    1  UNL1        0.0549
     20 CL          1.7612   -0.6508    2.8375 Cl      1  UNL1       -0.0824
     21 C           4.0306    0.1276    1.5188 C.ar    1  UNL1       -0.0394
     22 H           6.6207    0.9282    1.5195 H       1  UNL1        0.0278
     23 H           6.5807    1.5403   -0.1901 H       1  UNL1        0.0278
     24 H           6.5826   -0.2478    0.1174 H       1  UNL1        0.0278
     25 H           4.6258    1.6721   -1.4256 H       1  UNL1        0.0621
     26 H           2.1437    1.5846   -1.4642 H       1  UNL1        0.0629
     27 H           1.6350   -1.6155   -0.7463 H       1  UNL1        0.0629
     28 H           0.9013   -3.6738   -1.8486 H       1  UNL1        0.0618
     29 H          -1.5062   -4.1328   -2.2134 H       1  UNL1        0.0618
     30 H          -3.1411   -2.4896   -1.4511 H       1  UNL1        0.0636
     31 H          -2.0425   -0.2039    1.7230 H       1  UNL1        0.0476
     32 H          -3.8307   -0.3850    1.4981 H       1  UNL1        0.0476
     33 H          -2.2528    2.1237    0.7392 H       1  UNL1        0.0439
     34 H          -3.2747    1.9798    2.2219 H       1  UNL1        0.0439
     35 H          -5.0554    1.3493    0.5808 H       1  UNL1        0.1220
     36 H          -4.7358    2.0794   -1.6535 H       1  UNL1        0.0439
     37 H          -2.9610    2.2979   -1.2745 H       1  UNL1        0.0439
     38 H          -4.6623   -0.2514   -1.0240 H       1  UNL1        0.0476
     39 H          -3.3685    0.0205   -2.2803 H       1  UNL1        0.0476
     40 H           4.5484   -0.2798    2.3520 H       1  UNL1        0.0635
@<TRIPOS>BOND
     1     1     2    1
     2     2     3   ar
     3     3     4   ar
     4     4     5   ar
     5     5     6    1
     6     6     7    1
     7     7     8   ar
     8     8     9   ar
     9     9    10   ar
    10    10    11   ar
    11    11    12   ar
    12    12    13    1
    13    13    14    1
    14    14    15    1
    15    15    16    1
    16    16    17    1
    17    17    18    1
    18     5    19   ar
    19    19    20    1
    20    19    21   ar
    21    21     2   ar
    22    12     7   ar
    23    18    13    1
    24     1    22    1
    25     1    23    1
    26     1    24    1
    27     3    25    1
    28     4    26    1
    29     8    27    1
    30     9    28    1
    31    10    29    1
    32    11    30    1
    33    14    31    1
    34    14    32    1
    35    15    33    1
    36    15    34    1
    37    16    35    1
    38    17    36    1
    39    17    37    1
    40    18    38    1
    41    18    39    1
    42    21    40    1
