
     RDKit          3D

 40 42  0  0  0  0  0  0  0  0999 V2000
    6.2221    0.7417    0.5120 C   0  0  0  0  0  0  0  0  0  0  0  0
    4.7385    0.6961    0.4761 C   0  0  0  0  0  0  0  0  0  0  0  0
    4.0772    1.2271   -0.6088 C   0  0  0  0  0  0  0  0  0  0  0  0
    2.6840    1.1780   -0.6305 C   0  0  0  0  0  0  0  0  0  0  0  0
    1.9819    0.6035    0.4243 C   0  0  0  0  0  0  0  0  0  0  0  0
    0.2011    0.5821    0.3162 S   0  0  0  0  0  0  0  0  0  0  0  0
   -0.3678   -0.8821   -0.4735 C   0  0  0  0  0  0  0  0  0  0  0  0
    0.5799   -1.8125   -0.9040 C   0  0  0  0  0  0  0  0  0  0  0  0
    0.1645   -2.9580   -1.5178 C   0  0  0  0  0  0  0  0  0  0  0  0
   -1.1533   -3.2289   -1.7277 C   0  0  0  0  0  0  0  0  0  0  0  0
   -2.0933   -2.3017   -1.2985 C   0  0  0  0  0  0  0  0  0  0  0  0
   -1.6933   -1.1321   -0.6730 C   0  0  0  0  0  0  0  0  0  0  0  0
   -2.7411   -0.2461   -0.2734 N   0  0  0  0  0  0  0  0  0  0  0  0
   -2.9034    0.1380    1.1020 C   0  0  0  0  0  0  0  0  0  0  0  0
   -3.1125    1.6199    1.1855 C   0  0  0  0  0  0  0  0  0  0  0  0
   -4.2604    1.9558    0.3518 N   0  0  0  0  0  0  0  0  0  0  0  0
   -3.8847    1.7222   -1.0320 C   0  0  0  0  0  0  0  0  0  0  0  0
   -3.6857    0.2542   -1.2448 C   0  0  0  0  0  0  0  0  0  0  0  0
    2.6471    0.0700    1.5143 C   0  0  0  0  0  0  0  0  0  0  0  0
    1.7612   -0.6508    2.8375 Cl  0  0  0  0  0  0  0  0  0  0  0  0
    4.0306    0.1276    1.5188 C   0  0  0  0  0  0  0  0  0  0  0  0
    6.6207    0.9282    1.5195 H   0  0  0  0  0  0  0  0  0  0  0  0
    6.5807    1.5403   -0.1901 H   0  0  0  0  0  0  0  0  0  0  0  0
    6.5826   -0.2478    0.1174 H   0  0  0  0  0  0  0  0  0  0  0  0
    4.6258    1.6721   -1.4256 H   0  0  0  0  0  0  0  0  0  0  0  0
    2.1437    1.5846   -1.4642 H   0  0  0  0  0  0  0  0  0  0  0  0
    1.6350   -1.6155   -0.7463 H   0  0  0  0  0  0  0  0  0  0  0  0
    0.9013   -3.6738   -1.8486 H   0  0  0  0  0  0  0  0  0  0  0  0
   -1.5062   -4.1328   -2.2134 H   0  0  0  0  0  0  0  0  0  0  0  0
   -3.1411   -2.4896   -1.4511 H   0  0  0  0  0  0  0  0  0  0  0  0
   -2.0425   -0.2039    1.7230 H   0  0  0  0  0  0  0  0  0  0  0  0
   -3.8307   -0.3850    1.4981 H   0  0  0  0  0  0  0  0  0  0  0  0
   -2.2528    2.1237    0.7392 H   0  0  0  0  0  0  0  0  0  0  0  0
   -3.2747    1.9798    2.2219 H   0  0  0  0  0  0  0  0  0  0  0  0
   -5.0554    1.3493    0.5808 H   0  0  0  0  0  0  0  0  0  0  0  0
   -4.7358    2.0794   -1.6535 H   0  0  0  0  0  0  0  0  0  0  0  0
   -2.9610    2.2979   -1.2745 H   0  0  0  0  0  0  0  0  0  0  0  0
   -4.6623   -0.2514   -1.0240 H   0  0  0  0  0  0  0  0  0  0  0  0
   -3.3685    0.0205   -2.2803 H   0  0  0  0  0  0  0  0  0  0  0  0
    4.5484   -0.2798    2.3520 H   0  0  0  0  0  0  0  0  0  0  0  0
  1  2  1  0
  2  3  2  0
  3  4  1  0
  4  5  2  0
  5  6  1  0
  6  7  1  0
  7  8  2  0
  8  9  1  0
  9 10  2  0
 10 11  1  0
 11 12  2  0
 12 13  1  0
 13 14  1  0
 14 15  1  0
 15 16  1  0
 16 17  1  0
 17 18  1  0
  5 19  1  0
 19 20  1  0
 19 21  2  0
 21  2  1  0
 12  7  1  0
 18 13  1  0
  1 22  1  0
  1 23  1  0
  1 24  1  0
  3 25  1  0
  4 26  1  0
  8 27  1  0
  9 28  1  0
 10 29  1  0
 11 30  1  0
 14 31  1  0
 14 32  1  0
 15 33  1  0
 15 34  1  0
 16 35  1  0
 17 36  1  0
 17 37  1  0
 18 38  1  0
 18 39  1  0
 21 40  1  0
M  END
$$$$
