@<TRIPOS>MOLECULE
*****
 67 72 0 0 0
SMALL
GASTEIGER

@<TRIPOS>ATOM
      1 O           3.9786   -1.7003    2.3745 O.2     1  UNL1       -0.2700
      2 C           3.4637   -1.0861    1.4081 C.2     1  UNL1        0.2468
      3 C           2.0404   -1.0913    1.1017 C.ar    1  UNL1        0.0381
      4 C           1.1992   -0.0343    1.3434 C.ar    1  UNL1       -0.0411
      5 C          -0.1394   -0.0647    1.0239 C.ar    1  UNL1        0.0166
      6 C          -1.0915    1.0445    1.2766 C.3     1  UNL1        0.0522
      7 C          -1.7263    0.7293    2.6251 C.3     1  UNL1       -0.0287
      8 C          -0.9922    1.5809    3.6282 C.3     1  UNL1       -0.0352
      9 C          -0.2413    2.5825    2.8227 C.3     1  UNL1        0.0129
     10 N          -0.4646    2.3146    1.4211 N.pl3   1  UNL1       -0.3225
     11 C          -0.1058    3.1843    0.3749 C.ar    1  UNL1        0.0356
     12 C           0.7310    4.2579    0.6216 C.ar    1  UNL1       -0.0052
     13 C           1.1167    5.1629   -0.3495 C.ar    1  UNL1        0.1279
     14 F           1.9412    6.2071   -0.0881 F       1  UNL1       -0.2053
     15 C           0.6604    5.0136   -1.6380 C.ar    1  UNL1        0.0089
     16 C          -0.1734    3.9552   -1.9150 C.ar    1  UNL1        0.1279
     17 F          -0.6222    3.8081   -3.1807 F       1  UNL1       -0.2053
     18 C          -0.5509    3.0585   -0.9354 C.ar    1  UNL1       -0.0052
     19 C          -0.6423   -1.2087    0.4383 C.ar    1  UNL1        0.1458
     20 O          -1.9079   -1.3186    0.1007 O.2     1  UNL1       -0.4407
     21 C          -2.4557   -2.3686   -0.4570 C.ar    1  UNL1        0.1931
     22 N          -3.8469   -2.3266   -0.7633 N.pl3   1  UNL1       -0.2969
     23 C          -4.2289   -1.9283   -2.0968 C.3     1  UNL1        0.0383
     24 C          -5.2278   -3.0118   -2.5359 C.3     1  UNL1        0.0635
     25 O          -6.3432   -3.0088   -1.7390 O.3     1  UNL1       -0.3767
     26 C          -6.1062   -3.2570   -0.4182 C.3     1  UNL1        0.0635
     27 C          -4.8828   -2.6463    0.1734 C.3     1  UNL1        0.0383
     28 C          -1.6853   -3.4855   -0.7379 C.ar    1  UNL1        0.0434
     29 C          -0.3547   -3.4336   -0.4097 C.ar    1  UNL1        0.1944
     30 O           0.3941   -4.4074   -0.6374 O.2     1  UNL1       -0.2870
     31 C           0.1681   -2.3073    0.1732 C.ar    1  UNL1        0.0651
     32 C           1.5020   -2.2170    0.5162 C.ar    1  UNL1       -0.0352
     33 N           4.3323   -0.3348    0.5575 N.am    1  UNL1       -0.2932
     34 C           5.7612   -0.2579    0.7664 C.3     1  UNL1        0.0385
     35 C           6.4226   -0.4469   -0.5947 C.3     1  UNL1        0.0635
     36 O           6.0059    0.4682   -1.5278 O.3     1  UNL1       -0.3767
     37 C           4.9022    1.2061   -1.1823 C.3     1  UNL1        0.0635
     38 C           3.7870    0.3897   -0.5733 C.3     1  UNL1        0.0385
     39 H           1.6204    0.8427    1.7985 H       1  UNL1        0.0629
     40 H          -1.8355    1.0397    0.4559 H       1  UNL1        0.0551
     41 H          -2.7983    0.9302    2.5418 H       1  UNL1        0.0287
     42 H          -1.5630   -0.3252    2.9373 H       1  UNL1        0.0287
     43 H          -1.7705    2.0699    4.2617 H       1  UNL1        0.0281
     44 H          -0.2831    0.9989    4.2560 H       1  UNL1        0.0281
     45 H          -0.7057    3.5974    3.0081 H       1  UNL1        0.0464
     46 H           0.8307    2.6776    3.0993 H       1  UNL1        0.0464
     47 H           1.1038    4.3915    1.6337 H       1  UNL1        0.0665
     48 H           0.9690    5.7338   -2.4057 H       1  UNL1        0.0675
     49 H          -1.2171    2.2194   -1.1714 H       1  UNL1        0.0665
     50 H          -4.6916   -0.9298   -2.0422 H       1  UNL1        0.0487
     51 H          -3.3781   -1.9674   -2.8090 H       1  UNL1        0.0487
     52 H          -5.4232   -2.9502   -3.6015 H       1  UNL1        0.0575
     53 H          -4.6901   -3.9782   -2.3112 H       1  UNL1        0.0575
     54 H          -7.0057   -3.0234    0.2202 H       1  UNL1        0.0575
     55 H          -5.9859   -4.3754   -0.2943 H       1  UNL1        0.0575
     56 H          -5.2157   -1.6495    0.5991 H       1  UNL1        0.0487
     57 H          -4.5060   -3.1951    1.0628 H       1  UNL1        0.0487
     58 H          -2.1634   -4.3316   -1.1959 H       1  UNL1        0.0707
     59 H           2.1208   -3.0884    0.2997 H       1  UNL1        0.0633
     60 H           6.1673   -1.0039    1.4466 H       1  UNL1        0.0487
     61 H           6.0467    0.7407    1.1644 H       1  UNL1        0.0487
     62 H           7.5275   -0.4060   -0.4734 H       1  UNL1        0.0575
     63 H           6.1933   -1.4955   -0.9076 H       1  UNL1        0.0575
     64 H           4.4684    1.7091   -2.0767 H       1  UNL1        0.0575
     65 H           5.2135    1.9398   -0.4084 H       1  UNL1        0.0575
     66 H           3.3420   -0.3250   -1.2911 H       1  UNL1        0.0487
     67 H           3.0123    1.1324   -0.2255 H       1  UNL1        0.0487
@<TRIPOS>BOND
     1     1     2    2
     2     2     3    1
     3     3     4   ar
     4     4     5   ar
     5     5     6    1
     6     6     7    1
     7     7     8    1
     8     8     9    1
     9     9    10    1
    10    10    11    1
    11    11    12   ar
    12    12    13   ar
    13    13    14    1
    14    13    15   ar
    15    15    16   ar
    16    16    17    1
    17    16    18   ar
    18     5    19   ar
    19    19    20   ar
    20    20    21   ar
    21    21    22    1
    22    22    23    1
    23    23    24    1
    24    24    25    1
    25    25    26    1
    26    26    27    1
    27    21    28   ar
    28    28    29   ar
    29    29    30    2
    30    29    31   ar
    31    31    32   ar
    32     2    33   am
    33    33    34    1
    34    34    35    1
    35    35    36    1
    36    36    37    1
    37    37    38    1
    38    32     3   ar
    39    38    33    1
    40    10     6    1
    41    18    11   ar
    42    31    19   ar
    43    27    22    1
    44     4    39    1
    45     6    40    1
    46     7    41    1
    47     7    42    1
    48     8    43    1
    49     8    44    1
    50     9    45    1
    51     9    46    1
    52    12    47    1
    53    15    48    1
    54    18    49    1
    55    23    50    1
    56    23    51    1
    57    24    52    1
    58    24    53    1
    59    26    54    1
    60    26    55    1
    61    27    56    1
    62    27    57    1
    63    28    58    1
    64    32    59    1
    65    34    60    1
    66    34    61    1
    67    35    62    1
    68    35    63    1
    69    37    64    1
    70    37    65    1
    71    38    66    1
    72    38    67    1
