
     RDKit          3D

 67 72  0  0  0  0  0  0  0  0999 V2000
    3.9786   -1.7003    2.3745 O   0  0  0  0  0  0  0  0  0  0  0  0
    3.4637   -1.0861    1.4081 C   0  0  0  0  0  0  0  0  0  0  0  0
    2.0404   -1.0913    1.1017 C   0  0  0  0  0  0  0  0  0  0  0  0
    1.1992   -0.0343    1.3434 C   0  0  0  0  0  0  0  0  0  0  0  0
   -0.1394   -0.0647    1.0239 C   0  0  0  0  0  0  0  0  0  0  0  0
   -1.0915    1.0445    1.2766 C   0  0  1  0  0  0  0  0  0  0  0  0
   -1.7263    0.7293    2.6251 C   0  0  0  0  0  0  0  0  0  0  0  0
   -0.9922    1.5809    3.6282 C   0  0  0  0  0  0  0  0  0  0  0  0
   -0.2413    2.5825    2.8227 C   0  0  0  0  0  0  0  0  0  0  0  0
   -0.4646    2.3146    1.4211 N   0  0  0  0  0  0  0  0  0  0  0  0
   -0.1058    3.1843    0.3749 C   0  0  0  0  0  0  0  0  0  0  0  0
    0.7310    4.2579    0.6216 C   0  0  0  0  0  0  0  0  0  0  0  0
    1.1167    5.1629   -0.3495 C   0  0  0  0  0  0  0  0  0  0  0  0
    1.9412    6.2071   -0.0881 F   0  0  0  0  0  0  0  0  0  0  0  0
    0.6604    5.0136   -1.6380 C   0  0  0  0  0  0  0  0  0  0  0  0
   -0.1734    3.9552   -1.9150 C   0  0  0  0  0  0  0  0  0  0  0  0
   -0.6222    3.8081   -3.1807 F   0  0  0  0  0  0  0  0  0  0  0  0
   -0.5509    3.0585   -0.9354 C   0  0  0  0  0  0  0  0  0  0  0  0
   -0.6423   -1.2087    0.4383 C   0  0  0  0  0  0  0  0  0  0  0  0
   -1.9079   -1.3186    0.1007 O   0  0  0  0  0  0  0  0  0  0  0  0
   -2.4557   -2.3686   -0.4570 C   0  0  0  0  0  0  0  0  0  0  0  0
   -3.8469   -2.3266   -0.7633 N   0  0  0  0  0  0  0  0  0  0  0  0
   -4.2289   -1.9283   -2.0968 C   0  0  0  0  0  0  0  0  0  0  0  0
   -5.2278   -3.0118   -2.5359 C   0  0  0  0  0  0  0  0  0  0  0  0
   -6.3432   -3.0088   -1.7390 O   0  0  0  0  0  0  0  0  0  0  0  0
   -6.1062   -3.2570   -0.4182 C   0  0  0  0  0  0  0  0  0  0  0  0
   -4.8828   -2.6463    0.1734 C   0  0  0  0  0  0  0  0  0  0  0  0
   -1.6853   -3.4855   -0.7379 C   0  0  0  0  0  0  0  0  0  0  0  0
   -0.3547   -3.4336   -0.4097 C   0  0  0  0  0  0  0  0  0  0  0  0
    0.3941   -4.4074   -0.6374 O   0  0  0  0  0  0  0  0  0  0  0  0
    0.1681   -2.3073    0.1732 C   0  0  0  0  0  0  0  0  0  0  0  0
    1.5020   -2.2170    0.5162 C   0  0  0  0  0  0  0  0  0  0  0  0
    4.3323   -0.3348    0.5575 N   0  0  0  0  0  0  0  0  0  0  0  0
    5.7612   -0.2579    0.7664 C   0  0  0  0  0  0  0  0  0  0  0  0
    6.4226   -0.4469   -0.5947 C   0  0  0  0  0  0  0  0  0  0  0  0
    6.0059    0.4682   -1.5278 O   0  0  0  0  0  0  0  0  0  0  0  0
    4.9022    1.2061   -1.1823 C   0  0  0  0  0  0  0  0  0  0  0  0
    3.7870    0.3897   -0.5733 C   0  0  0  0  0  0  0  0  0  0  0  0
    1.6204    0.8427    1.7985 H   0  0  0  0  0  0  0  0  0  0  0  0
   -1.8355    1.0397    0.4559 H   0  0  0  0  0  0  0  0  0  0  0  0
   -2.7983    0.9302    2.5418 H   0  0  0  0  0  0  0  0  0  0  0  0
   -1.5630   -0.3252    2.9373 H   0  0  0  0  0  0  0  0  0  0  0  0
   -1.7705    2.0699    4.2617 H   0  0  0  0  0  0  0  0  0  0  0  0
   -0.2831    0.9989    4.2560 H   0  0  0  0  0  0  0  0  0  0  0  0
   -0.7057    3.5974    3.0081 H   0  0  0  0  0  0  0  0  0  0  0  0
    0.8307    2.6776    3.0993 H   0  0  0  0  0  0  0  0  0  0  0  0
    1.1038    4.3915    1.6337 H   0  0  0  0  0  0  0  0  0  0  0  0
    0.9690    5.7338   -2.4057 H   0  0  0  0  0  0  0  0  0  0  0  0
   -1.2171    2.2194   -1.1714 H   0  0  0  0  0  0  0  0  0  0  0  0
   -4.6916   -0.9298   -2.0422 H   0  0  0  0  0  0  0  0  0  0  0  0
   -3.3781   -1.9674   -2.8090 H   0  0  0  0  0  0  0  0  0  0  0  0
   -5.4232   -2.9502   -3.6015 H   0  0  0  0  0  0  0  0  0  0  0  0
   -4.6901   -3.9782   -2.3112 H   0  0  0  0  0  0  0  0  0  0  0  0
   -7.0057   -3.0234    0.2202 H   0  0  0  0  0  0  0  0  0  0  0  0
   -5.9859   -4.3754   -0.2943 H   0  0  0  0  0  0  0  0  0  0  0  0
   -5.2157   -1.6495    0.5991 H   0  0  0  0  0  0  0  0  0  0  0  0
   -4.5060   -3.1951    1.0628 H   0  0  0  0  0  0  0  0  0  0  0  0
   -2.1634   -4.3316   -1.1959 H   0  0  0  0  0  0  0  0  0  0  0  0
    2.1208   -3.0884    0.2997 H   0  0  0  0  0  0  0  0  0  0  0  0
    6.1673   -1.0039    1.4466 H   0  0  0  0  0  0  0  0  0  0  0  0
    6.0467    0.7407    1.1644 H   0  0  0  0  0  0  0  0  0  0  0  0
    7.5275   -0.4060   -0.4734 H   0  0  0  0  0  0  0  0  0  0  0  0
    6.1933   -1.4955   -0.9076 H   0  0  0  0  0  0  0  0  0  0  0  0
    4.4684    1.7091   -2.0767 H   0  0  0  0  0  0  0  0  0  0  0  0
    5.2135    1.9398   -0.4084 H   0  0  0  0  0  0  0  0  0  0  0  0
    3.3420   -0.3250   -1.2911 H   0  0  0  0  0  0  0  0  0  0  0  0
    3.0123    1.1324   -0.2255 H   0  0  0  0  0  0  0  0  0  0  0  0
  1  2  2  0
  2  3  1  0
  3  4  2  0
  4  5  1  0
  5  6  1  0
  6  7  1  0
  7  8  1  0
  8  9  1  0
  9 10  1  0
 10 11  1  0
 11 12  2  0
 12 13  1  0
 13 14  1  0
 13 15  2  0
 15 16  1  0
 16 17  1  0
 16 18  2  0
  5 19  2  0
 19 20  1  0
 20 21  1  0
 21 22  1  0
 22 23  1  0
 23 24  1  0
 24 25  1  0
 25 26  1  0
 26 27  1  0
 21 28  2  0
 28 29  1  0
 29 30  2  0
 29 31  1  0
 31 32  2  0
  2 33  1  0
 33 34  1  0
 34 35  1  0
 35 36  1  0
 36 37  1  0
 37 38  1  0
 32  3  1  0
 38 33  1  0
 10  6  1  0
 18 11  1  0
 31 19  1  0
 27 22  1  0
  4 39  1  0
  6 40  1  6
  7 41  1  0
  7 42  1  0
  8 43  1  0
  8 44  1  0
  9 45  1  0
  9 46  1  0
 12 47  1  0
 15 48  1  0
 18 49  1  0
 23 50  1  0
 23 51  1  0
 24 52  1  0
 24 53  1  0
 26 54  1  0
 26 55  1  0
 27 56  1  0
 27 57  1  0
 28 58  1  0
 32 59  1  0
 34 60  1  0
 34 61  1  0
 35 62  1  0
 35 63  1  0
 37 64  1  0
 37 65  1  0
 38 66  1  0
 38 67  1  0
M  END
$$$$
