@<TRIPOS>MOLECULE
*****
 102 108 0 0 0
SMALL
GASTEIGER

@<TRIPOS>ATOM
      1 C         -10.4179    1.0649    4.3256 C.3     1  UNL1        0.0788
      2 O         -10.7372    1.6048    3.0615 O.3     1  UNL1       -0.4951
      3 C         -10.2663    0.9625    1.9096 C.ar    1  UNL1        0.1202
      4 C         -10.5611    1.4631    0.6592 C.ar    1  UNL1       -0.0179
      5 C         -10.1115    0.8524   -0.4999 C.ar    1  UNL1       -0.0327
      6 C          -9.3405   -0.2969   -0.4437 C.ar    1  UNL1        0.0677
      7 N          -8.8478   -0.9708   -1.5917 N.ar    1  UNL1       -0.2181
      8 N          -9.4445   -1.9008   -2.3145 N.ar    1  UNL1       -0.1694
      9 C          -8.6811   -2.3246   -3.3311 C.ar    1  UNL1        0.0679
     10 C          -9.0185   -3.3665   -4.3639 C.3     1  UNL1       -0.0025
     11 C          -7.8301   -4.2722   -4.4915 C.3     1  UNL1       -0.0572
     12 C          -9.1478   -2.6176   -5.6812 C.3     1  UNL1       -0.0572
     13 C          -7.5030   -1.6055   -3.2458 C.ar    1  UNL1        0.0018
     14 C          -7.6273   -0.7807   -2.1717 C.ar    1  UNL1        0.1299
     15 N          -6.6896    0.1530   -1.6578 N.am    1  UNL1       -0.2538
     16 C          -5.7766   -0.1652   -0.5833 C.2     1  UNL1        0.3092
     17 O          -5.8642   -1.3035   -0.1294 O.2     1  UNL1       -0.2521
     18 N          -4.8530    0.7758   -0.0923 N.am    1  UNL1       -0.2686
     19 C          -3.9550    0.5579    0.9747 C.ar    1  UNL1        0.0427
     20 C          -3.8996   -0.6070    1.6918 C.ar    1  UNL1       -0.0363
     21 C          -3.0329   -0.7691    2.7505 C.ar    1  UNL1       -0.0169
     22 C          -2.1773    0.2690    3.1208 C.ar    1  UNL1        0.1381
     23 O          -1.3170    0.1256    4.1715 O.3     1  UNL1       -0.4373
     24 C           0.0638    0.1212    4.1959 C.ar    1  UNL1        0.2249
     25 C           0.7067    0.0193    5.4409 C.ar    1  UNL1        0.0186
     26 C           2.0675    0.0192    5.4738 C.ar    1  UNL1        0.0362
     27 N           2.7756    0.1127    4.3522 N.ar    1  UNL1       -0.2225
     28 C           2.1923    0.2099    3.1555 C.ar    1  UNL1        0.2226
     29 N           2.9755    0.3231    1.9716 N.pl3   1  UNL1       -0.2806
     30 C           4.3543    0.5446    1.8994 C.ar    1  UNL1        0.0758
     31 C           5.1675    0.8645    2.9578 C.ar    1  UNL1       -0.0362
     32 C           6.5140    1.1042    2.8228 C.ar    1  UNL1       -0.0477
     33 C           7.1472    1.0358    1.5773 C.ar    1  UNL1        0.0403
     34 C           8.5719    1.3122    1.4879 C.2     1  UNL1        0.2442
     35 O           9.1829    1.7187    2.5340 O.2     1  UNL1       -0.2702
     36 N           9.3533    1.1674    0.3249 N.am    1  UNL1       -0.3101
     37 C          10.7526    1.4663    0.3196 C.3     1  UNL1        0.0247
     38 C          11.4131    1.2184   -0.9943 C.3     1  UNL1        0.0146
     39 N          11.4334   -0.0872   -1.4810 N.3     1  UNL1       -0.2965
     40 C          10.3118   -0.7718   -1.9148 C.3     1  UNL1        0.0225
     41 C          10.7950   -1.8688   -2.8948 C.3     1  UNL1        0.0604
     42 O          11.8864   -1.3294   -3.5551 O.3     1  UNL1       -0.3772
     43 C          13.0126   -1.3912   -2.7024 C.3     1  UNL1        0.0604
     44 C          12.6743   -0.7732   -1.3510 C.3     1  UNL1        0.0225
     45 C           6.3462    0.7181    0.5179 C.ar    1  UNL1       -0.0060
     46 C           4.9946    0.4763    0.6473 C.ar    1  UNL1        0.1419
     47 O           4.2624    0.1622   -0.4771 O.3     1  UNL1       -0.4932
     48 C           4.8955    0.0893   -1.7297 C.3     1  UNL1        0.0789
     49 N           0.8532    0.2106    3.1223 N.ar    1  UNL1       -0.1789
     50 C          -2.2024    1.4664    2.4182 C.ar    1  UNL1        0.0262
     51 C          -1.3499    2.4766    2.8199 C.ar    1  UNL1       -0.0505
     52 C          -1.3780    3.6677    2.1309 C.ar    1  UNL1       -0.0611
     53 C          -2.2289    3.8439    1.0774 C.ar    1  UNL1       -0.0611
     54 C          -3.0793    2.7975    0.7010 C.ar    1  UNL1       -0.0521
     55 C          -3.0879    1.5868    1.3611 C.ar    1  UNL1        0.0069
     56 C          -9.0565   -0.7818    0.8265 C.ar    1  UNL1       -0.0327
     57 C          -9.5009   -0.1792    1.9881 C.ar    1  UNL1       -0.0179
     58 H         -10.7083   -0.0125    4.4081 H       1  UNL1        0.0660
     59 H         -10.9205    1.5794    5.1514 H       1  UNL1        0.0660
     60 H          -9.3317    1.0836    4.5535 H       1  UNL1        0.0660
     61 H         -11.1675    2.3668    0.6397 H       1  UNL1        0.0655
     62 H         -10.3497    1.2575   -1.4767 H       1  UNL1        0.0640
     63 H          -9.9285   -3.8962   -4.0953 H       1  UNL1        0.0359
     64 H          -7.8722   -4.9103   -5.4011 H       1  UNL1        0.0236
     65 H          -7.6639   -4.9386   -3.6434 H       1  UNL1        0.0236
     66 H          -6.9028   -3.6649   -4.6082 H       1  UNL1        0.0236
     67 H          -9.5641   -3.2462   -6.4652 H       1  UNL1        0.0236
     68 H          -8.1231   -2.3140   -5.9630 H       1  UNL1        0.0236
     69 H          -9.7110   -1.6930   -5.4566 H       1  UNL1        0.0236
     70 H          -6.6632   -1.7056   -3.9221 H       1  UNL1        0.0671
     71 H          -6.6281    1.1302   -2.0594 H       1  UNL1        0.1578
     72 H          -4.8883    1.7038   -0.6116 H       1  UNL1        0.1564
     73 H          -4.5401   -1.4746    1.4668 H       1  UNL1        0.0637
     74 H          -3.0199   -1.7020    3.2915 H       1  UNL1        0.0655
     75 H           0.1031   -0.0557    6.3292 H       1  UNL1        0.0686
     76 H           2.6216   -0.0567    6.4212 H       1  UNL1        0.0832
     77 H           2.4320    0.2263    1.0652 H       1  UNL1        0.1551
     78 H           4.7831    0.9537    3.9600 H       1  UNL1        0.0637
     79 H           7.1269    1.3564    3.6914 H       1  UNL1        0.0626
     80 H           8.8690    0.8445   -0.5297 H       1  UNL1        0.1490
     81 H          11.2991    0.8278    1.0734 H       1  UNL1        0.0475
     82 H          10.9558    2.5112    0.6444 H       1  UNL1        0.0475
     83 H          12.4829    1.6021   -0.9777 H       1  UNL1        0.0442
     84 H          10.9237    1.9483   -1.7331 H       1  UNL1        0.0442
     85 H           9.6059   -0.1580   -2.5416 H       1  UNL1        0.0449
     86 H           9.6815   -1.2623   -1.1350 H       1  UNL1        0.0449
     87 H           9.9783   -2.2049   -3.5426 H       1  UNL1        0.0572
     88 H          11.1710   -2.7320   -2.3087 H       1  UNL1        0.0572
     89 H          13.2291   -2.4723   -2.5953 H       1  UNL1        0.0572
     90 H          13.8695   -0.8161   -3.1071 H       1  UNL1        0.0572
     91 H          13.4531   -0.0542   -1.0295 H       1  UNL1        0.0449
     92 H          12.6304   -1.5546   -0.5614 H       1  UNL1        0.0449
     93 H           6.8389    0.6621   -0.4675 H       1  UNL1        0.0662
     94 H           4.1918   -0.2895   -2.5117 H       1  UNL1        0.0660
     95 H           5.3277    1.0665   -1.9892 H       1  UNL1        0.0660
     96 H           5.7695   -0.6126   -1.6319 H       1  UNL1        0.0660
     97 H          -0.6770    2.3628    3.6715 H       1  UNL1        0.0625
     98 H          -0.7134    4.4572    2.4398 H       1  UNL1        0.0618
     99 H          -2.2570    4.7846    0.5224 H       1  UNL1        0.0618
    100 H          -3.7298    2.9843   -0.1376 H       1  UNL1        0.0624
    101 H          -8.4488   -1.6870    0.8656 H       1  UNL1        0.0640
    102 H          -9.2550   -0.5941    2.9707 H       1  UNL1        0.0655
@<TRIPOS>BOND
     1     1     2    1
     2     2     3    1
     3     3     4   ar
     4     4     5   ar
     5     5     6   ar
     6     6     7    1
     7     7     8   ar
     8     8     9   ar
     9     9    10    1
    10    10    11    1
    11    10    12    1
    12     9    13   ar
    13    13    14   ar
    14    14    15    1
    15    15    16   am
    16    16    17    2
    17    16    18   am
    18    18    19    1
    19    19    20   ar
    20    20    21   ar
    21    21    22   ar
    22    22    23    1
    23    23    24    1
    24    24    25   ar
    25    25    26   ar
    26    26    27   ar
    27    27    28   ar
    28    28    29    1
    29    29    30    1
    30    30    31   ar
    31    31    32   ar
    32    32    33   ar
    33    33    34    1
    34    34    35    2
    35    34    36   am
    36    36    37    1
    37    37    38    1
    38    38    39    1
    39    39    40    1
    40    40    41    1
    41    41    42    1
    42    42    43    1
    43    43    44    1
    44    33    45   ar
    45    45    46   ar
    46    46    47    1
    47    47    48    1
    48    28    49   ar
    49    22    50   ar
    50    50    51   ar
    51    51    52   ar
    52    52    53   ar
    53    53    54   ar
    54    54    55   ar
    55     6    56   ar
    56    56    57   ar
    57    57     3   ar
    58    14     7   ar
    59    55    19   ar
    60    49    24   ar
    61    55    50   ar
    62    46    30   ar
    63    44    39    1
    64     1    58    1
    65     1    59    1
    66     1    60    1
    67     4    61    1
    68     5    62    1
    69    10    63    1
    70    11    64    1
    71    11    65    1
    72    11    66    1
    73    12    67    1
    74    12    68    1
    75    12    69    1
    76    13    70    1
    77    15    71    1
    78    18    72    1
    79    20    73    1
    80    21    74    1
    81    25    75    1
    82    26    76    1
    83    29    77    1
    84    31    78    1
    85    32    79    1
    86    36    80    1
    87    37    81    1
    88    37    82    1
    89    38    83    1
    90    38    84    1
    91    40    85    1
    92    40    86    1
    93    41    87    1
    94    41    88    1
    95    43    89    1
    96    43    90    1
    97    44    91    1
    98    44    92    1
    99    45    93    1
   100    48    94    1
   101    48    95    1
   102    48    96    1
   103    51    97    1
   104    52    98    1
   105    53    99    1
   106    54   100    1
   107    56   101    1
   108    57   102    1
