@<TRIPOS>MOLECULE
*****
 40 41 0 0 0
SMALL
GASTEIGER

@<TRIPOS>ATOM
      1 C           3.2394    2.1427   -0.1220 C.3     1  UNL1       -0.0612
      2 C           3.4462    1.1357    1.0164 C.3     1  UNL1       -0.0312
      3 C           4.8271    1.3557    1.5888 C.3     1  UNL1       -0.0612
      4 C           2.3583    1.4409    2.0579 C.3     1  UNL1        0.0128
      5 N           1.1054    1.2546    1.3551 N.pl3   1  UNL1       -0.3272
      6 C           0.6521    0.0422    0.8382 C.ar    1  UNL1        0.1460
      7 N           1.3423   -1.1033    0.9441 N.ar    1  UNL1       -0.2017
      8 C           0.9058   -2.2732    0.4547 C.ar    1  UNL1        0.2354
      9 C           1.6808   -3.4813    0.5932 C.1     1  UNL1        0.1400
     10 N           2.3306   -4.4591    0.6984 N.1     1  UNL1       -0.1876
     11 N          -0.2789   -2.3140   -0.1750 N.ar    1  UNL1       -0.2015
     12 C          -1.0414   -1.2283   -0.3325 C.ar    1  UNL1        0.1487
     13 N          -2.2953   -1.2337   -0.9839 N.pl3   1  UNL1       -0.3092
     14 C          -3.4801   -0.8927   -0.2307 C.3     1  UNL1        0.0371
     15 C          -4.5541   -0.2692   -1.0939 C.3     1  UNL1        0.0634
     16 O          -3.9900    0.1277   -2.2803 O.3     1  UNL1       -0.3767
     17 C          -3.6489   -1.0435   -2.9961 C.3     1  UNL1        0.0634
     18 C          -2.3455   -1.5842   -2.4006 C.3     1  UNL1        0.0371
     19 C          -0.5706   -0.0204    0.1835 C.ar    1  UNL1        0.1054
     20 N          -1.3001    1.1828    0.0662 N.pl3   1  UNL1       -0.3526
     21 H           2.3374    1.9007   -0.7012 H       1  UNL1        0.0233
     22 H           3.1660    3.1364    0.4106 H       1  UNL1        0.0233
     23 H           4.1746    2.1683   -0.6919 H       1  UNL1        0.0233
     24 H           3.3535    0.1052    0.6309 H       1  UNL1        0.0310
     25 H           5.4032    2.0866    0.9554 H       1  UNL1        0.0233
     26 H           4.7086    1.7870    2.6094 H       1  UNL1        0.0233
     27 H           5.3529    0.3710    1.6323 H       1  UNL1        0.0233
     28 H           2.5032    2.4291    2.4725 H       1  UNL1        0.0464
     29 H           2.4235    0.5982    2.7864 H       1  UNL1        0.0464
     30 H           0.5308    2.1234    1.2509 H       1  UNL1        0.1475
     31 H          -3.9155   -1.7914    0.2772 H       1  UNL1        0.0487
     32 H          -3.1888   -0.1479    0.5352 H       1  UNL1        0.0487
     33 H          -5.3631   -1.0090   -1.3320 H       1  UNL1        0.0575
     34 H          -5.0642    0.5666   -0.5521 H       1  UNL1        0.0575
     35 H          -4.4064   -1.8280   -2.8506 H       1  UNL1        0.0575
     36 H          -3.4720   -0.7682   -4.0342 H       1  UNL1        0.0575
     37 H          -1.4858   -1.0979   -2.8786 H       1  UNL1        0.0487
     38 H          -2.2788   -2.6762   -2.4573 H       1  UNL1        0.0487
     39 H          -1.7235    1.4128   -0.8517 H       1  UNL1        0.1425
     40 H          -1.4389    1.8539    0.8448 H       1  UNL1        0.1425
@<TRIPOS>BOND
     1     1     2    1
     2     2     3    1
     3     2     4    1
     4     4     5    1
     5     5     6    1
     6     6     7   ar
     7     7     8   ar
     8     8     9    1
     9     9    10    3
    10     8    11   ar
    11    11    12   ar
    12    12    13    1
    13    13    14    1
    14    14    15    1
    15    15    16    1
    16    16    17    1
    17    17    18    1
    18    12    19   ar
    19    19    20    1
    20    19     6   ar
    21    18    13    1
    22     1    21    1
    23     1    22    1
    24     1    23    1
    25     2    24    1
    26     3    25    1
    27     3    26    1
    28     3    27    1
    29     4    28    1
    30     4    29    1
    31     5    30    1
    32    14    31    1
    33    14    32    1
    34    15    33    1
    35    15    34    1
    36    17    35    1
    37    17    36    1
    38    18    37    1
    39    18    38    1
    40    20    39    1
    41    20    40    1
