@<TRIPOS>MOLECULE
*****
 36 37 0 0 0
SMALL
GASTEIGER

@<TRIPOS>ATOM
      1 O          -4.7014   -0.5655    2.7877 O.3     1  UNL1       -0.4783
      2 C          -3.7404   -0.2891    1.8284 C.2     1  UNL1        0.3427
      3 O          -3.7771    0.9332    1.5372 O.2     1  UNL1       -0.2472
      4 C          -2.8882   -1.3845    1.3349 C.3     1  UNL1        0.1857
      5 O          -1.9639   -1.0431    0.3641 O.3     1  UNL1       -0.4800
      6 C          -2.1424   -0.5356   -0.8789 C.ar    1  UNL1        0.1348
      7 C          -3.4352   -0.3095   -1.2927 C.ar    1  UNL1       -0.0008
      8 C          -3.6560    0.2039   -2.5471 C.ar    1  UNL1        0.0445
      9 CL         -5.2828    0.5078   -3.1127 Cl      1  UNL1       -0.0834
     10 C          -2.5901    0.4818   -3.3636 C.ar    1  UNL1       -0.0424
     11 C          -1.3203    0.2386   -2.9049 C.ar    1  UNL1       -0.0447
     12 C          -1.0423   -0.2726   -1.6628 C.ar    1  UNL1        0.0784
     13 C           0.3482   -0.4740   -1.3243 C.2     1  UNL1        0.2479
     14 O           1.2278   -0.1741   -2.1731 O.2     1  UNL1       -0.2701
     15 N           0.9670   -0.9659   -0.1741 N.am    1  UNL1       -0.3070
     16 C           2.2365   -1.2451    0.3785 C.3     1  UNL1        0.0399
     17 C           3.1586   -0.1050    0.5650 C.ar    1  UNL1        0.0049
     18 C           4.0138    0.5718   -0.2721 C.ar    1  UNL1        0.1291
     19 F           4.0810    0.0838   -1.5148 F       1  UNL1       -0.2051
     20 C           4.7580    1.6484    0.1446 C.ar    1  UNL1       -0.0122
     21 C           4.7095    2.1367    1.4317 C.ar    1  UNL1        0.0206
     22 BR          5.7831    3.6216    1.8729 Br      1  UNL1       -0.0502
     23 C           3.8633    1.4849    2.3061 C.ar    1  UNL1       -0.0473
     24 C           3.1379    0.4230    1.8692 C.ar    1  UNL1       -0.0533
     25 H          -5.0136    0.0873    3.4888 H       1  UNL1        0.2952
     26 H          -2.4497   -1.8923    2.2189 H       1  UNL1        0.0815
     27 H          -3.5970   -2.1503    0.9088 H       1  UNL1        0.0815
     28 H          -4.3090   -0.5103   -0.7051 H       1  UNL1        0.0669
     29 H          -2.7853    0.8836   -4.3402 H       1  UNL1        0.0632
     30 H          -0.5396    0.4869   -3.6157 H       1  UNL1        0.0627
     31 H           0.2442   -1.2304    0.5698 H       1  UNL1        0.1493
     32 H           2.7434   -1.9638   -0.3671 H       1  UNL1        0.0513
     33 H           2.2291   -1.8500    1.3065 H       1  UNL1        0.0513
     34 H           5.3941    2.0879   -0.6321 H       1  UNL1        0.0657
     35 H           3.8339    1.8721    3.3045 H       1  UNL1        0.0629
     36 H           2.5049   -0.0052    2.6635 H       1  UNL1        0.0622
@<TRIPOS>BOND
     1     1     2    1
     2     2     3    2
     3     2     4    1
     4     4     5    1
     5     5     6    1
     6     6     7   ar
     7     7     8   ar
     8     8     9    1
     9     8    10   ar
    10    10    11   ar
    11    11    12   ar
    12    12    13    1
    13    13    14    2
    14    13    15   am
    15    15    16    1
    16    16    17    1
    17    17    18   ar
    18    18    19    1
    19    18    20   ar
    20    20    21   ar
    21    21    22    1
    22    21    23   ar
    23    23    24   ar
    24    12     6   ar
    25    24    17   ar
    26     1    25    1
    27     4    26    1
    28     4    27    1
    29     7    28    1
    30    10    29    1
    31    11    30    1
    32    15    31    1
    33    16    32    1
    34    16    33    1
    35    20    34    1
    36    23    35    1
    37    24    36    1
