
     RDKit          3D

 52 55  0  0  0  0  0  0  0  0999 V2000
    8.6040   -3.3791    0.3101 N   0  0  0  0  0  0  0  0  0  0  0  0
    7.5753   -2.8719   -0.4868 C   0  0  0  0  0  0  0  0  0  0  0  0
    7.1178   -3.5320   -1.4507 O   0  0  0  0  0  0  0  0  0  0  0  0
    7.0162   -1.5425   -0.1948 C   0  0  0  0  0  0  0  0  0  0  0  0
    7.5250   -0.8210    0.8685 C   0  0  0  0  0  0  0  0  0  0  0  0
    7.0132    0.3816    1.1256 N   0  0  0  0  0  0  0  0  0  0  0  0
    6.0127    0.9099    0.3743 C   0  0  0  0  0  0  0  0  0  0  0  0
    5.4492    0.2592   -0.7007 C   0  0  0  0  0  0  0  0  0  0  0  0
    4.4677    0.6771   -1.5044 O   0  0  0  0  0  0  0  0  0  0  0  0
    3.6495    1.7411   -1.6693 C   0  0  0  0  0  0  0  0  0  0  0  0
    2.7294    2.0613   -0.5579 C   0  0  0  0  0  0  0  0  0  0  0  0
    3.0289    2.9949    0.3953 C   0  0  0  0  0  0  0  0  0  0  0  0
    2.1216    3.2339    1.4093 C   0  0  0  0  0  0  0  0  0  0  0  0
    0.9175    2.5166    1.4384 C   0  0  0  0  0  0  0  0  0  0  0  0
    0.6209    1.5874    0.4881 C   0  0  0  0  0  0  0  0  0  0  0  0
   -0.6062    0.8771    0.5439 N   0  0  0  0  0  0  0  0  0  0  0  0
   -1.7434    1.4107   -0.1200 C   0  0  0  0  0  0  0  0  0  0  0  0
   -1.5752    2.5191   -0.7344 O   0  0  0  0  0  0  0  0  0  0  0  0
   -3.0396    0.7654   -0.1241 C   0  0  0  0  0  0  0  0  0  0  0  0
   -4.0693    1.3707   -0.7985 C   0  0  0  0  0  0  0  0  0  0  0  0
   -5.3090    0.7711   -0.8131 C   0  0  0  0  0  0  0  0  0  0  0  0
   -5.5267   -0.4148   -0.1669 C   0  0  0  0  0  0  0  0  0  0  0  0
   -6.8333   -1.0355   -0.1890 C   0  0  0  0  0  0  0  0  0  0  0  0
   -7.0215   -2.2504    0.4834 C   0  0  0  0  0  0  0  0  0  0  0  0
   -8.2331   -2.9061    0.5110 C   0  0  0  0  0  0  0  0  0  0  0  0
   -9.3214   -2.3670   -0.1414 C   0  0  0  0  0  0  0  0  0  0  0  0
   -9.1759   -1.1787   -0.8108 C   0  0  0  0  0  0  0  0  0  0  0  0
   -7.9370   -0.5259   -0.8284 C   0  0  0  0  0  0  0  0  0  0  0  0
   -4.5027   -0.9832    0.4836 N   0  0  0  0  0  0  0  0  0  0  0  0
   -3.2670   -0.4112    0.5135 C   0  0  0  0  0  0  0  0  0  0  0  0
    1.5232    1.3499   -0.5198 C   0  0  0  0  0  0  0  0  0  0  0  0
    6.0054   -1.0112   -0.9552 C   0  0  0  0  0  0  0  0  0  0  0  0
    9.5231   -2.9105    0.4847 H   0  0  0  0  0  0  0  0  0  0  0  0
    8.4554   -4.3155    0.7835 H   0  0  0  0  0  0  0  0  0  0  0  0
    8.3222   -1.2709    1.4472 H   0  0  0  0  0  0  0  0  0  0  0  0
    5.6278    1.8904    0.6085 H   0  0  0  0  0  0  0  0  0  0  0  0
    3.0079    1.5614   -2.5962 H   0  0  0  0  0  0  0  0  0  0  0  0
    4.2150    2.6902   -1.9401 H   0  0  0  0  0  0  0  0  0  0  0  0
    3.9703    3.5603    0.3672 H   0  0  0  0  0  0  0  0  0  0  0  0
    2.3535    3.9733    2.1687 H   0  0  0  0  0  0  0  0  0  0  0  0
    0.2110    2.7016    2.2266 H   0  0  0  0  0  0  0  0  0  0  0  0
   -0.7085   -0.0289    1.0568 H   0  0  0  0  0  0  0  0  0  0  0  0
   -3.9017    2.3248   -1.3206 H   0  0  0  0  0  0  0  0  0  0  0  0
   -6.0707    1.3085   -1.3658 H   0  0  0  0  0  0  0  0  0  0  0  0
   -6.1651   -2.6689    0.9933 H   0  0  0  0  0  0  0  0  0  0  0  0
   -8.3610   -3.8550    1.0420 H   0  0  0  0  0  0  0  0  0  0  0  0
  -10.2614   -2.9090   -0.1000 H   0  0  0  0  0  0  0  0  0  0  0  0
  -10.0157   -0.7607   -1.3154 H   0  0  0  0  0  0  0  0  0  0  0  0
   -7.8551    0.4206   -1.3718 H   0  0  0  0  0  0  0  0  0  0  0  0
   -2.4955   -0.9411    1.0647 H   0  0  0  0  0  0  0  0  0  0  0  0
    1.3200    0.6224   -1.2866 H   0  0  0  0  0  0  0  0  0  0  0  0
    5.6124   -1.5892   -1.7908 H   0  0  0  0  0  0  0  0  0  0  0  0
  1  2  1  0
  2  3  2  0
  2  4  1  0
  4  5  2  0
  5  6  1  0
  6  7  2  0
  7  8  1  0
  8  9  1  0
  9 10  1  0
 10 11  1  0
 11 12  2  0
 12 13  1  0
 13 14  2  0
 14 15  1  0
 15 16  1  0
 16 17  1  0
 17 18  2  0
 17 19  1  0
 19 20  2  0
 20 21  1  0
 21 22  2  0
 22 23  1  0
 23 24  2  0
 24 25  1  0
 25 26  2  0
 26 27  1  0
 27 28  2  0
 22 29  1  0
 29 30  2  0
 15 31  2  0
  8 32  2  0
 32  4  1  0
 31 11  1  0
 30 19  1  0
 28 23  1  0
  1 33  1  0
  1 34  1  0
  5 35  1  0
  7 36  1  0
 10 37  1  0
 10 38  1  0
 12 39  1  0
 13 40  1  0
 14 41  1  0
 16 42  1  0
 20 43  1  0
 21 44  1  0
 24 45  1  0
 25 46  1  0
 26 47  1  0
 27 48  1  0
 28 49  1  0
 30 50  1  0
 31 51  1  0
 32 52  1  0
M  END
$$$$
