@<TRIPOS>MOLECULE
*****
 52 55 0 0 0
SMALL
GASTEIGER

@<TRIPOS>ATOM
      1 N           8.6040   -3.3791    0.3101 N.am    1  UNL1       -0.3253
      2 C           7.5753   -2.8719   -0.4868 C.2     1  UNL1        0.2431
      3 O           7.1178   -3.5320   -1.4507 O.2     1  UNL1       -0.2704
      4 C           7.0162   -1.5425   -0.1948 C.ar    1  UNL1        0.0580
      5 C           7.5250   -0.8210    0.8685 C.ar    1  UNL1        0.0399
      6 N           7.0132    0.3816    1.1256 N.ar    1  UNL1       -0.2589
      7 C           6.0127    0.9099    0.3743 C.ar    1  UNL1        0.0692
      8 C           5.4492    0.2592   -0.7007 C.ar    1  UNL1        0.1397
      9 O           4.4677    0.6771   -1.5044 O.3     1  UNL1       -0.4858
     10 C           3.6495    1.7411   -1.6693 C.3     1  UNL1        0.1148
     11 C           2.7294    2.0613   -0.5579 C.ar    1  UNL1       -0.0087
     12 C           3.0289    2.9949    0.3953 C.ar    1  UNL1       -0.0552
     13 C           2.1216    3.2339    1.4093 C.ar    1  UNL1       -0.0596
     14 C           0.9175    2.5166    1.4384 C.ar    1  UNL1       -0.0404
     15 C           0.6209    1.5874    0.4881 C.ar    1  UNL1        0.0340
     16 N          -0.6062    0.8771    0.5439 N.am    1  UNL1       -0.2815
     17 C          -1.7434    1.4107   -0.1200 C.2     1  UNL1        0.2497
     18 O          -1.5752    2.5191   -0.7344 O.2     1  UNL1       -0.2698
     19 C          -3.0396    0.7654   -0.1241 C.ar    1  UNL1        0.0551
     20 C          -4.0693    1.3707   -0.7985 C.ar    1  UNL1       -0.0461
     21 C          -5.3090    0.7711   -0.8131 C.ar    1  UNL1       -0.0350
     22 C          -5.5267   -0.4148   -0.1669 C.ar    1  UNL1        0.0710
     23 C          -6.8333   -1.0355   -0.1890 C.ar    1  UNL1        0.0003
     24 C          -7.0215   -2.2504    0.4834 C.ar    1  UNL1       -0.0526
     25 C          -8.2331   -2.9061    0.5110 C.ar    1  UNL1       -0.0611
     26 C          -9.3214   -2.3670   -0.1414 C.ar    1  UNL1       -0.0617
     27 C          -9.1759   -1.1787   -0.8108 C.ar    1  UNL1       -0.0611
     28 C          -7.9370   -0.5259   -0.8284 C.ar    1  UNL1       -0.0526
     29 N          -4.5027   -0.9832    0.4836 N.ar    1  UNL1       -0.2542
     30 C          -3.2670   -0.4112    0.5135 C.ar    1  UNL1        0.0404
     31 C           1.5232    1.3499   -0.5198 C.ar    1  UNL1       -0.0341
     32 C           6.0054   -1.0112   -0.9552 C.ar    1  UNL1       -0.0048
     33 H           9.5231   -2.9105    0.4847 H       1  UNL1        0.1453
     34 H           8.4554   -4.3155    0.7835 H       1  UNL1        0.1453
     35 H           8.3222   -1.2709    1.4472 H       1  UNL1        0.0837
     36 H           5.6278    1.8904    0.6085 H       1  UNL1        0.0867
     37 H           3.0079    1.5614   -2.5962 H       1  UNL1        0.0748
     38 H           4.2150    2.6902   -1.9401 H       1  UNL1        0.0748
     39 H           3.9703    3.5603    0.3672 H       1  UNL1        0.0621
     40 H           2.3535    3.9733    2.1687 H       1  UNL1        0.0618
     41 H           0.2110    2.7016    2.2266 H       1  UNL1        0.0636
     42 H          -0.7085   -0.0289    1.0568 H       1  UNL1        0.1551
     43 H          -3.9017    2.3248   -1.3206 H       1  UNL1        0.0626
     44 H          -6.0707    1.3085   -1.3658 H       1  UNL1        0.0639
     45 H          -6.1651   -2.6689    0.9933 H       1  UNL1        0.0624
     46 H          -8.3610   -3.8550    1.0420 H       1  UNL1        0.0618
     47 H         -10.2614   -2.9090   -0.1000 H       1  UNL1        0.0618
     48 H         -10.0157   -0.7607   -1.3154 H       1  UNL1        0.0618
     49 H          -7.8551    0.4206   -1.3718 H       1  UNL1        0.0624
     50 H          -2.4955   -0.9411    1.0647 H       1  UNL1        0.0837
     51 H           1.3200    0.6224   -1.2866 H       1  UNL1        0.0640
     52 H           5.6124   -1.5892   -1.7908 H       1  UNL1        0.0663
@<TRIPOS>BOND
     1     1     2   am
     2     2     3    2
     3     2     4    1
     4     4     5   ar
     5     5     6   ar
     6     6     7   ar
     7     7     8   ar
     8     8     9    1
     9     9    10    1
    10    10    11    1
    11    11    12   ar
    12    12    13   ar
    13    13    14   ar
    14    14    15   ar
    15    15    16    1
    16    16    17   am
    17    17    18    2
    18    17    19    1
    19    19    20   ar
    20    20    21   ar
    21    21    22   ar
    22    22    23    1
    23    23    24   ar
    24    24    25   ar
    25    25    26   ar
    26    26    27   ar
    27    27    28   ar
    28    22    29   ar
    29    29    30   ar
    30    15    31   ar
    31     8    32   ar
    32    32     4   ar
    33    31    11   ar
    34    30    19   ar
    35    28    23   ar
    36     1    33    1
    37     1    34    1
    38     5    35    1
    39     7    36    1
    40    10    37    1
    41    10    38    1
    42    12    39    1
    43    13    40    1
    44    14    41    1
    45    16    42    1
    46    20    43    1
    47    21    44    1
    48    24    45    1
    49    25    46    1
    50    26    47    1
    51    27    48    1
    52    28    49    1
    53    30    50    1
    54    31    51    1
    55    32    52    1
