@<TRIPOS>MOLECULE
*****
 52 55 0 0 0
SMALL
GASTEIGER

@<TRIPOS>ATOM
      1 C          -4.6528    2.5403   -0.9039 C.3     1  UNL1       -0.0653
      2 C          -5.6306    1.4488   -0.5789 C.3     1  UNL1       -0.0555
      3 C          -4.9481    0.1210   -0.7875 C.3     1  UNL1       -0.0465
      4 C          -3.7423    0.0941    0.1586 C.3     1  UNL1        0.0057
      5 C          -3.0171   -1.1963    0.0060 C.ar    1  UNL1        0.1119
      6 N          -3.3693   -2.1986   -0.8511 N.ar    1  UNL1       -0.2205
      7 C          -2.5534   -3.2401   -0.7135 C.ar    1  UNL1        0.1527
      8 CL         -2.5697   -4.7671   -1.5657 Cl      1  UNL1       -0.0600
      9 C          -1.6217   -2.9126    0.2760 C.ar    1  UNL1        0.0831
     10 C          -0.5271   -3.8258    0.7430 C.3     1  UNL1        0.0872
     11 O          -1.0915   -4.8309    1.5695 O.3     1  UNL1       -0.3889
     12 N          -1.9440   -1.6714    0.6752 N.ar    1  UNL1       -0.3239
     13 C          -1.2499   -0.9462    1.7175 C.3     1  UNL1        0.0498
     14 C          -0.0200   -0.2308    1.2432 C.ar    1  UNL1       -0.0277
     15 C          -0.0131    0.8347    0.4006 C.ar    1  UNL1       -0.0563
     16 C           1.1765    1.4700    0.0139 C.ar    1  UNL1       -0.0537
     17 C           2.3945    1.0355    0.4765 C.ar    1  UNL1       -0.0179
     18 C           3.6362    1.6851    0.0939 C.ar    1  UNL1       -0.0162
     19 C           3.9140    2.9774    0.5301 C.ar    1  UNL1       -0.0540
     20 C           5.0768    3.6213    0.2042 C.ar    1  UNL1       -0.0612
     21 C           6.0352    3.0208   -0.5754 C.ar    1  UNL1       -0.0617
     22 C           5.7727    1.7432   -1.0135 C.ar    1  UNL1       -0.0595
     23 C           4.5909    1.0739   -0.6891 C.ar    1  UNL1       -0.0240
     24 C           4.4168   -0.2647   -1.2039 C.ar    1  UNL1        0.0438
     25 N           5.2973   -0.9569   -1.9347 N.ar    1  UNL1       -0.2895
     26 N           4.7871   -2.1387   -2.2265 N.ar    1  UNL1       -0.2180
     27 N           3.5835   -2.1690   -1.6689 N.ar    1  UNL1       -0.2180
     28 N           3.3452   -1.0342   -1.0431 N.ar    1  UNL1       -0.2895
     29 C           2.3687   -0.0409    1.3266 C.ar    1  UNL1       -0.0537
     30 C           1.2244   -0.6776    1.7190 C.ar    1  UNL1       -0.0563
     31 H          -5.2460    3.4137   -1.2758 H       1  UNL1        0.0230
     32 H          -3.9434    2.2883   -1.7110 H       1  UNL1        0.0230
     33 H          -4.0573    2.8044    0.0117 H       1  UNL1        0.0230
     34 H          -6.5603    1.5421   -1.1845 H       1  UNL1        0.0263
     35 H          -5.9456    1.5202    0.4776 H       1  UNL1        0.0263
     36 H          -5.5966   -0.7535   -0.6495 H       1  UNL1        0.0269
     37 H          -4.5646    0.0534   -1.8403 H       1  UNL1        0.0269
     38 H          -3.1651    0.9750   -0.0534 H       1  UNL1        0.0343
     39 H          -4.2058    0.1679    1.1851 H       1  UNL1        0.0343
     40 H           0.0082   -4.2663   -0.1161 H       1  UNL1        0.0623
     41 H           0.2178   -3.3297    1.3753 H       1  UNL1        0.0623
     42 H          -1.3627   -5.5893    0.9838 H       1  UNL1        0.2099
     43 H          -0.9633   -1.6520    2.5137 H       1  UNL1        0.0542
     44 H          -1.9686   -0.2280    2.1593 H       1  UNL1        0.0542
     45 H          -0.9313    1.2007    0.0223 H       1  UNL1        0.0621
     46 H           1.1128    2.3179   -0.6627 H       1  UNL1        0.0624
     47 H           3.1929    3.5241    1.1591 H       1  UNL1        0.0624
     48 H           5.2693    4.6331    0.5583 H       1  UNL1        0.0618
     49 H           6.9608    3.5257   -0.8379 H       1  UNL1        0.0618
     50 H           6.5225    1.2355   -1.6405 H       1  UNL1        0.0618
     51 H           3.3032   -0.4281    1.7238 H       1  UNL1        0.0624
     52 H           1.2537   -1.5195    2.4037 H       1  UNL1        0.0621
@<TRIPOS>UNITY_ATOM_ATTR
27 1
charge -1
@<TRIPOS>BOND
     1     1     2    1
     2     2     3    1
     3     3     4    1
     4     4     5    1
     5     5     6   ar
     6     6     7   ar
     7     7     8    1
     8     7     9   ar
     9     9    10    1
    10    10    11    1
    11     9    12   ar
    12    12    13    1
    13    13    14    1
    14    14    15   ar
    15    15    16   ar
    16    16    17   ar
    17    17    18    1
    18    18    19   ar
    19    19    20   ar
    20    20    21   ar
    21    21    22   ar
    22    22    23   ar
    23    23    24    1
    24    24    25   ar
    25    25    26   ar
    26    26    27   ar
    27    27    28   ar
    28    17    29   ar
    29    29    30   ar
    30    12     5   ar
    31    30    14   ar
    32    23    18   ar
    33    28    24   ar
    34     1    31    1
    35     1    32    1
    36     1    33    1
    37     2    34    1
    38     2    35    1
    39     3    36    1
    40     3    37    1
    41     4    38    1
    42     4    39    1
    43    10    40    1
    44    10    41    1
    45    11    42    1
    46    13    43    1
    47    13    44    1
    48    15    45    1
    49    16    46    1
    50    19    47    1
    51    20    48    1
    52    21    49    1
    53    22    50    1
    54    29    51    1
    55    30    52    1
