
     RDKit          3D

 52 55  0  0  0  0  0  0  0  0999 V2000
   -4.6528    2.5403   -0.9039 C   0  0  0  0  0  0  0  0  0  0  0  0
   -5.6306    1.4488   -0.5789 C   0  0  0  0  0  0  0  0  0  0  0  0
   -4.9481    0.1210   -0.7875 C   0  0  0  0  0  0  0  0  0  0  0  0
   -3.7423    0.0941    0.1586 C   0  0  0  0  0  0  0  0  0  0  0  0
   -3.0171   -1.1963    0.0060 C   0  0  0  0  0  0  0  0  0  0  0  0
   -3.3693   -2.1986   -0.8511 N   0  0  0  0  0  0  0  0  0  0  0  0
   -2.5534   -3.2401   -0.7135 C   0  0  0  0  0  0  0  0  0  0  0  0
   -2.5697   -4.7671   -1.5657 Cl  0  0  0  0  0  0  0  0  0  0  0  0
   -1.6217   -2.9126    0.2760 C   0  0  0  0  0  0  0  0  0  0  0  0
   -0.5271   -3.8258    0.7430 C   0  0  0  0  0  0  0  0  0  0  0  0
   -1.0915   -4.8309    1.5695 O   0  0  0  0  0  0  0  0  0  0  0  0
   -1.9440   -1.6714    0.6752 N   0  0  0  0  0  0  0  0  0  0  0  0
   -1.2499   -0.9462    1.7175 C   0  0  0  0  0  0  0  0  0  0  0  0
   -0.0200   -0.2308    1.2432 C   0  0  0  0  0  0  0  0  0  0  0  0
   -0.0131    0.8347    0.4006 C   0  0  0  0  0  0  0  0  0  0  0  0
    1.1765    1.4700    0.0139 C   0  0  0  0  0  0  0  0  0  0  0  0
    2.3945    1.0355    0.4765 C   0  0  0  0  0  0  0  0  0  0  0  0
    3.6362    1.6851    0.0939 C   0  0  0  0  0  0  0  0  0  0  0  0
    3.9140    2.9774    0.5301 C   0  0  0  0  0  0  0  0  0  0  0  0
    5.0768    3.6213    0.2042 C   0  0  0  0  0  0  0  0  0  0  0  0
    6.0352    3.0208   -0.5754 C   0  0  0  0  0  0  0  0  0  0  0  0
    5.7727    1.7432   -1.0135 C   0  0  0  0  0  0  0  0  0  0  0  0
    4.5909    1.0739   -0.6891 C   0  0  0  0  0  0  0  0  0  0  0  0
    4.4168   -0.2647   -1.2039 C   0  0  0  0  0  0  0  0  0  0  0  0
    5.2973   -0.9569   -1.9347 N   0  0  0  0  0  0  0  0  0  0  0  0
    4.7871   -2.1387   -2.2265 N   0  0  0  0  0  0  0  0  0  0  0  0
    3.5835   -2.1690   -1.6689 N   0  0  0  0  0  2  0  0  0  0  0  0
    3.3452   -1.0342   -1.0431 N   0  0  0  0  0  0  0  0  0  0  0  0
    2.3687   -0.0409    1.3266 C   0  0  0  0  0  0  0  0  0  0  0  0
    1.2244   -0.6776    1.7190 C   0  0  0  0  0  0  0  0  0  0  0  0
   -5.2460    3.4137   -1.2758 H   0  0  0  0  0  0  0  0  0  0  0  0
   -3.9434    2.2883   -1.7110 H   0  0  0  0  0  0  0  0  0  0  0  0
   -4.0573    2.8044    0.0117 H   0  0  0  0  0  0  0  0  0  0  0  0
   -6.5603    1.5421   -1.1845 H   0  0  0  0  0  0  0  0  0  0  0  0
   -5.9456    1.5202    0.4776 H   0  0  0  0  0  0  0  0  0  0  0  0
   -5.5966   -0.7535   -0.6495 H   0  0  0  0  0  0  0  0  0  0  0  0
   -4.5646    0.0534   -1.8403 H   0  0  0  0  0  0  0  0  0  0  0  0
   -3.1651    0.9750   -0.0534 H   0  0  0  0  0  0  0  0  0  0  0  0
   -4.2058    0.1679    1.1851 H   0  0  0  0  0  0  0  0  0  0  0  0
    0.0082   -4.2663   -0.1161 H   0  0  0  0  0  0  0  0  0  0  0  0
    0.2178   -3.3297    1.3753 H   0  0  0  0  0  0  0  0  0  0  0  0
   -1.3627   -5.5893    0.9838 H   0  0  0  0  0  0  0  0  0  0  0  0
   -0.9633   -1.6520    2.5137 H   0  0  0  0  0  0  0  0  0  0  0  0
   -1.9686   -0.2280    2.1593 H   0  0  0  0  0  0  0  0  0  0  0  0
   -0.9313    1.2007    0.0223 H   0  0  0  0  0  0  0  0  0  0  0  0
    1.1128    2.3179   -0.6627 H   0  0  0  0  0  0  0  0  0  0  0  0
    3.1929    3.5241    1.1591 H   0  0  0  0  0  0  0  0  0  0  0  0
    5.2693    4.6331    0.5583 H   0  0  0  0  0  0  0  0  0  0  0  0
    6.9608    3.5257   -0.8379 H   0  0  0  0  0  0  0  0  0  0  0  0
    6.5225    1.2355   -1.6405 H   0  0  0  0  0  0  0  0  0  0  0  0
    3.3032   -0.4281    1.7238 H   0  0  0  0  0  0  0  0  0  0  0  0
    1.2537   -1.5195    2.4037 H   0  0  0  0  0  0  0  0  0  0  0  0
  1  2  1  0
  2  3  1  0
  3  4  1  0
  4  5  1  0
  5  6  2  0
  6  7  1  0
  7  8  1  0
  7  9  2  0
  9 10  1  0
 10 11  1  0
  9 12  1  0
 12 13  1  0
 13 14  1  0
 14 15  2  0
 15 16  1  0
 16 17  2  0
 17 18  1  0
 18 19  2  0
 19 20  1  0
 20 21  2  0
 21 22  1  0
 22 23  2  0
 23 24  1  0
 24 25  1  0
 25 26  2  0
 26 27  1  0
 27 28  1  0
 17 29  1  0
 29 30  2  0
 12  5  1  0
 30 14  1  0
 23 18  1  0
 28 24  2  0
  1 31  1  0
  1 32  1  0
  1 33  1  0
  2 34  1  0
  2 35  1  0
  3 36  1  0
  3 37  1  0
  4 38  1  0
  4 39  1  0
 10 40  1  0
 10 41  1  0
 11 42  1  0
 13 43  1  0
 13 44  1  0
 15 45  1  0
 16 46  1  0
 19 47  1  0
 20 48  1  0
 21 49  1  0
 22 50  1  0
 29 51  1  0
 30 52  1  0
M  CHG  1  27  -1
M  END
$$$$
