@<TRIPOS>MOLECULE
*****
 43 46 0 0 0
SMALL
GASTEIGER

@<TRIPOS>ATOM
      1 C          -4.9490    1.0743   -1.5440 C.3     1  UNL1       -0.0120
      2 N          -3.5928    0.7370   -1.1816 N.3     1  UNL1       -0.2942
      3 C          -3.3137   -0.6550   -1.4557 C.3     1  UNL1        0.0425
      4 C          -1.9025   -0.9991   -1.1178 C.3     1  UNL1        0.0025
      5 C          -1.2098    0.0907   -0.2954 C.3     1  UNL1        0.1061
      6 C          -2.0814    0.6929    0.7502 C.3     1  UNL1        0.0025
      7 C          -3.5080    0.7655    0.2542 C.3     1  UNL1        0.0425
      8 C          -4.2703   -0.4686    0.6804 C.3     1  UNL1        0.1023
      9 O          -5.3814   -0.8598   -0.0729 O.3     1  UNL1       -0.3650
     10 C          -4.1906   -1.4191   -0.4587 C.3     1  UNL1        0.1023
     11 O           0.0217   -0.3842    0.1636 O.3     1  UNL1       -0.4608
     12 C           1.2622    0.0348   -0.2091 C.2     1  UNL1        0.3171
     13 O           1.1969    0.9432   -1.0554 O.2     1  UNL1       -0.2501
     14 C           2.3507   -0.7005    0.4904 C.3     1  UNL1        0.1044
     15 C           2.1035   -0.4388    1.9816 C.3     1  UNL1        0.0612
     16 O           2.1584    0.9084    2.2465 O.3     1  UNL1       -0.3939
     17 C           3.6922   -0.2551    0.0947 C.ar    1  UNL1       -0.0315
     18 C           4.0556    1.0660    0.1582 C.ar    1  UNL1       -0.0577
     19 C           5.3415    1.4418   -0.2283 C.ar    1  UNL1       -0.0615
     20 C           6.2921    0.5445   -0.6810 C.ar    1  UNL1       -0.0617
     21 C           5.9374   -0.7921   -0.7497 C.ar    1  UNL1       -0.0615
     22 C           4.6651   -1.1497   -0.3653 C.ar    1  UNL1       -0.0577
     23 H          -5.5600    1.3976   -0.6524 H       1  UNL1        0.0391
     24 H          -4.9260    2.0027   -2.1806 H       1  UNL1        0.0391
     25 H          -5.4546    0.2919   -2.1128 H       1  UNL1        0.0391
     26 H          -3.5938   -0.9007   -2.4995 H       1  UNL1        0.0490
     27 H          -1.3269   -1.0886   -2.0688 H       1  UNL1        0.0317
     28 H          -1.8016   -1.9936   -0.6279 H       1  UNL1        0.0317
     29 H          -0.9818    0.8896   -1.0357 H       1  UNL1        0.0735
     30 H          -1.7410    1.7156    0.9643 H       1  UNL1        0.0317
     31 H          -2.1320    0.1283    1.6949 H       1  UNL1        0.0317
     32 H          -4.0526    1.6368    0.7121 H       1  UNL1        0.0490
     33 H          -4.1483   -0.8222    1.7176 H       1  UNL1        0.0638
     34 H          -3.9746   -2.4895   -0.3217 H       1  UNL1        0.0638
     35 H           2.3046   -1.7983    0.3499 H       1  UNL1        0.0485
     36 H           1.0509   -0.7575    2.1682 H       1  UNL1        0.0568
     37 H           2.7313   -1.0733    2.6272 H       1  UNL1        0.0568
     38 H           1.5623    1.2450    2.9336 H       1  UNL1        0.2094
     39 H           3.3942    1.8394    0.4944 H       1  UNL1        0.0621
     40 H           5.6812    2.4756   -0.1976 H       1  UNL1        0.0618
     41 H           7.2842    0.8576   -0.9759 H       1  UNL1        0.0618
     42 H           6.6336   -1.5454   -1.0949 H       1  UNL1        0.0618
     43 H           4.3734   -2.1881   -0.4131 H       1  UNL1        0.0621
@<TRIPOS>BOND
     1     1     2    1
     2     2     3    1
     3     3     4    1
     4     4     5    1
     5     5     6    1
     6     6     7    1
     7     7     8    1
     8     8     9    1
     9     9    10    1
    10     5    11    1
    11    11    12    1
    12    12    13    2
    13    12    14    1
    14    14    15    1
    15    15    16    1
    16    14    17    1
    17    17    18   ar
    18    18    19   ar
    19    19    20   ar
    20    20    21   ar
    21    21    22   ar
    22     7     2    1
    23    10     8    1
    24    22    17   ar
    25    10     3    1
    26     1    23    1
    27     1    24    1
    28     1    25    1
    29     3    26    1
    30     4    27    1
    31     4    28    1
    32     5    29    1
    33     6    30    1
    34     6    31    1
    35     7    32    1
    36     8    33    1
    37    10    34    1
    38    14    35    1
    39    15    36    1
    40    15    37    1
    41    16    38    1
    42    18    39    1
    43    19    40    1
    44    20    41    1
    45    21    42    1
    46    22    43    1
