
     RDKit          3D

 43 46  0  0  0  0  0  0  0  0999 V2000
   -4.9490    1.0743   -1.5440 C   0  0  0  0  0  0  0  0  0  0  0  0
   -3.5928    0.7370   -1.1816 N   0  0  0  0  0  0  0  0  0  0  0  0
   -3.3137   -0.6550   -1.4557 C   0  0  1  0  0  0  0  0  0  0  0  0
   -1.9025   -0.9991   -1.1178 C   0  0  0  0  0  0  0  0  0  0  0  0
   -1.2098    0.0907   -0.2954 C   0  0  1  0  0  0  0  0  0  0  0  0
   -2.0814    0.6929    0.7502 C   0  0  0  0  0  0  0  0  0  0  0  0
   -3.5080    0.7655    0.2542 C   0  0  2  0  0  0  0  0  0  0  0  0
   -4.2703   -0.4686    0.6804 C   0  0  1  0  0  0  0  0  0  0  0  0
   -5.3814   -0.8598   -0.0729 O   0  0  0  0  0  0  0  0  0  0  0  0
   -4.1906   -1.4191   -0.4587 C   0  0  1  0  0  0  0  0  0  0  0  0
    0.0217   -0.3842    0.1636 O   0  0  0  0  0  0  0  0  0  0  0  0
    1.2622    0.0348   -0.2091 C   0  0  0  0  0  0  0  0  0  0  0  0
    1.1969    0.9432   -1.0554 O   0  0  0  0  0  0  0  0  0  0  0  0
    2.3507   -0.7005    0.4904 C   0  0  2  0  0  0  0  0  0  0  0  0
    2.1035   -0.4388    1.9816 C   0  0  0  0  0  0  0  0  0  0  0  0
    2.1584    0.9084    2.2465 O   0  0  0  0  0  0  0  0  0  0  0  0
    3.6922   -0.2551    0.0947 C   0  0  0  0  0  0  0  0  0  0  0  0
    4.0556    1.0660    0.1582 C   0  0  0  0  0  0  0  0  0  0  0  0
    5.3415    1.4418   -0.2283 C   0  0  0  0  0  0  0  0  0  0  0  0
    6.2921    0.5445   -0.6810 C   0  0  0  0  0  0  0  0  0  0  0  0
    5.9374   -0.7921   -0.7497 C   0  0  0  0  0  0  0  0  0  0  0  0
    4.6651   -1.1497   -0.3653 C   0  0  0  0  0  0  0  0  0  0  0  0
   -5.5600    1.3976   -0.6524 H   0  0  0  0  0  0  0  0  0  0  0  0
   -4.9260    2.0027   -2.1806 H   0  0  0  0  0  0  0  0  0  0  0  0
   -5.4546    0.2919   -2.1128 H   0  0  0  0  0  0  0  0  0  0  0  0
   -3.5938   -0.9007   -2.4995 H   0  0  0  0  0  0  0  0  0  0  0  0
   -1.3269   -1.0886   -2.0688 H   0  0  0  0  0  0  0  0  0  0  0  0
   -1.8016   -1.9936   -0.6279 H   0  0  0  0  0  0  0  0  0  0  0  0
   -0.9818    0.8896   -1.0357 H   0  0  0  0  0  0  0  0  0  0  0  0
   -1.7410    1.7156    0.9643 H   0  0  0  0  0  0  0  0  0  0  0  0
   -2.1320    0.1283    1.6949 H   0  0  0  0  0  0  0  0  0  0  0  0
   -4.0526    1.6368    0.7121 H   0  0  0  0  0  0  0  0  0  0  0  0
   -4.1483   -0.8222    1.7176 H   0  0  0  0  0  0  0  0  0  0  0  0
   -3.9746   -2.4895   -0.3217 H   0  0  0  0  0  0  0  0  0  0  0  0
    2.3046   -1.7983    0.3499 H   0  0  0  0  0  0  0  0  0  0  0  0
    1.0509   -0.7575    2.1682 H   0  0  0  0  0  0  0  0  0  0  0  0
    2.7313   -1.0733    2.6272 H   0  0  0  0  0  0  0  0  0  0  0  0
    1.5623    1.2450    2.9336 H   0  0  0  0  0  0  0  0  0  0  0  0
    3.3942    1.8394    0.4944 H   0  0  0  0  0  0  0  0  0  0  0  0
    5.6812    2.4756   -0.1976 H   0  0  0  0  0  0  0  0  0  0  0  0
    7.2842    0.8576   -0.9759 H   0  0  0  0  0  0  0  0  0  0  0  0
    6.6336   -1.5454   -1.0949 H   0  0  0  0  0  0  0  0  0  0  0  0
    4.3734   -2.1881   -0.4131 H   0  0  0  0  0  0  0  0  0  0  0  0
  1  2  1  0
  2  3  1  0
  3  4  1  0
  4  5  1  0
  5  6  1  0
  6  7  1  0
  7  8  1  0
  8  9  1  0
  9 10  1  0
  5 11  1  0
 11 12  1  0
 12 13  2  0
 12 14  1  0
 14 15  1  0
 15 16  1  0
 14 17  1  0
 17 18  2  0
 18 19  1  0
 19 20  2  0
 20 21  1  0
 21 22  2  0
  7  2  1  0
 10  8  1  0
 22 17  1  0
 10  3  1  0
  1 23  1  0
  1 24  1  0
  1 25  1  0
  3 26  1  6
  4 27  1  0
  4 28  1  0
  5 29  1  6
  6 30  1  0
  6 31  1  0
  7 32  1  1
  8 33  1  1
 10 34  1  1
 14 35  1  1
 15 36  1  0
 15 37  1  0
 16 38  1  0
 18 39  1  0
 19 40  1  0
 20 41  1  0
 21 42  1  0
 22 43  1  0
M  END
$$$$
