
     RDKit          3D

 58 61  0  0  0  0  0  0  0  0999 V2000
    8.1287   -0.9992    2.1484 N   0  0  0  0  0  0  0  0  0  0  0  0
    7.0999   -0.9683    1.1785 C   0  0  0  0  0  0  0  0  0  0  0  0
    6.5895    0.2212    0.6857 C   0  0  0  0  0  0  0  0  0  0  0  0
    5.5861    0.1715   -0.2594 C   0  0  0  0  0  0  0  0  0  0  0  0
    5.0659   -1.0236   -0.7379 C   0  0  0  0  0  0  0  0  0  0  0  0
    3.8007   -1.0799   -1.9297 S   0  0  0  0  0  6  0  0  0  0  0  0
    3.9093    0.1678   -2.7852 O   0  0  0  0  0  0  0  0  0  0  0  0
    3.9600   -2.2445   -2.8706 O   0  0  0  0  0  0  0  0  0  0  0  0
    2.2412   -1.0903   -1.2349 N   0  0  0  0  0  0  0  0  0  0  0  0
    2.0671    0.1569   -0.4721 C   0  0  0  0  0  0  0  0  0  0  0  0
    0.7557   -0.0612    0.2989 C   0  0  0  0  0  0  0  0  0  0  0  0
   -0.3320   -0.2442   -0.6228 N   0  0  0  0  0  0  0  0  0  0  0  0
   -1.5662    0.3935   -0.4538 C   0  0  0  0  0  0  0  0  0  0  0  0
   -1.8038    1.3947   -1.3593 N   0  0  0  0  0  0  0  0  0  0  0  0
   -2.9414    2.0836   -1.3374 C   0  0  0  0  0  0  0  0  0  0  0  0
   -3.8997    1.8102   -0.4120 C   0  0  0  0  0  0  0  0  0  0  0  0
   -5.1595    2.5548   -0.3461 C   0  0  0  0  0  0  0  0  0  0  0  0
   -5.7518    2.3216    0.9234 O   0  0  0  0  0  0  0  0  0  0  0  0
   -6.1185    1.9883   -1.3879 C   0  0  0  0  0  0  0  0  0  0  0  0
   -7.3107    2.6598   -1.3576 F   0  0  0  0  0  0  0  0  0  0  0  0
   -6.3287    0.6724   -1.0998 F   0  0  0  0  0  0  0  0  0  0  0  0
   -5.5420    2.1140   -2.6282 F   0  0  0  0  0  0  0  0  0  0  0  0
   -4.9744    4.0321   -0.4876 C   0  0  0  0  0  0  0  0  0  0  0  0
   -4.4185    4.4507   -1.6639 F   0  0  0  0  0  0  0  0  0  0  0  0
   -6.2142    4.6980   -0.4157 F   0  0  0  0  0  0  0  0  0  0  0  0
   -4.2665    4.5124    0.6083 F   0  0  0  0  0  0  0  0  0  0  0  0
   -3.6546    0.7860    0.5130 C   0  0  0  0  0  0  0  0  0  0  0  0
   -2.4581    0.0537    0.4983 C   0  0  0  0  0  0  0  0  0  0  0  0
   -2.2008   -0.9853    1.4574 C   0  0  0  0  0  0  0  0  0  0  0  0
   -1.3364   -0.9423    2.5205 C   0  0  0  0  0  0  0  0  0  0  0  0
   -1.1290   -1.9980    3.3940 C   0  0  0  0  0  0  0  0  0  0  0  0
   -1.8208   -3.1656    3.2016 C   0  0  0  0  0  0  0  0  0  0  0  0
   -2.6768   -3.2399    2.1685 N   0  0  0  0  0  0  0  0  0  0  0  0
   -2.8738   -2.2141    1.3250 C   0  0  0  0  0  0  0  0  0  0  0  0
   -0.1684   -1.1126   -1.7953 C   0  0  0  0  0  0  0  0  0  0  0  0
    1.2665   -1.0946   -2.2752 C   0  0  0  0  0  0  0  0  0  0  0  0
    5.6162   -2.1768   -0.2079 C   0  0  0  0  0  0  0  0  0  0  0  0
    6.5950   -2.1188    0.7139 N   0  0  0  0  0  0  0  0  0  0  0  0
    8.3271   -0.1681    2.7135 H   0  0  0  0  0  0  0  0  0  0  0  0
    8.6869   -1.8627    2.2923 H   0  0  0  0  0  0  0  0  0  0  0  0
    6.9840    1.1674    1.0483 H   0  0  0  0  0  0  0  0  0  0  0  0
    5.1849    1.0897   -0.6465 H   0  0  0  0  0  0  0  0  0  0  0  0
    2.8492    0.2949    0.2771 H   0  0  0  0  0  0  0  0  0  0  0  0
    1.8925    0.9952   -1.1452 H   0  0  0  0  0  0  0  0  0  0  0  0
    0.9356   -1.0142    0.8465 H   0  0  0  0  0  0  0  0  0  0  0  0
    0.6478    0.7620    0.9919 H   0  0  0  0  0  0  0  0  0  0  0  0
   -3.0518    2.8611   -2.1079 H   0  0  0  0  0  0  0  0  0  0  0  0
   -6.1897    1.4285    0.8380 H   0  0  0  0  0  0  0  0  0  0  0  0
   -4.3813    0.5246    1.2717 H   0  0  0  0  0  0  0  0  0  0  0  0
   -0.8012   -0.0228    2.6864 H   0  0  0  0  0  0  0  0  0  0  0  0
   -0.4186   -1.8984    4.2294 H   0  0  0  0  0  0  0  0  0  0  0  0
   -1.6579   -3.9898    3.8848 H   0  0  0  0  0  0  0  0  0  0  0  0
   -3.5711   -2.3507    0.5275 H   0  0  0  0  0  0  0  0  0  0  0  0
   -0.5009   -2.1414   -1.5507 H   0  0  0  0  0  0  0  0  0  0  0  0
   -0.7867   -0.7714   -2.6503 H   0  0  0  0  0  0  0  0  0  0  0  0
    1.4694   -0.2337   -2.9444 H   0  0  0  0  0  0  0  0  0  0  0  0
    1.4088   -2.0043   -2.9245 H   0  0  0  0  0  0  0  0  0  0  0  0
    5.2380   -3.1502   -0.5549 H   0  0  0  0  0  0  0  0  0  0  0  0
  1  2  1  0
  2  3  2  0
  3  4  1  0
  4  5  2  0
  5  6  1  0
  6  7  2  0
  6  8  2  0
  6  9  1  0
  9 10  1  0
 10 11  1  0
 11 12  1  0
 12 13  1  0
 13 14  2  0
 14 15  1  0
 15 16  2  0
 16 17  1  0
 17 18  1  0
 17 19  1  0
 19 20  1  0
 19 21  1  0
 19 22  1  0
 17 23  1  0
 23 24  1  0
 23 25  1  0
 23 26  1  0
 16 27  1  0
 27 28  2  0
 28 29  1  0
 29 30  2  0
 30 31  1  0
 31 32  2  0
 32 33  1  0
 33 34  2  0
 12 35  1  0
 35 36  1  0
  5 37  1  0
 37 38  2  0
 38  2  1  0
 36  9  1  0
 28 13  1  0
 34 29  1  0
  1 39  1  0
  1 40  1  0
  3 41  1  0
  4 42  1  0
 10 43  1  0
 10 44  1  0
 11 45  1  0
 11 46  1  0
 15 47  1  0
 18 48  1  0
 27 49  1  0
 30 50  1  0
 31 51  1  0
 32 52  1  0
 34 53  1  0
 35 54  1  0
 35 55  1  0
 36 56  1  0
 36 57  1  0
 37 58  1  0
M  END
$$$$
