@<TRIPOS>MOLECULE
*****
 24 23 0 0 0
SMALL
GASTEIGER

@<TRIPOS>ATOM
      1 N           3.6742   -0.4883    0.1462 N.3     1  UNL1       -0.3300
      2 C           2.5117    0.2825   -0.2136 C.3     1  UNL1       -0.0068
      3 C           1.2141   -0.4735    0.0829 C.3     1  UNL1       -0.0383
      4 C           0.1222    0.4608   -0.3458 C.3     1  UNL1       -0.0179
      5 C          -1.2596   -0.0603   -0.1528 C.3     1  UNL1        0.1750
      6 N          -1.4140   -1.2791   -0.9263 N.3     1  UNL1       -0.3113
      7 C          -1.6438   -0.3661    1.2421 C.3     1  UNL1        0.2672
      8 F          -1.5973    0.6881    2.1045 F       1  UNL1       -0.2066
      9 F          -2.9777   -0.7747    1.2100 F       1  UNL1       -0.2066
     10 C          -2.1967    0.9500   -0.7315 C.2     1  UNL1        0.3305
     11 O          -2.1148    2.1733   -0.0392 O.3     1  UNL1       -0.4792
     12 O          -3.0304    0.9394   -1.6914 O.2     1  UNL1       -0.2487
     13 H           3.9945   -0.3564    1.1276 H       1  UNL1        0.1182
     14 H           3.6457   -1.4645   -0.1903 H       1  UNL1        0.1182
     15 H           2.5689    0.4484   -1.3232 H       1  UNL1        0.0422
     16 H           2.5563    1.2584    0.2804 H       1  UNL1        0.0422
     17 H           1.2436   -0.6337    1.1828 H       1  UNL1        0.0278
     18 H           1.2452   -1.4204   -0.4655 H       1  UNL1        0.0278
     19 H           0.2963    0.6554   -1.4243 H       1  UNL1        0.0291
     20 H           0.2849    1.4287    0.1773 H       1  UNL1        0.0291
     21 H          -0.8035   -2.0468   -0.5875 H       1  UNL1        0.1194
     22 H          -2.4178   -1.5561   -0.8653 H       1  UNL1        0.1194
     23 H          -1.0824   -1.2697    1.6095 H       1  UNL1        0.1043
     24 H          -2.8199    2.9046   -0.2066 H       1  UNL1        0.2951
@<TRIPOS>BOND
     1     1     2    1
     2     2     3    1
     3     3     4    1
     4     4     5    1
     5     5     6    1
     6     5     7    1
     7     7     8    1
     8     7     9    1
     9     5    10    1
    10    10    11    1
    11    10    12    2
    12     1    13    1
    13     1    14    1
    14     2    15    1
    15     2    16    1
    16     3    17    1
    17     3    18    1
    18     4    19    1
    19     4    20    1
    20     6    21    1
    21     6    22    1
    22     7    23    1
    23    11    24    1
