
     RDKit          3D

 55 57  0  0  0  0  0  0  0  0999 V2000
   -2.5645   -0.4203    0.4086 C   0  0  1  0  0  0  0  0  0  0  0  0
   -3.6958   -1.1734   -0.1968 C   0  0  0  0  0  0  0  0  0  0  0  0
   -4.3586   -0.5023   -1.3380 C   0  0  0  0  0  0  0  0  0  0  0  0
   -5.6471   -0.1592   -1.3606 C   0  0  0  0  0  0  0  0  0  0  0  0
   -6.5074   -0.4464   -0.1966 C   0  0  0  0  0  0  0  0  0  0  0  0
   -6.1807    0.5070   -2.5664 C   0  0  0  0  0  0  0  0  0  0  0  0
   -2.0149   -1.2394    1.5389 O   0  0  0  0  0  0  0  0  0  0  0  0
   -1.1724   -0.7932    0.4178 C   0  0  1  0  0  0  0  0  0  0  0  0
   -0.6953   -1.8945   -0.5051 C   0  0  0  0  0  0  0  0  0  0  0  0
   -0.1998    0.2538    0.8841 C   0  0  1  0  0  0  0  0  0  0  0  0
    1.2146   -0.2740    0.9904 C   0  0  2  0  0  0  0  0  0  0  0  0
    1.4643   -0.8017    2.2619 O   0  0  0  0  0  0  0  0  0  0  0  0
    1.8818   -2.1239    2.2101 C   0  0  0  0  0  0  0  0  0  0  0  0
    2.1809    0.8870    0.7215 C   0  0  1  0  0  0  0  0  0  0  0  0
    1.6936    2.0756    1.4672 C   0  0  0  0  0  0  0  0  0  0  0  0
    0.4352    2.5921    0.8036 C   0  0  0  0  0  0  0  0  0  0  0  0
   -0.2430    1.4830   -0.0020 C   0  0  2  0  0  0  0  0  0  0  0  0
   -1.1677    1.8000   -1.0102 C   0  0  0  0  0  0  0  0  0  0  0  0
    0.1167    1.3680   -1.3459 O   0  0  0  0  0  0  0  0  0  0  0  0
    3.4997    0.5073    1.0565 O   0  0  0  0  0  0  0  0  0  0  0  0
    4.4862    0.4433    0.0699 C   0  0  0  0  0  0  0  0  0  0  0  0
    4.1774    0.7277   -1.1062 O   0  0  0  0  0  0  0  0  0  0  0  0
    5.8159    0.0564    0.4287 N   0  0  0  0  0  0  0  0  0  0  0  0
    6.7612    0.0194   -0.6531 C   0  0  0  0  0  0  0  0  0  0  0  0
    6.4403    0.3080   -1.8351 O   0  0  0  0  0  0  0  0  0  0  0  0
    8.1462   -0.3910   -0.2381 C   0  0  0  0  0  0  0  0  0  0  0  0
    9.1727   -0.3803   -1.6969 Cl  0  0  0  0  0  0  0  0  0  0  0  0
   -2.8566    0.5886    0.7800 H   0  0  0  0  0  0  0  0  0  0  0  0
   -3.4621   -2.2005   -0.5358 H   0  0  0  0  0  0  0  0  0  0  0  0
   -4.5016   -1.3296    0.5855 H   0  0  0  0  0  0  0  0  0  0  0  0
   -3.7028   -0.3051   -2.1779 H   0  0  0  0  0  0  0  0  0  0  0  0
   -7.5654   -0.2570   -0.4874 H   0  0  0  0  0  0  0  0  0  0  0  0
   -6.2491    0.1704    0.6830 H   0  0  0  0  0  0  0  0  0  0  0  0
   -6.4789   -1.5131    0.1245 H   0  0  0  0  0  0  0  0  0  0  0  0
   -5.3878    0.6900   -3.3115 H   0  0  0  0  0  0  0  0  0  0  0  0
   -6.9465   -0.1628   -3.0307 H   0  0  0  0  0  0  0  0  0  0  0  0
   -6.7076    1.4429   -2.2722 H   0  0  0  0  0  0  0  0  0  0  0  0
   -1.5545   -2.1347   -1.2035 H   0  0  0  0  0  0  0  0  0  0  0  0
    0.0995   -1.5454   -1.1887 H   0  0  0  0  0  0  0  0  0  0  0  0
   -0.4101   -2.8201   -0.0044 H   0  0  0  0  0  0  0  0  0  0  0  0
   -0.4734    0.6105    1.9081 H   0  0  0  0  0  0  0  0  0  0  0  0
    1.4022   -1.0616    0.2490 H   0  0  0  0  0  0  0  0  0  0  0  0
    1.1766   -2.8200    1.7588 H   0  0  0  0  0  0  0  0  0  0  0  0
    2.8174   -2.1124    1.5858 H   0  0  0  0  0  0  0  0  0  0  0  0
    2.1033   -2.4481    3.2482 H   0  0  0  0  0  0  0  0  0  0  0  0
    2.1753    1.0801   -0.3581 H   0  0  0  0  0  0  0  0  0  0  0  0
    1.3945    1.7223    2.4953 H   0  0  0  0  0  0  0  0  0  0  0  0
    2.3974    2.9136    1.5102 H   0  0  0  0  0  0  0  0  0  0  0  0
   -0.2860    3.0156    1.5199 H   0  0  0  0  0  0  0  0  0  0  0  0
    0.6829    3.3897    0.0670 H   0  0  0  0  0  0  0  0  0  0  0  0
   -2.0265    1.1962   -1.3569 H   0  0  0  0  0  0  0  0  0  0  0  0
   -1.3116    2.8892   -1.2786 H   0  0  0  0  0  0  0  0  0  0  0  0
    6.0489   -0.1767    1.4199 H   0  0  0  0  0  0  0  0  0  0  0  0
    8.5382    0.2208    0.5757 H   0  0  0  0  0  0  0  0  0  0  0  0
    8.0450   -1.4721    0.0581 H   0  0  0  0  0  0  0  0  0  0  0  0
  1  2  1  0
  2  3  1  0
  3  4  2  3
  4  5  1  0
  4  6  1  0
  1  7  1  0
  7  8  1  0
  8  9  1  6
  8 10  1  0
 10 11  1  0
 11 12  1  0
 12 13  1  0
 11 14  1  0
 14 15  1  0
 15 16  1  0
 16 17  1  0
 17 18  1  0
 18 19  1  0
 14 20  1  0
 20 21  1  0
 21 22  2  0
 21 23  1  0
 23 24  1  0
 24 25  2  0
 24 26  1  0
 26 27  1  0
  8  1  1  0
 17 10  1  0
 17 19  1  6
  1 28  1  1
  2 29  1  0
  2 30  1  0
  3 31  1  0
  5 32  1  0
  5 33  1  0
  5 34  1  0
  6 35  1  0
  6 36  1  0
  6 37  1  0
  9 38  1  0
  9 39  1  0
  9 40  1  0
 10 41  1  1
 11 42  1  6
 13 43  1  0
 13 44  1  0
 13 45  1  0
 14 46  1  6
 15 47  1  0
 15 48  1  0
 16 49  1  0
 16 50  1  0
 18 51  1  0
 18 52  1  0
 23 53  1  0
 26 54  1  0
 26 55  1  0
M  END
$$$$
