@<TRIPOS>MOLECULE
*****
 55 57 0 0 0
SMALL
GASTEIGER

@<TRIPOS>ATOM
      1 C          -2.5645   -0.4203    0.4086 C.3     1  UNL1        0.0920
      2 C          -3.6958   -1.1734   -0.1968 C.3     1  UNL1       -0.0054
      3 C          -4.3586   -0.5023   -1.3380 C.2     1  UNL1       -0.0828
      4 C          -5.6471   -0.1592   -1.3606 C.2     1  UNL1       -0.0795
      5 C          -6.5074   -0.4464   -0.1966 C.3     1  UNL1       -0.0440
      6 C          -6.1807    0.5070   -2.5664 C.3     1  UNL1       -0.0440
      7 O          -2.0149   -1.2394    1.5389 O.3     1  UNL1       -0.3642
      8 C          -1.1724   -0.7932    0.4178 C.3     1  UNL1        0.1015
      9 C          -0.6953   -1.8945   -0.5051 C.3     1  UNL1       -0.0329
     10 C          -0.1998    0.2538    0.8841 C.3     1  UNL1        0.0512
     11 C           1.2146   -0.2740    0.9904 C.3     1  UNL1        0.1034
     12 O           1.4643   -0.8017    2.2619 O.3     1  UNL1       -0.3756
     13 C           1.8818   -2.1239    2.2101 C.3     1  UNL1        0.0370
     14 C           2.1809    0.8870    0.7215 C.3     1  UNL1        0.1312
     15 C           1.6936    2.0756    1.4672 C.3     1  UNL1       -0.0104
     16 C           0.4352    2.5921    0.8036 C.3     1  UNL1       -0.0177
     17 C          -0.2430    1.4830   -0.0020 C.3     1  UNL1        0.1009
     18 C          -1.1677    1.8000   -1.0102 C.3     1  UNL1        0.0779
     19 O           0.1167    1.3680   -1.3459 O.3     1  UNL1       -0.3678
     20 O           3.4997    0.5073    1.0565 O.3     1  UNL1       -0.4442
     21 C           4.4862    0.4433    0.0699 C.2     1  UNL1        0.4070
     22 O           4.1774    0.7277   -1.1062 O.2     1  UNL1       -0.2260
     23 N           5.8159    0.0564    0.4287 N.am    1  UNL1       -0.2206
     24 C           6.7612    0.0194   -0.6531 C.2     1  UNL1        0.2364
     25 O           6.4403    0.3080   -1.8351 O.2     1  UNL1       -0.2740
     26 C           8.1462   -0.3910   -0.2381 C.3     1  UNL1        0.0993
     27 CL          9.1727   -0.3803   -1.6969 Cl      1  UNL1       -0.1156
     28 H          -2.8566    0.5886    0.7800 H       1  UNL1        0.0628
     29 H          -3.4621   -2.2005   -0.5358 H       1  UNL1        0.0333
     30 H          -4.5016   -1.3296    0.5855 H       1  UNL1        0.0333
     31 H          -3.7028   -0.3051   -2.1779 H       1  UNL1        0.0572
     32 H          -7.5654   -0.2570   -0.4874 H       1  UNL1        0.0274
     33 H          -6.2491    0.1704    0.6830 H       1  UNL1        0.0274
     34 H          -6.4789   -1.5131    0.1245 H       1  UNL1        0.0274
     35 H          -5.3878    0.6900   -3.3115 H       1  UNL1        0.0274
     36 H          -6.9465   -0.1628   -3.0307 H       1  UNL1        0.0274
     37 H          -6.7076    1.4429   -2.2722 H       1  UNL1        0.0274
     38 H          -1.5545   -2.1347   -1.2035 H       1  UNL1        0.0258
     39 H           0.0995   -1.5454   -1.1887 H       1  UNL1        0.0258
     40 H          -0.4101   -2.8201   -0.0044 H       1  UNL1        0.0258
     41 H          -0.4734    0.6105    1.9081 H       1  UNL1        0.0385
     42 H           1.4022   -1.0616    0.2490 H       1  UNL1        0.0637
     43 H           1.1766   -2.8200    1.7588 H       1  UNL1        0.0524
     44 H           2.8174   -2.1124    1.5858 H       1  UNL1        0.0524
     45 H           2.1033   -2.4481    3.2482 H       1  UNL1        0.0524
     46 H           2.1753    1.0801   -0.3581 H       1  UNL1        0.0761
     47 H           1.3945    1.7223    2.4953 H       1  UNL1        0.0303
     48 H           2.3974    2.9136    1.5102 H       1  UNL1        0.0303
     49 H          -0.2860    3.0156    1.5199 H       1  UNL1        0.0295
     50 H           0.6829    3.3897    0.0670 H       1  UNL1        0.0295
     51 H          -2.0265    1.1962   -1.3569 H       1  UNL1        0.0589
     52 H          -1.3116    2.8892   -1.2786 H       1  UNL1        0.0589
     53 H           6.0489   -0.1767    1.4199 H       1  UNL1        0.1609
     54 H           8.5382    0.2208    0.5757 H       1  UNL1        0.0525
     55 H           8.0450   -1.4721    0.0581 H       1  UNL1        0.0525
@<TRIPOS>BOND
     1     1     2    1
     2     2     3    1
     3     3     4    2
     4     4     5    1
     5     4     6    1
     6     1     7    1
     7     7     8    1
     8     8     9    1
     9     8    10    1
    10    10    11    1
    11    11    12    1
    12    12    13    1
    13    11    14    1
    14    14    15    1
    15    15    16    1
    16    16    17    1
    17    17    18    1
    18    18    19    1
    19    14    20    1
    20    20    21    1
    21    21    22    2
    22    21    23   am
    23    23    24   am
    24    24    25    2
    25    24    26    1
    26    26    27    1
    27     8     1    1
    28    17    10    1
    29    17    19    1
    30     1    28    1
    31     2    29    1
    32     2    30    1
    33     3    31    1
    34     5    32    1
    35     5    33    1
    36     5    34    1
    37     6    35    1
    38     6    36    1
    39     6    37    1
    40     9    38    1
    41     9    39    1
    42     9    40    1
    43    10    41    1
    44    11    42    1
    45    13    43    1
    46    13    44    1
    47    13    45    1
    48    14    46    1
    49    15    47    1
    50    15    48    1
    51    16    49    1
    52    16    50    1
    53    18    51    1
    54    18    52    1
    55    23    53    1
    56    26    54    1
    57    26    55    1
