@<TRIPOS>MOLECULE
*****
 41 43 0 0 0
SMALL
GASTEIGER

@<TRIPOS>ATOM
      1 C          -3.5288   -0.4093    2.0311 C.3     1  UNL1       -0.0572
      2 C          -4.0285   -0.3895    0.6301 C.3     1  UNL1       -0.0039
      3 C          -5.1003    0.6870    0.4262 C.3     1  UNL1       -0.0453
      4 C          -5.7807    0.3995   -0.8754 C.3     1  UNL1       -0.0521
      5 C          -5.0444   -0.5849   -1.7474 C.3     1  UNL1       -0.0479
      6 C          -3.5727   -0.2978   -1.8243 C.3     1  UNL1       -0.0125
      7 C          -3.0309   -0.1807   -0.4157 C.2     1  UNL1        0.0397
      8 N          -1.8176    0.0674   -0.2988 N.2     1  UNL1       -0.1895
      9 N          -0.9408    0.2419    0.7115 N.pl3   1  UNL1       -0.2153
     10 C           0.4658   -0.2082    0.5974 C.ar    1  UNL1        0.1783
     11 N           1.5335    0.1003    0.4523 N.ar    1  UNL1       -0.2236
     12 C           2.6452   -0.6048    0.3749 C.ar    1  UNL1        0.0803
     13 C           4.0291   -0.0707    0.1981 C.ar    1  UNL1        0.0013
     14 C           5.0977   -0.9356    0.1273 C.ar    1  UNL1       -0.0461
     15 C           6.3868   -0.4447   -0.0170 C.ar    1  UNL1        0.0162
     16 C           6.6514    0.9000   -0.0939 C.ar    1  UNL1        0.2732
     17 N           7.9429    1.4321   -0.2376 N.pl3   1  UNL1        0.0796
     18 O           8.9139    0.6621   -0.3064 O.2     1  UNL1        0.0414
     19 O           8.1548    2.7755   -0.3023 O.co2   1  UNL1       -0.5760
     20 C           5.5664    1.7450   -0.0214 C.ar    1  UNL1        0.0162
     21 C           4.2850    1.2748    0.1213 C.ar    1  UNL1       -0.0461
     22 C           2.4493   -1.9664    0.4947 C.ar    1  UNL1        0.0049
     23 S           0.6535   -2.0930    0.7121 S.2     1  UNL1       -0.0586
     24 H          -3.4083    0.6181    2.4095 H       1  UNL1        0.0236
     25 H          -2.6718   -1.0683    2.1227 H       1  UNL1        0.0236
     26 H          -4.3440   -0.8668    2.6541 H       1  UNL1        0.0236
     27 H          -4.5537   -1.3510    0.3929 H       1  UNL1        0.0358
     28 H          -5.8014    0.7292    1.2801 H       1  UNL1        0.0271
     29 H          -4.5736    1.6576    0.3371 H       1  UNL1        0.0271
     30 H          -6.7896   -0.0392   -0.6645 H       1  UNL1        0.0266
     31 H          -5.9849    1.3417   -1.4578 H       1  UNL1        0.0266
     32 H          -5.4351   -0.4371   -2.7976 H       1  UNL1        0.0269
     33 H          -5.2659   -1.6199   -1.4918 H       1  UNL1        0.0269
     34 H          -3.0747   -1.2185   -2.2219 H       1  UNL1        0.0326
     35 H          -3.3836    0.5966   -2.4066 H       1  UNL1        0.0326
     36 H          -1.2079    0.7061    1.6015 H       1  UNL1        0.1765
     37 H           4.9694   -2.0189    0.1815 H       1  UNL1        0.0626
     38 H           7.2304   -1.1283   -0.0733 H       1  UNL1        0.0685
     39 H           5.7566    2.8252   -0.0818 H       1  UNL1        0.0685
     40 H           3.4712    1.9865    0.1723 H       1  UNL1        0.0626
     41 H           3.1364   -2.8130    0.4744 H       1  UNL1        0.0716
@<TRIPOS>UNITY_ATOM_ATTR
17 1
charge 1
19 1
charge -1
@<TRIPOS>BOND
     1     1     2    1
     2     2     3    1
     3     3     4    1
     4     4     5    1
     5     5     6    1
     6     6     7    1
     7     7     8    2
     8     8     9    1
     9     9    10    1
    10    10    11   ar
    11    11    12   ar
    12    12    13    1
    13    13    14   ar
    14    14    15   ar
    15    15    16   ar
    16    16    17    1
    17    17    18    2
    18    17    19    1
    19    16    20   ar
    20    20    21   ar
    21    12    22   ar
    22    22    23   ar
    23     7     2    1
    24    23    10   ar
    25    21    13   ar
    26     1    24    1
    27     1    25    1
    28     1    26    1
    29     2    27    1
    30     3    28    1
    31     3    29    1
    32     4    30    1
    33     4    31    1
    34     5    32    1
    35     5    33    1
    36     6    34    1
    37     6    35    1
    38     9    36    1
    39    14    37    1
    40    15    38    1
    41    20    39    1
    42    21    40    1
    43    22    41    1
