
     RDKit          3D

 32 34  0  0  0  0  0  0  0  0999 V2000
   -2.0342   -2.8938   -1.0220 O   0  0  0  0  0  0  0  0  0  0  0  0
   -1.5584   -1.7995   -0.6291 C   0  0  0  0  0  0  0  0  0  0  0  0
   -0.1656   -1.5858   -0.5340 C   0  0  0  0  0  0  0  0  0  0  0  0
    0.6062   -2.6579   -0.9013 O   0  0  0  0  0  0  0  0  0  0  0  0
    0.3611   -0.4049   -0.1098 C   0  0  0  0  0  0  0  0  0  0  0  0
    1.7881   -0.1356    0.0054 C   0  0  0  0  0  0  0  0  0  0  0  0
    2.7915   -1.0064   -0.2877 C   0  0  0  0  0  0  0  0  0  0  0  0
    4.1517   -0.7039   -0.1617 C   0  0  0  0  0  0  0  0  0  0  0  0
    4.5221    0.5390    0.2822 C   0  0  0  0  0  0  0  0  0  0  0  0
    5.8737    0.8771    0.4206 O   0  0  0  0  0  0  0  0  0  0  0  0
    3.5169    1.4285    0.5818 C   0  0  0  0  0  0  0  0  0  0  0  0
    3.9351    2.6893    1.0327 O   0  0  0  0  0  0  0  0  0  0  0  0
    2.1867    1.1281    0.4570 C   0  0  0  0  0  0  0  0  0  0  0  0
   -0.4960    0.5754    0.2239 O   0  0  0  0  0  0  0  0  0  0  0  0
   -1.7849    0.4471    0.1603 C   0  0  0  0  0  0  0  0  0  0  0  0
   -2.6591    1.4584    0.5047 C   0  0  0  0  0  0  0  0  0  0  0  0
   -4.0248    1.3186    0.4361 C   0  0  0  0  0  0  0  0  0  0  0  0
   -4.8949    2.3557    0.7896 O   0  0  0  0  0  0  0  0  0  0  0  0
   -4.5612    0.1212    0.0060 C   0  0  0  0  0  0  0  0  0  0  0  0
   -3.7280   -0.9156   -0.3480 C   0  0  0  0  0  0  0  0  0  0  0  0
   -4.2511   -2.1358   -0.7860 O   0  0  0  0  0  0  0  0  0  0  0  0
   -2.3608   -0.7462   -0.2689 C   0  0  0  0  0  0  0  0  0  0  0  0
    0.7350   -2.9741   -1.8640 H   0  0  0  0  0  0  0  0  0  0  0  0
    2.5539   -1.9950   -0.6399 H   0  0  0  0  0  0  0  0  0  0  0  0
    4.8857   -1.4481   -0.4138 H   0  0  0  0  0  0  0  0  0  0  0  0
    6.4323    0.5022    1.1824 H   0  0  0  0  0  0  0  0  0  0  0  0
    4.1478    3.4451    0.3941 H   0  0  0  0  0  0  0  0  0  0  0  0
    1.4402    1.8739    0.7096 H   0  0  0  0  0  0  0  0  0  0  0  0
   -2.2592    2.4178    0.8489 H   0  0  0  0  0  0  0  0  0  0  0  0
   -5.1216    2.4607    1.7683 H   0  0  0  0  0  0  0  0  0  0  0  0
   -5.6498    0.0219   -0.0445 H   0  0  0  0  0  0  0  0  0  0  0  0
   -4.3784   -2.2575   -1.7931 H   0  0  0  0  0  0  0  0  0  0  0  0
  1  2  2  0
  2  3  1  0
  3  4  1  0
  3  5  2  0
  5  6  1  0
  6  7  2  0
  7  8  1  0
  8  9  2  0
  9 10  1  0
  9 11  1  0
 11 12  1  0
 11 13  2  0
  5 14  1  0
 14 15  1  0
 15 16  2  0
 16 17  1  0
 17 18  1  0
 17 19  2  0
 19 20  1  0
 20 21  1  0
 20 22  2  0
 22  2  1  0
 13  6  1  0
 22 15  1  0
  4 23  1  0
  7 24  1  0
  8 25  1  0
 10 26  1  0
 12 27  1  0
 13 28  1  0
 16 29  1  0
 18 30  1  0
 19 31  1  0
 21 32  1  0
M  END
$$$$
