@<TRIPOS>MOLECULE
*****
 32 34 0 0 0
SMALL
GASTEIGER

@<TRIPOS>ATOM
      1 O          -2.0342   -2.8938   -1.0220 O.2     1  UNL1       -0.2830
      2 C          -1.5584   -1.7995   -0.6291 C.ar    1  UNL1        0.2379
      3 C          -0.1656   -1.5858   -0.5340 C.ar    1  UNL1        0.2082
      4 O           0.6062   -2.6579   -0.9013 O.3     1  UNL1       -0.5007
      5 C           0.3611   -0.4049   -0.1098 C.ar    1  UNL1        0.1807
      6 C           1.7881   -0.1356    0.0054 C.ar    1  UNL1        0.0247
      7 C           2.7915   -1.0064   -0.2877 C.ar    1  UNL1       -0.0473
      8 C           4.1517   -0.7039   -0.1617 C.ar    1  UNL1       -0.0159
      9 C           4.5221    0.5390    0.2822 C.ar    1  UNL1        0.1583
     10 O           5.8737    0.8771    0.4206 O.3     1  UNL1       -0.5033
     11 C           3.5169    1.4285    0.5818 C.ar    1  UNL1        0.1589
     12 O           3.9351    2.6893    1.0327 O.3     1  UNL1       -0.5033
     13 C           2.1867    1.1281    0.4570 C.ar    1  UNL1       -0.0057
     14 O          -0.4960    0.5754    0.2239 O.2     1  UNL1       -0.4507
     15 C          -1.7849    0.4471    0.1603 C.ar    1  UNL1        0.1465
     16 C          -2.6591    1.4584    0.5047 C.ar    1  UNL1        0.0231
     17 C          -4.0248    1.3186    0.4361 C.ar    1  UNL1        0.1239
     18 O          -4.8949    2.3557    0.7896 O.3     1  UNL1       -0.5065
     19 C          -4.5612    0.1212    0.0060 C.ar    1  UNL1        0.0223
     20 C          -3.7280   -0.9156   -0.3480 C.ar    1  UNL1        0.1348
     21 O          -4.2511   -2.1358   -0.7860 O.3     1  UNL1       -0.5058
     22 C          -2.3608   -0.7462   -0.2689 C.ar    1  UNL1        0.1092
     23 H           0.7350   -2.9741   -1.8640 H       1  UNL1        0.2924
     24 H           2.5539   -1.9950   -0.6399 H       1  UNL1        0.0626
     25 H           4.8857   -1.4481   -0.4138 H       1  UNL1        0.0655
     26 H           6.4323    0.5022    1.1824 H       1  UNL1        0.2923
     27 H           4.1478    3.4451    0.3941 H       1  UNL1        0.2923
     28 H           1.4402    1.8739    0.7096 H       1  UNL1        0.0662
     29 H          -2.2592    2.4178    0.8489 H       1  UNL1        0.0691
     30 H          -5.1216    2.4607    1.7683 H       1  UNL1        0.2921
     31 H          -5.6498    0.0219   -0.0445 H       1  UNL1        0.0691
     32 H          -4.3784   -2.2575   -1.7931 H       1  UNL1        0.2922
@<TRIPOS>BOND
     1     1     2    2
     2     2     3   ar
     3     3     4    1
     4     3     5   ar
     5     5     6    1
     6     6     7   ar
     7     7     8   ar
     8     8     9   ar
     9     9    10    1
    10     9    11   ar
    11    11    12    1
    12    11    13   ar
    13     5    14   ar
    14    14    15   ar
    15    15    16   ar
    16    16    17   ar
    17    17    18    1
    18    17    19   ar
    19    19    20   ar
    20    20    21    1
    21    20    22   ar
    22    22     2   ar
    23    13     6   ar
    24    22    15   ar
    25     4    23    1
    26     7    24    1
    27     8    25    1
    28    10    26    1
    29    12    27    1
    30    13    28    1
    31    16    29    1
    32    18    30    1
    33    19    31    1
    34    21    32    1
