@<TRIPOS>MOLECULE
*****
 36 38 0 0 0
SMALL
GASTEIGER

@<TRIPOS>ATOM
      1 C          -1.7655   -3.1337    0.4281 C.3     1  UNL1       -0.0124
      2 N          -1.3047   -1.8567    0.9210 N.3     1  UNL1       -0.3002
      3 C          -0.0285   -1.5752    0.3197 C.3     1  UNL1        0.0098
      4 C           0.5224   -0.2420    0.7396 C.3     1  UNL1        0.0223
      5 C           1.9141   -0.0756    0.3372 C.ar    1  UNL1       -0.0387
      6 C           2.8095    0.6918    1.0608 C.ar    1  UNL1       -0.0579
      7 C           4.1338    0.9173    0.7780 C.ar    1  UNL1       -0.0615
      8 C           4.6330    0.3110   -0.3574 C.ar    1  UNL1       -0.0617
      9 C           3.7971   -0.4831   -1.1486 C.ar    1  UNL1       -0.0615
     10 C           2.4737   -0.6660   -0.8025 C.ar    1  UNL1       -0.0579
     11 C          -0.3925    0.7817    0.1705 C.ar    1  UNL1       -0.0326
     12 C          -1.7462    0.4237    0.1891 C.ar    1  UNL1       -0.0090
     13 C          -2.2937   -0.8392    0.7104 C.3     1  UNL1        0.0258
     14 C          -2.6270    1.3550   -0.3339 C.ar    1  UNL1        0.0293
     15 N          -4.0204    1.0741   -0.3551 N.pl3   1  UNL1       -0.3577
     16 C          -2.2075    2.5628   -0.8437 C.ar    1  UNL1       -0.0407
     17 C          -0.8470    2.8811   -0.8433 C.ar    1  UNL1       -0.0597
     18 C           0.0407    1.9764   -0.3318 C.ar    1  UNL1       -0.0575
     19 H          -1.0174   -3.8961    0.6924 H       1  UNL1        0.0391
     20 H          -2.6996   -3.4055    0.9542 H       1  UNL1        0.0391
     21 H          -1.9425   -3.1483   -0.6501 H       1  UNL1        0.0391
     22 H          -0.0438   -1.6260   -0.7809 H       1  UNL1        0.0436
     23 H           0.6771   -2.3576    0.6706 H       1  UNL1        0.0436
     24 H           0.4550   -0.1636    1.8514 H       1  UNL1        0.0410
     25 H           2.4226    1.1686    1.9511 H       1  UNL1        0.0620
     26 H           4.7377    1.5396    1.4218 H       1  UNL1        0.0618
     27 H           5.6573    0.4361   -0.6496 H       1  UNL1        0.0618
     28 H           4.1990   -0.9606   -2.0468 H       1  UNL1        0.0618
     29 H           1.8602   -1.2763   -1.4242 H       1  UNL1        0.0620
     30 H          -3.1242   -1.1207    0.0542 H       1  UNL1        0.0476
     31 H          -2.7257   -0.6135    1.7145 H       1  UNL1        0.0476
     32 H          -4.5279    0.3534    0.1915 H       1  UNL1        0.1423
     33 H          -4.6776    1.6116   -0.9656 H       1  UNL1        0.1423
     34 H          -2.8839    3.2939   -1.2527 H       1  UNL1        0.0636
     35 H          -0.5337    3.8377   -1.2491 H       1  UNL1        0.0618
     36 H           1.0760    2.2237   -0.3338 H       1  UNL1        0.0621
@<TRIPOS>BOND
     1     1     2    1
     2     2     3    1
     3     3     4    1
     4     4     5    1
     5     5     6   ar
     6     6     7   ar
     7     7     8   ar
     8     8     9   ar
     9     9    10   ar
    10     4    11    1
    11    11    12   ar
    12    12    13    1
    13    12    14   ar
    14    14    15    1
    15    14    16   ar
    16    16    17   ar
    17    17    18   ar
    18    13     2    1
    19    10     5   ar
    20    18    11   ar
    21     1    19    1
    22     1    20    1
    23     1    21    1
    24     3    22    1
    25     3    23    1
    26     4    24    1
    27     6    25    1
    28     7    26    1
    29     8    27    1
    30     9    28    1
    31    10    29    1
    32    13    30    1
    33    13    31    1
    34    15    32    1
    35    15    33    1
    36    16    34    1
    37    17    35    1
    38    18    36    1
