
     RDKit          3D

 39 40  0  0  0  0  0  0  0  0999 V2000
   -4.6126   -0.8324    0.0772 C   0  0  0  0  0  0  0  0  0  0  0  0
   -3.3966   -1.2311   -0.7205 C   0  0  0  0  0  0  0  0  0  0  0  0
   -2.1366   -0.7486   -0.1542 C   0  0  0  0  0  0  0  0  0  0  0  0
   -1.3839   -1.6683    0.5916 C   0  0  0  0  0  0  0  0  0  0  0  0
   -0.1855   -1.3381    1.1732 C   0  0  0  0  0  0  0  0  0  0  0  0
    0.3292   -0.0698    1.0421 C   0  0  0  0  0  0  0  0  0  0  0  0
    1.6267    0.3334    1.6443 C   0  0  0  0  0  0  0  0  0  0  0  0
    2.7589    0.3061    0.7140 C   0  0  0  0  0  0  0  0  0  0  0  0
    3.2453    1.4773    0.1423 C   0  0  0  0  0  0  0  0  0  0  0  0
    4.2758    1.4315   -0.7197 N   0  0  0  0  0  0  0  0  0  0  0  0
    4.8728    0.2539   -1.0597 C   0  0  0  0  0  0  0  0  0  0  0  0
    5.9614    0.2191   -1.9763 N   0  0  0  0  0  0  0  0  0  0  0  0
    4.4154   -0.8635   -0.5191 N   0  0  0  0  0  0  0  0  0  0  0  0
    3.3687   -0.8722    0.3638 C   0  0  0  0  0  0  0  0  0  0  0  0
    2.9572   -2.1205    0.8944 N   0  0  0  0  0  0  0  0  0  0  0  0
   -0.4337    0.8209    0.3002 C   0  0  0  0  0  0  0  0  0  0  0  0
   -1.6367    0.5113   -0.2906 C   0  0  0  0  0  0  0  0  0  0  0  0
   -2.3467    1.5453   -1.0430 C   0  0  0  0  0  0  0  0  0  0  0  0
   -3.4455    2.1694   -0.2195 C   0  0  0  0  0  0  0  0  0  0  0  0
   -5.3018   -0.1688   -0.4793 H   0  0  0  0  0  0  0  0  0  0  0  0
   -4.3535   -0.4596    1.0748 H   0  0  0  0  0  0  0  0  0  0  0  0
   -5.2518   -1.7521    0.2821 H   0  0  0  0  0  0  0  0  0  0  0  0
   -3.5136   -0.9657   -1.8011 H   0  0  0  0  0  0  0  0  0  0  0  0
   -3.3706   -2.3514   -0.7372 H   0  0  0  0  0  0  0  0  0  0  0  0
   -1.7584   -2.6837    0.7177 H   0  0  0  0  0  0  0  0  0  0  0  0
    0.3477   -2.1091    1.7513 H   0  0  0  0  0  0  0  0  0  0  0  0
    1.7958   -0.2992    2.5392 H   0  0  0  0  0  0  0  0  0  0  0  0
    1.5369    1.3778    2.0400 H   0  0  0  0  0  0  0  0  0  0  0  0
    2.7887    2.4340    0.3950 H   0  0  0  0  0  0  0  0  0  0  0  0
    6.8564    0.6563   -1.6772 H   0  0  0  0  0  0  0  0  0  0  0  0
    5.9074   -0.2104   -2.9053 H   0  0  0  0  0  0  0  0  0  0  0  0
    2.4706   -2.7869    0.2772 H   0  0  0  0  0  0  0  0  0  0  0  0
    3.1439   -2.3551    1.8838 H   0  0  0  0  0  0  0  0  0  0  0  0
   -0.0019    1.8221    0.2116 H   0  0  0  0  0  0  0  0  0  0  0  0
   -2.8089    1.1711   -1.9803 H   0  0  0  0  0  0  0  0  0  0  0  0
   -1.6244    2.3723   -1.2948 H   0  0  0  0  0  0  0  0  0  0  0  0
   -3.4441    1.7042    0.7999 H   0  0  0  0  0  0  0  0  0  0  0  0
   -4.4116    2.0062   -0.6884 H   0  0  0  0  0  0  0  0  0  0  0  0
   -3.2405    3.2745   -0.0595 H   0  0  0  0  0  0  0  0  0  0  0  0
  1  2  1  0
  2  3  1  0
  3  4  2  0
  4  5  1  0
  5  6  2  0
  6  7  1  0
  7  8  1  0
  8  9  2  0
  9 10  1  0
 10 11  2  0
 11 12  1  0
 11 13  1  0
 13 14  2  0
 14 15  1  0
  6 16  1  0
 16 17  2  0
 17 18  1  0
 18 19  1  0
 17  3  1  0
 14  8  1  0
  1 20  1  0
  1 21  1  0
  1 22  1  0
  2 23  1  0
  2 24  1  0
  4 25  1  0
  5 26  1  0
  7 27  1  0
  7 28  1  0
  9 29  1  0
 12 30  1  0
 12 31  1  0
 15 32  1  0
 15 33  1  0
 16 34  1  0
 18 35  1  0
 18 36  1  0
 19 37  1  0
 19 38  1  0
 19 39  1  0
M  END
$$$$
