@<TRIPOS>MOLECULE
*****
 39 40 0 0 0
SMALL
GASTEIGER

@<TRIPOS>ATOM
      1 C          -4.6126   -0.8324    0.0772 C.3     1  UNL1       -0.0613
      2 C          -3.3966   -1.2311   -0.7205 C.3     1  UNL1       -0.0303
      3 C          -2.1366   -0.7486   -0.1542 C.ar    1  UNL1       -0.0444
      4 C          -1.3839   -1.6683    0.5916 C.ar    1  UNL1       -0.0581
      5 C          -0.1855   -1.3381    1.1732 C.ar    1  UNL1       -0.0580
      6 C           0.3292   -0.0698    1.0421 C.ar    1  UNL1       -0.0426
      7 C           1.6267    0.3334    1.6443 C.3     1  UNL1        0.0023
      8 C           2.7589    0.3061    0.7140 C.ar    1  UNL1        0.0146
      9 C           3.2453    1.4773    0.1423 C.ar    1  UNL1        0.0379
     10 N           4.2758    1.4315   -0.7197 N.ar    1  UNL1       -0.2227
     11 C           4.8728    0.2539   -1.0597 C.ar    1  UNL1        0.2142
     12 N           5.9614    0.2191   -1.9763 N.pl3   1  UNL1       -0.3274
     13 N           4.4154   -0.8635   -0.5191 N.ar    1  UNL1       -0.1999
     14 C           3.3687   -0.8722    0.3638 C.ar    1  UNL1        0.1247
     15 N           2.9572   -2.1205    0.8944 N.pl3   1  UNL1       -0.3428
     16 C          -0.4337    0.8209    0.3002 C.ar    1  UNL1       -0.0548
     17 C          -1.6367    0.5113   -0.2906 C.ar    1  UNL1       -0.0442
     18 C          -2.3467    1.5453   -1.0430 C.3     1  UNL1       -0.0303
     19 C          -3.4455    2.1694   -0.2195 C.3     1  UNL1       -0.0613
     20 H          -5.3018   -0.1688   -0.4793 H       1  UNL1        0.0233
     21 H          -4.3535   -0.4596    1.0748 H       1  UNL1        0.0233
     22 H          -5.2518   -1.7521    0.2821 H       1  UNL1        0.0233
     23 H          -3.5136   -0.9657   -1.8011 H       1  UNL1        0.0311
     24 H          -3.3706   -2.3514   -0.7372 H       1  UNL1        0.0311
     25 H          -1.7584   -2.6837    0.7177 H       1  UNL1        0.0620
     26 H           0.3477   -2.1091    1.7513 H       1  UNL1        0.0620
     27 H           1.7958   -0.2992    2.5392 H       1  UNL1        0.0363
     28 H           1.5369    1.3778    2.0400 H       1  UNL1        0.0363
     29 H           2.7887    2.4340    0.3950 H       1  UNL1        0.0834
     30 H           6.8564    0.6563   -1.6772 H       1  UNL1        0.1452
     31 H           5.9074   -0.2104   -2.9053 H       1  UNL1        0.1452
     32 H           2.4706   -2.7869    0.2772 H       1  UNL1        0.1437
     33 H           3.1439   -2.3551    1.8838 H       1  UNL1        0.1437
     34 H          -0.0019    1.8221    0.2116 H       1  UNL1        0.0623
     35 H          -2.8089    1.1711   -1.9803 H       1  UNL1        0.0311
     36 H          -1.6244    2.3723   -1.2948 H       1  UNL1        0.0311
     37 H          -3.4441    1.7042    0.7999 H       1  UNL1        0.0233
     38 H          -4.4116    2.0062   -0.6884 H       1  UNL1        0.0233
     39 H          -3.2405    3.2745   -0.0595 H       1  UNL1        0.0233
@<TRIPOS>BOND
     1     1     2    1
     2     2     3    1
     3     3     4   ar
     4     4     5   ar
     5     5     6   ar
     6     6     7    1
     7     7     8    1
     8     8     9   ar
     9     9    10   ar
    10    10    11   ar
    11    11    12    1
    12    11    13   ar
    13    13    14   ar
    14    14    15    1
    15     6    16   ar
    16    16    17   ar
    17    17    18    1
    18    18    19    1
    19    17     3   ar
    20    14     8   ar
    21     1    20    1
    22     1    21    1
    23     1    22    1
    24     2    23    1
    25     2    24    1
    26     4    25    1
    27     5    26    1
    28     7    27    1
    29     7    28    1
    30     9    29    1
    31    12    30    1
    32    12    31    1
    33    15    32    1
    34    15    33    1
    35    16    34    1
    36    18    35    1
    37    18    36    1
    38    19    37    1
    39    19    38    1
    40    19    39    1
