@<TRIPOS>MOLECULE
*****
 67 71 0 0 0
SMALL
GASTEIGER

@<TRIPOS>ATOM
      1 C          -6.4663   -4.2128    0.4943 C.3     1  UNL1       -0.0253
      2 C          -6.5250   -2.7103    0.3266 C.3     1  UNL1        0.1068
      3 C          -7.7818   -2.1198    0.8954 C.3     1  UNL1       -0.0253
      4 C          -6.5407   -2.4444   -1.1758 C.3     1  UNL1       -0.0253
      5 O          -5.3898   -2.0753    0.9251 O.3     1  UNL1       -0.4445
      6 C          -4.1047   -2.3832    0.4855 C.2     1  UNL1        0.4035
      7 O          -4.0210   -3.2279   -0.4403 O.2     1  UNL1       -0.2262
      8 N          -2.9422   -1.8007    1.0244 N.am    1  UNL1       -0.2620
      9 C          -2.8286   -0.8231    2.0796 C.3     1  UNL1        0.0399
     10 C          -1.7985    0.1439    1.4793 C.3     1  UNL1        0.0775
     11 N          -2.4490    1.3209    0.9745 N.pl3   1  UNL1       -0.3070
     12 C          -1.7093    2.3802    0.3857 C.ar    1  UNL1        0.1943
     13 N          -0.3592    2.4473    0.2184 N.ar    1  UNL1       -0.2145
     14 C          -0.0308    3.6061   -0.3776 C.ar    1  UNL1        0.0934
     15 C           1.1500    4.1924   -0.7804 C.ar    1  UNL1        0.0011
     16 C           1.1590    5.4275   -1.3816 C.ar    1  UNL1        0.1255
     17 F           2.3290    5.9797   -1.7668 F       1  UNL1       -0.2054
     18 C          -0.0078    6.1273   -1.6053 C.ar    1  UNL1       -0.0244
     19 C          -1.1930    5.5603   -1.2114 C.ar    1  UNL1       -0.0335
     20 C          -1.1982    4.3030   -0.5997 C.ar    1  UNL1        0.0676
     21 N          -2.1899    3.5319   -0.1261 N.ar    1  UNL1       -0.3261
     22 C          -1.0751   -0.6495    0.4127 C.3     1  UNL1        0.1387
     23 O           0.3263   -0.6608    0.5867 O.3     1  UNL1       -0.4543
     24 C           1.2059   -0.3694   -0.4524 C.2     1  UNL1        0.3396
     25 O           0.6600   -0.0955   -1.5621 O.2     1  UNL1       -0.2449
     26 C           2.6491   -0.3767   -0.2837 C.ar    1  UNL1        0.0590
     27 C           3.4671   -0.0836   -1.3453 C.ar    1  UNL1       -0.0472
     28 C           4.8493   -0.0869   -1.1902 C.ar    1  UNL1       -0.0533
     29 C           5.4459   -0.3828    0.0283 C.ar    1  UNL1       -0.0178
     30 C           6.8994   -0.3730    0.1436 C.ar    1  UNL1       -0.0179
     31 C           7.6653    0.4920   -0.6203 C.ar    1  UNL1       -0.0540
     32 C           9.0567    0.4883   -0.4967 C.ar    1  UNL1       -0.0612
     33 C           9.6963   -0.3630    0.3754 C.ar    1  UNL1       -0.0617
     34 C           8.9391   -1.2195    1.1317 C.ar    1  UNL1       -0.0612
     35 C           7.5567   -1.2087    1.0021 C.ar    1  UNL1       -0.0540
     36 C           4.6015   -0.6731    1.0762 C.ar    1  UNL1       -0.0533
     37 C           3.2322   -0.6712    0.9273 C.ar    1  UNL1       -0.0472
     38 C          -1.5934   -2.0845    0.6018 C.3     1  UNL1        0.0568
     39 H          -5.4697   -4.4982    0.8949 H       1  UNL1        0.0268
     40 H          -6.5846   -4.7585   -0.4634 H       1  UNL1        0.0268
     41 H          -7.2375   -4.5687    1.2152 H       1  UNL1        0.0268
     42 H          -7.7034   -1.0142    0.7721 H       1  UNL1        0.0268
     43 H          -8.6392   -2.5306    0.3193 H       1  UNL1        0.0268
     44 H          -7.8582   -2.3781    1.9685 H       1  UNL1        0.0268
     45 H          -6.0812   -3.2965   -1.7397 H       1  UNL1        0.0268
     46 H          -7.5876   -2.3705   -1.5356 H       1  UNL1        0.0268
     47 H          -6.0326   -1.4834   -1.4098 H       1  UNL1        0.0268
     48 H          -3.7876   -0.3104    2.2882 H       1  UNL1        0.0485
     49 H          -2.3630   -1.2531    2.9820 H       1  UNL1        0.0485
     50 H          -1.0405    0.4177    2.2401 H       1  UNL1        0.0551
     51 H          -3.4840    1.3911    1.0456 H       1  UNL1        0.1493
     52 H           2.0711    3.6229   -0.5955 H       1  UNL1        0.0668
     53 H           0.0075    7.1139   -2.0864 H       1  UNL1        0.0647
     54 H          -2.1063    6.1107   -1.3877 H       1  UNL1        0.0640
     55 H          -3.1892    3.7891   -0.1511 H       1  UNL1        0.1686
     56 H          -1.3788   -0.3812   -0.6199 H       1  UNL1        0.0769
     57 H           3.0742    0.1584   -2.3319 H       1  UNL1        0.0626
     58 H           5.4968    0.1422   -2.0193 H       1  UNL1        0.0624
     59 H           7.2012    1.1741   -1.3146 H       1  UNL1        0.0624
     60 H           9.6258    1.1857   -1.1168 H       1  UNL1        0.0618
     61 H          10.7778   -0.3635    0.4692 H       1  UNL1        0.0618
     62 H           9.4494   -1.8846    1.8136 H       1  UNL1        0.0618
     63 H           6.9903   -1.8958    1.6127 H       1  UNL1        0.0624
     64 H           5.0327   -0.9069    2.0333 H       1  UNL1        0.0624
     65 H           2.6338   -0.9083    1.7925 H       1  UNL1        0.0626
     66 H          -1.5263   -2.6582   -0.3255 H       1  UNL1        0.0503
     67 H          -0.9757   -2.5503    1.4057 H       1  UNL1        0.0503
@<TRIPOS>BOND
     1     1     2    1
     2     2     3    1
     3     2     4    1
     4     2     5    1
     5     5     6    1
     6     6     7    2
     7     6     8   am
     8     8     9    1
     9     9    10    1
    10    10    11    1
    11    11    12    1
    12    12    13   ar
    13    13    14   ar
    14    14    15   ar
    15    15    16   ar
    16    16    17    1
    17    16    18   ar
    18    18    19   ar
    19    19    20   ar
    20    20    21   ar
    21    10    22    1
    22    22    23    1
    23    23    24    1
    24    24    25    2
    25    24    26    1
    26    26    27   ar
    27    27    28   ar
    28    28    29   ar
    29    29    30    1
    30    30    31   ar
    31    31    32   ar
    32    32    33   ar
    33    33    34   ar
    34    34    35   ar
    35    29    36   ar
    36    36    37   ar
    37    22    38    1
    38    38     8    1
    39    21    12   ar
    40    37    26   ar
    41    20    14   ar
    42    35    30   ar
    43     1    39    1
    44     1    40    1
    45     1    41    1
    46     3    42    1
    47     3    43    1
    48     3    44    1
    49     4    45    1
    50     4    46    1
    51     4    47    1
    52     9    48    1
    53     9    49    1
    54    10    50    1
    55    11    51    1
    56    15    52    1
    57    18    53    1
    58    19    54    1
    59    21    55    1
    60    22    56    1
    61    27    57    1
    62    28    58    1
    63    31    59    1
    64    32    60    1
    65    33    61    1
    66    34    62    1
    67    35    63    1
    68    36    64    1
    69    37    65    1
    70    38    66    1
    71    38    67    1
