
     RDKit          3D

 47 50  0  0  0  0  0  0  0  0999 V2000
   -3.5298   -2.1939   -1.3259 C   0  0  0  0  0  0  0  0  0  0  0  0
   -2.7548   -1.0098   -1.0008 N   0  0  0  0  0  0  0  0  0  0  0  0
   -3.4700    0.1872   -0.7506 C   0  0  0  0  0  0  0  0  0  0  0  0
   -3.3079    1.3065   -1.4753 N   0  0  0  0  0  0  0  0  0  0  0  0
   -4.0249    2.4334   -1.1893 C   0  0  0  0  0  0  0  0  0  0  0  0
   -4.9149    2.4758   -0.1830 N   0  0  0  0  0  0  0  0  0  0  0  0
   -5.1051    1.3914    0.5572 C   0  0  0  0  0  0  0  0  0  0  0  0
   -5.8995    1.1422    1.5933 N   0  0  0  0  0  0  0  0  0  0  0  0
   -5.7246   -0.1379    2.0063 C   0  0  0  0  0  0  0  0  0  0  0  0
   -4.7776   -0.7302    1.1983 C   0  0  0  0  0  0  0  0  0  0  0  0
   -4.3894    0.2520    0.2788 C   0  0  0  0  0  0  0  0  0  0  0  0
   -1.3351   -1.1464   -0.9594 C   0  0  1  0  0  0  0  0  0  0  0  0
   -0.5459    0.0860   -0.6220 C   0  0  0  0  0  0  0  0  0  0  0  0
    0.4337   -0.8513    0.0981 C   0  0  1  0  0  0  0  0  0  0  0  0
    1.0280   -0.3156    1.2760 N   0  0  0  0  0  0  0  0  0  0  0  0
    2.7257   -0.5616    1.2013 S   0  0  0  0  0  6  0  0  0  0  0  0
    2.9534   -2.0490    1.0504 O   0  0  0  0  0  0  0  0  0  0  0  0
    3.4328   -0.1070    2.4242 O   0  0  0  0  0  0  0  0  0  0  0  0
    3.4155    0.2870   -0.1973 C   0  0  0  0  0  0  0  0  0  0  0  0
    4.8920    0.0998   -0.3010 C   0  0  0  0  0  0  0  0  0  0  0  0
    5.7048    0.5829    0.8651 C   0  0  0  0  0  0  0  0  0  0  0  0
    6.6493    1.2675   -0.1311 C   0  0  0  0  0  0  0  0  0  0  0  0
    5.4960    1.2499   -1.1160 C   0  0  0  0  0  0  0  0  0  0  0  0
   -0.7821   -1.7584    0.3356 C   0  0  0  0  0  0  0  0  0  0  0  0
   -3.1576   -3.0777   -0.7451 H   0  0  0  0  0  0  0  0  0  0  0  0
   -3.2711   -2.4357   -2.3956 H   0  0  0  0  0  0  0  0  0  0  0  0
   -4.6074   -2.0392   -1.2215 H   0  0  0  0  0  0  0  0  0  0  0  0
   -3.8483    3.3032   -1.8108 H   0  0  0  0  0  0  0  0  0  0  0  0
   -6.5907    1.7681    2.0901 H   0  0  0  0  0  0  0  0  0  0  0  0
   -6.2152   -0.6520    2.8192 H   0  0  0  0  0  0  0  0  0  0  0  0
   -4.3886   -1.7359    1.2326 H   0  0  0  0  0  0  0  0  0  0  0  0
   -0.8771   -1.7076   -1.8106 H   0  0  0  0  0  0  0  0  0  0  0  0
   -1.0520    0.7924    0.0469 H   0  0  0  0  0  0  0  0  0  0  0  0
   -0.0331    0.5783   -1.4775 H   0  0  0  0  0  0  0  0  0  0  0  0
    1.0850   -1.3169   -0.6492 H   0  0  0  0  0  0  0  0  0  0  0  0
    0.7484    0.6600    1.4423 H   0  0  0  0  0  0  0  0  0  0  0  0
    2.9661   -0.0774   -1.1550 H   0  0  0  0  0  0  0  0  0  0  0  0
    3.1317    1.3567   -0.1260 H   0  0  0  0  0  0  0  0  0  0  0  0
    5.2296   -0.8444   -0.7316 H   0  0  0  0  0  0  0  0  0  0  0  0
    5.2264    1.2746    1.5578 H   0  0  0  0  0  0  0  0  0  0  0  0
    6.2719   -0.2690    1.3215 H   0  0  0  0  0  0  0  0  0  0  0  0
    6.9340    2.2808    0.1938 H   0  0  0  0  0  0  0  0  0  0  0  0
    7.4604    0.6168   -0.5035 H   0  0  0  0  0  0  0  0  0  0  0  0
    4.9101    2.1915   -1.0386 H   0  0  0  0  0  0  0  0  0  0  0  0
    5.7609    0.9622   -2.1499 H   0  0  0  0  0  0  0  0  0  0  0  0
   -0.5492   -2.8399    0.2362 H   0  0  0  0  0  0  0  0  0  0  0  0
   -1.3039   -1.4475    1.2412 H   0  0  0  0  0  0  0  0  0  0  0  0
  1  2  1  0
  2  3  1  0
  3  4  2  0
  4  5  1  0
  5  6  2  0
  6  7  1  0
  7  8  1  0
  8  9  1  0
  9 10  2  0
 10 11  1  0
  2 12  1  0
 12 13  1  0
 13 14  1  0
 14 15  1  0
 15 16  1  0
 16 17  2  0
 16 18  2  0
 16 19  1  0
 19 20  1  0
 20 21  1  0
 21 22  1  0
 22 23  1  0
 14 24  1  0
 11  3  1  0
 24 12  1  0
 11  7  2  0
 23 20  1  0
  1 25  1  0
  1 26  1  0
  1 27  1  0
  5 28  1  0
  8 29  1  0
  9 30  1  0
 10 31  1  0
 12 32  1  6
 13 33  1  0
 13 34  1  0
 14 35  1  6
 15 36  1  0
 19 37  1  0
 19 38  1  0
 20 39  1  0
 21 40  1  0
 21 41  1  0
 22 42  1  0
 22 43  1  0
 23 44  1  0
 23 45  1  0
 24 46  1  0
 24 47  1  0
M  END
$$$$
