@<TRIPOS>MOLECULE
*****
 47 50 0 0 0
SMALL
GASTEIGER

@<TRIPOS>ATOM
      1 C          -3.5298   -2.1939   -1.3259 C.3     1  UNL1        0.0023
      2 N          -2.7548   -1.0098   -1.0008 N.pl3   1  UNL1       -0.3145
      3 C          -3.4700    0.1872   -0.7506 C.ar    1  UNL1        0.1337
      4 N          -3.3079    1.3065   -1.4753 N.ar    1  UNL1       -0.2200
      5 C          -4.0249    2.4334   -1.1893 C.ar    1  UNL1        0.1204
      6 N          -4.9149    2.4758   -0.1830 N.ar    1  UNL1       -0.2178
      7 C          -5.1051    1.3914    0.5572 C.ar    1  UNL1        0.1432
      8 N          -5.8995    1.1422    1.5933 N.ar    1  UNL1       -0.3457
      9 C          -5.7246   -0.1379    2.0063 C.ar    1  UNL1        0.0042
     10 C          -4.7776   -0.7302    1.1983 C.ar    1  UNL1       -0.0318
     11 C          -4.3894    0.2520    0.2788 C.ar    1  UNL1        0.0585
     12 C          -1.3351   -1.1464   -0.9594 C.3     1  UNL1        0.0275
     13 C          -0.5459    0.0860   -0.6220 C.3     1  UNL1       -0.0172
     14 C           0.4337   -0.8513    0.0981 C.3     1  UNL1        0.0318
     15 N           1.0280   -0.3156    1.2760 N.3     1  UNL1       -0.1913
     16 S           2.7257   -0.5616    1.2013 S.O2    1  UNL1        0.0299
     17 O           2.9534   -2.0490    1.0504 O.2     1  UNL1       -0.1582
     18 O           3.4328   -0.1070    2.4242 O.2     1  UNL1       -0.1582
     19 C           3.4155    0.2870   -0.1973 C.3     1  UNL1        0.0845
     20 C           4.8920    0.0998   -0.3010 C.3     1  UNL1       -0.0202
     21 C           5.7048    0.5829    0.8651 C.3     1  UNL1       -0.0487
     22 C           6.6493    1.2675   -0.1311 C.3     1  UNL1       -0.0525
     23 C           5.4960    1.2499   -1.1160 C.3     1  UNL1       -0.0487
     24 C          -0.7821   -1.7584    0.3356 C.3     1  UNL1       -0.0172
     25 H          -3.1576   -3.0777   -0.7451 H       1  UNL1        0.0428
     26 H          -3.2711   -2.4357   -2.3956 H       1  UNL1        0.0428
     27 H          -4.6074   -2.0392   -1.2215 H       1  UNL1        0.0428
     28 H          -3.8483    3.3032   -1.8108 H       1  UNL1        0.1048
     29 H          -6.5907    1.7681    2.0901 H       1  UNL1        0.1668
     30 H          -6.2152   -0.6520    2.8192 H       1  UNL1        0.0807
     31 H          -4.3886   -1.7359    1.2326 H       1  UNL1        0.0640
     32 H          -0.8771   -1.7076   -1.8106 H       1  UNL1        0.0501
     33 H          -1.0520    0.7924    0.0469 H       1  UNL1        0.0299
     34 H          -0.0331    0.5783   -1.4775 H       1  UNL1        0.0299
     35 H           1.0850   -1.3169   -0.6492 H       1  UNL1        0.0478
     36 H           0.7484    0.6600    1.4423 H       1  UNL1        0.1479
     37 H           2.9661   -0.0774   -1.1550 H       1  UNL1        0.0518
     38 H           3.1317    1.3567   -0.1260 H       1  UNL1        0.0518
     39 H           5.2296   -0.8444   -0.7316 H       1  UNL1        0.0317
     40 H           5.2264    1.2746    1.5578 H       1  UNL1        0.0268
     41 H           6.2719   -0.2690    1.3215 H       1  UNL1        0.0268
     42 H           6.9340    2.2808    0.1938 H       1  UNL1        0.0265
     43 H           7.4604    0.6168   -0.5035 H       1  UNL1        0.0265
     44 H           4.9101    2.1915   -1.0386 H       1  UNL1        0.0268
     45 H           5.7609    0.9622   -2.1499 H       1  UNL1        0.0268
     46 H          -0.5492   -2.8399    0.2362 H       1  UNL1        0.0299
     47 H          -1.3039   -1.4475    1.2412 H       1  UNL1        0.0299
@<TRIPOS>BOND
     1     1     2    1
     2     2     3    1
     3     3     4   ar
     4     4     5   ar
     5     5     6   ar
     6     6     7   ar
     7     7     8   ar
     8     8     9   ar
     9     9    10   ar
    10    10    11   ar
    11     2    12    1
    12    12    13    1
    13    13    14    1
    14    14    15    1
    15    15    16    1
    16    16    17    2
    17    16    18    2
    18    16    19    1
    19    19    20    1
    20    20    21    1
    21    21    22    1
    22    22    23    1
    23    14    24    1
    24    11     3   ar
    25    24    12    1
    26    11     7   ar
    27    23    20    1
    28     1    25    1
    29     1    26    1
    30     1    27    1
    31     5    28    1
    32     8    29    1
    33     9    30    1
    34    10    31    1
    35    12    32    1
    36    13    33    1
    37    13    34    1
    38    14    35    1
    39    15    36    1
    40    19    37    1
    41    19    38    1
    42    20    39    1
    43    21    40    1
    44    21    41    1
    45    22    42    1
    46    22    43    1
    47    23    44    1
    48    23    45    1
    49    24    46    1
    50    24    47    1
