
     RDKit          3D

 70 75  0  0  0  0  0  0  0  0999 V2000
   -0.9328    8.1575   -0.7541 C   0  0  0  0  0  0  0  0  0  0  0  0
   -0.3650    6.8602   -0.6954 O   0  0  0  0  0  0  0  0  0  0  0  0
   -1.1250    5.7262   -0.4821 C   0  0  0  0  0  0  0  0  0  0  0  0
   -0.4723    4.5088   -0.4424 C   0  0  0  0  0  0  0  0  0  0  0  0
   -1.1181    3.3094   -0.2373 C   0  0  0  0  0  0  0  0  0  0  0  0
   -0.4645    2.0476   -0.1938 N   0  0  0  0  0  0  0  0  0  0  0  0
    0.9591    1.8526   -0.3738 C   0  0  0  0  0  0  0  0  0  0  0  0
    1.7617    2.5650   -1.0165 O   0  0  0  0  0  0  0  0  0  0  0  0
    1.3278    0.6600    0.3306 N   0  0  0  0  0  0  0  0  0  0  0  0
    2.6234    0.1085    0.4128 C   0  0  0  0  0  0  0  0  0  0  0  0
    3.4991    0.4611    1.4131 C   0  0  0  0  0  0  0  0  0  0  0  0
    4.7789   -0.0979    1.4785 C   0  0  0  0  0  0  0  0  0  0  0  0
    5.1739   -1.0105    0.5365 C   0  0  0  0  0  0  0  0  0  0  0  0
    6.4946   -1.6231    0.5584 C   0  0  0  0  0  0  0  0  0  0  0  0
    7.6810   -1.0642    1.0053 C   0  0  0  0  0  0  0  0  0  0  0  0
    8.6317   -1.9504    0.8501 O   0  0  0  0  0  0  0  0  0  0  0  0
    8.1599   -3.0670    0.3282 C   0  0  0  0  0  0  0  0  0  0  0  0
    8.8911   -4.2838    0.0029 C   0  0  0  0  0  0  0  0  0  0  0  0
    8.2909   -5.2676   -0.4927 O   0  0  0  0  0  0  0  0  0  0  0  0
   10.2602   -4.3573    0.2423 O   0  0  0  0  0  0  0  0  0  0  0  0
    6.8045   -2.8983    0.1282 C   0  0  0  0  0  0  0  0  0  0  0  0
    4.2953   -1.3735   -0.4792 C   0  0  0  0  0  0  0  0  0  0  0  0
    3.0336   -0.8079   -0.5248 C   0  0  0  0  0  0  0  0  0  0  0  0
    0.1104    0.1709    0.9149 C   0  0  0  0  0  0  0  0  0  0  0  0
    0.0253   -0.5532    1.9353 O   0  0  0  0  0  0  0  0  0  0  0  0
   -0.9548    0.7280    0.0269 C   0  0  0  0  0  0  0  0  0  0  0  0
   -0.8973   -0.0884   -1.2581 C   0  0  0  0  0  0  0  0  0  0  0  0
   -1.2607   -1.4994   -0.8322 C   0  0  0  0  0  0  0  0  0  0  0  0
   -2.5327   -1.6169   -0.2072 N   0  0  0  0  0  0  0  0  0  0  0  0
   -3.6330   -1.6811   -1.1392 C   0  0  0  0  0  0  0  0  0  0  0  0
   -4.9415   -1.7885   -0.4925 C   0  0  0  0  0  0  0  0  0  0  0  0
   -5.7700   -0.7163   -0.4220 N   0  0  0  0  0  0  0  0  0  0  0  0
   -6.9827   -0.7813    0.1656 C   0  0  0  0  0  0  0  0  0  0  0  0
   -7.4452   -1.9422    0.7264 C   0  0  0  0  0  0  0  0  0  0  0  0
   -6.6383   -3.0549    0.6780 C   0  0  0  0  0  0  0  0  0  0  0  0
   -5.4029   -2.9585    0.0704 C   0  0  0  0  0  0  0  0  0  0  0  0
   -4.5091   -4.1427    0.0033 C   0  0  0  0  0  0  0  0  0  0  0  0
   -2.7798   -0.7334    0.8971 C   0  0  0  0  0  0  0  0  0  0  0  0
   -2.3027    0.6778    0.6375 C   0  0  0  0  0  0  0  0  0  0  0  0
   -2.4537    3.3921   -0.0735 N   0  0  0  0  0  0  0  0  0  0  0  0
   -3.1015    4.5666   -0.1094 C   0  0  0  0  0  0  0  0  0  0  0  0
   -2.4477    5.7377   -0.3127 N   0  0  0  0  0  0  0  0  0  0  0  0
   -2.0256    8.0827   -0.5622 H   0  0  0  0  0  0  0  0  0  0  0  0
   -0.4530    8.7657    0.0311 H   0  0  0  0  0  0  0  0  0  0  0  0
   -0.7478    8.6456   -1.7245 H   0  0  0  0  0  0  0  0  0  0  0  0
    0.6080    4.4920   -0.5777 H   0  0  0  0  0  0  0  0  0  0  0  0
    3.2182    1.1795    2.1729 H   0  0  0  0  0  0  0  0  0  0  0  0
    5.4653    0.1749    2.2574 H   0  0  0  0  0  0  0  0  0  0  0  0
    7.8326   -0.0691    1.4178 H   0  0  0  0  0  0  0  0  0  0  0  0
   10.6786   -5.2984    0.2057 H   0  0  0  0  0  0  0  0  0  0  0  0
    6.0806   -3.5903   -0.2794 H   0  0  0  0  0  0  0  0  0  0  0  0
    4.6024   -2.0866   -1.2161 H   0  0  0  0  0  0  0  0  0  0  0  0
    2.3930   -1.1274   -1.3362 H   0  0  0  0  0  0  0  0  0  0  0  0
   -1.5821    0.2932   -2.0269 H   0  0  0  0  0  0  0  0  0  0  0  0
    0.1665   -0.1142   -1.5688 H   0  0  0  0  0  0  0  0  0  0  0  0
   -1.2443   -2.1572   -1.7127 H   0  0  0  0  0  0  0  0  0  0  0  0
   -0.4768   -1.8325   -0.1156 H   0  0  0  0  0  0  0  0  0  0  0  0
   -3.6065   -0.7417   -1.7323 H   0  0  0  0  0  0  0  0  0  0  0  0
   -3.4783   -2.5050   -1.8650 H   0  0  0  0  0  0  0  0  0  0  0  0
   -7.6429    0.0921    0.2155 H   0  0  0  0  0  0  0  0  0  0  0  0
   -8.4055   -2.0413    1.2057 H   0  0  0  0  0  0  0  0  0  0  0  0
   -6.9504   -4.0113    1.1078 H   0  0  0  0  0  0  0  0  0  0  0  0
   -3.7494   -4.1301    0.8240 H   0  0  0  0  0  0  0  0  0  0  0  0
   -5.1271   -5.0506    0.1922 H   0  0  0  0  0  0  0  0  0  0  0  0
   -4.0763   -4.2497   -0.9928 H   0  0  0  0  0  0  0  0  0  0  0  0
   -2.3555   -1.1043    1.8536 H   0  0  0  0  0  0  0  0  0  0  0  0
   -3.8786   -0.6755    1.0482 H   0  0  0  0  0  0  0  0  0  0  0  0
   -3.0485    1.1362   -0.0333 H   0  0  0  0  0  0  0  0  0  0  0  0
   -2.2944    1.2105    1.6047 H   0  0  0  0  0  0  0  0  0  0  0  0
   -4.1731    4.5409    0.0315 H   0  0  0  0  0  0  0  0  0  0  0  0
  1  2  1  0
  2  3  1  0
  3  4  2  0
  4  5  1  0
  5  6  1  0
  6  7  1  0
  7  8  2  0
  7  9  1  0
  9 10  1  0
 10 11  2  0
 11 12  1  0
 12 13  2  0
 13 14  1  0
 14 15  2  0
 15 16  1  0
 16 17  1  0
 17 18  1  0
 18 19  2  0
 18 20  1  0
 17 21  2  0
 13 22  1  0
 22 23  2  0
  9 24  1  0
 24 25  2  0
 24 26  1  0
 26 27  1  0
 27 28  1  0
 28 29  1  0
 29 30  1  0
 30 31  1  0
 31 32  2  0
 32 33  1  0
 33 34  2  0
 34 35  1  0
 35 36  2  0
 36 37  1  0
 29 38  1  0
 38 39  1  0
  5 40  2  0
 40 41  1  0
 41 42  2  0
 42  3  1  0
 26  6  1  0
 36 31  1  0
 23 10  1  0
 39 26  1  0
 21 14  1  0
  1 43  1  0
  1 44  1  0
  1 45  1  0
  4 46  1  0
 11 47  1  0
 12 48  1  0
 15 49  1  0
 20 50  1  0
 21 51  1  0
 22 52  1  0
 23 53  1  0
 27 54  1  0
 27 55  1  0
 28 56  1  0
 28 57  1  0
 30 58  1  0
 30 59  1  0
 33 60  1  0
 34 61  1  0
 35 62  1  0
 37 63  1  0
 37 64  1  0
 37 65  1  0
 38 66  1  0
 38 67  1  0
 39 68  1  0
 39 69  1  0
 41 70  1  0
M  END
$$$$
