@<TRIPOS>MOLECULE
*****
 70 75 0 0 0
SMALL
GASTEIGER

@<TRIPOS>ATOM
      1 C          -0.9328    8.1575   -0.7541 C.3     1  UNL1        0.0804
      2 O          -0.3650    6.8602   -0.6954 O.3     1  UNL1       -0.4795
      3 C          -1.1250    5.7262   -0.4821 C.ar    1  UNL1        0.2191
      4 C          -0.4723    4.5088   -0.4424 C.ar    1  UNL1        0.0404
      5 C          -1.1181    3.3094   -0.2373 C.ar    1  UNL1        0.1364
      6 N          -0.4645    2.0476   -0.1938 N.am    1  UNL1       -0.2240
      7 C           0.9591    1.8526   -0.3738 C.2     1  UNL1        0.3219
      8 O           1.7617    2.5650   -1.0165 O.2     1  UNL1       -0.2512
      9 N           1.3278    0.6600    0.3306 N.am    1  UNL1       -0.1920
     10 C           2.6234    0.1085    0.4128 C.ar    1  UNL1        0.0455
     11 C           3.4991    0.4611    1.4131 C.ar    1  UNL1       -0.0392
     12 C           4.7789   -0.0979    1.4785 C.ar    1  UNL1       -0.0522
     13 C           5.1739   -1.0105    0.5365 C.ar    1  UNL1       -0.0147
     14 C           6.4946   -1.6231    0.5584 C.ar    1  UNL1        0.0207
     15 C           7.6810   -1.0642    1.0053 C.ar    1  UNL1        0.1006
     16 O           8.6317   -1.9504    0.8501 O.2     1  UNL1       -0.4557
     17 C           8.1599   -3.0670    0.3282 C.ar    1  UNL1        0.2116
     18 C           8.8911   -4.2838    0.0029 C.2     1  UNL1        0.3725
     19 O           8.2909   -5.2676   -0.4927 O.2     1  UNL1       -0.2417
     20 O          10.2602   -4.3573    0.2423 O.3     1  UNL1       -0.4750
     21 C           6.8045   -2.8983    0.1282 C.ar    1  UNL1       -0.0016
     22 C           4.2953   -1.3735   -0.4792 C.ar    1  UNL1       -0.0522
     23 C           3.0336   -0.8079   -0.5248 C.ar    1  UNL1       -0.0392
     24 C           0.1104    0.1709    0.9149 C.2     1  UNL1        0.2516
     25 O           0.0253   -0.5532    1.9353 O.2     1  UNL1       -0.2724
     26 C          -0.9548    0.7280    0.0269 C.3     1  UNL1        0.1240
     27 C          -0.8973   -0.0884   -1.2581 C.3     1  UNL1       -0.0095
     28 C          -1.2607   -1.4994   -0.8322 C.3     1  UNL1        0.0017
     29 N          -2.5327   -1.6169   -0.2072 N.3     1  UNL1       -0.2965
     30 C          -3.6330   -1.6811   -1.1392 C.3     1  UNL1        0.0415
     31 C          -4.9415   -1.7885   -0.4925 C.ar    1  UNL1        0.0581
     32 N          -5.7700   -0.7163   -0.4220 N.ar    1  UNL1       -0.2583
     33 C          -6.9827   -0.7813    0.1656 C.ar    1  UNL1        0.0279
     34 C          -7.4452   -1.9422    0.7264 C.ar    1  UNL1       -0.0433
     35 C          -6.6383   -3.0549    0.6780 C.ar    1  UNL1       -0.0557
     36 C          -5.4029   -2.9585    0.0704 C.ar    1  UNL1       -0.0279
     37 C          -4.5091   -4.1427    0.0033 C.3     1  UNL1       -0.0380
     38 C          -2.7798   -0.7334    0.8971 C.3     1  UNL1        0.0017
     39 C          -2.3027    0.6778    0.6375 C.3     1  UNL1       -0.0095
     40 N          -2.4537    3.3921   -0.0735 N.ar    1  UNL1       -0.2200
     41 C          -3.1015    4.5666   -0.1094 C.ar    1  UNL1        0.1219
     42 N          -2.4477    5.7377   -0.3127 N.ar    1  UNL1       -0.2013
     43 H          -2.0256    8.0827   -0.5622 H       1  UNL1        0.0660
     44 H          -0.4530    8.7657    0.0311 H       1  UNL1        0.0660
     45 H          -0.7478    8.6456   -1.7245 H       1  UNL1        0.0660
     46 H           0.6080    4.4920   -0.5777 H       1  UNL1        0.0705
     47 H           3.2182    1.1795    2.1729 H       1  UNL1        0.0636
     48 H           5.4653    0.1749    2.2574 H       1  UNL1        0.0624
     49 H           7.8326   -0.0691    1.4178 H       1  UNL1        0.1036
     50 H          10.6786   -5.2984    0.2057 H       1  UNL1        0.2955
     51 H           6.0806   -3.5903   -0.2794 H       1  UNL1        0.0664
     52 H           4.6024   -2.0866   -1.2161 H       1  UNL1        0.0624
     53 H           2.3930   -1.1274   -1.3362 H       1  UNL1        0.0636
     54 H          -1.5821    0.2932   -2.0269 H       1  UNL1        0.0303
     55 H           0.1665   -0.1142   -1.5688 H       1  UNL1        0.0303
     56 H          -1.2443   -2.1572   -1.7127 H       1  UNL1        0.0427
     57 H          -0.4768   -1.8325   -0.1156 H       1  UNL1        0.0427
     58 H          -3.6065   -0.7417   -1.7323 H       1  UNL1        0.0491
     59 H          -3.4783   -2.5050   -1.8650 H       1  UNL1        0.0491
     60 H          -7.6429    0.0921    0.2155 H       1  UNL1        0.0829
     61 H          -8.4055   -2.0413    1.2057 H       1  UNL1        0.0633
     62 H          -6.9504   -4.0113    1.1078 H       1  UNL1        0.0621
     63 H          -3.7494   -4.1301    0.8240 H       1  UNL1        0.0278
     64 H          -5.1271   -5.0506    0.1922 H       1  UNL1        0.0278
     65 H          -4.0763   -4.2497   -0.9928 H       1  UNL1        0.0278
     66 H          -2.3555   -1.1043    1.8536 H       1  UNL1        0.0427
     67 H          -3.8786   -0.6755    1.0482 H       1  UNL1        0.0427
     68 H          -3.0485    1.1362   -0.0333 H       1  UNL1        0.0303
     69 H          -2.2944    1.2105    1.6047 H       1  UNL1        0.0303
     70 H          -4.1731    4.5409    0.0315 H       1  UNL1        0.1049
@<TRIPOS>BOND
     1     1     2    1
     2     2     3    1
     3     3     4   ar
     4     4     5   ar
     5     5     6    1
     6     6     7   am
     7     7     8    2
     8     7     9   am
     9     9    10    1
    10    10    11   ar
    11    11    12   ar
    12    12    13   ar
    13    13    14    1
    14    14    15   ar
    15    15    16   ar
    16    16    17   ar
    17    17    18    1
    18    18    19    2
    19    18    20    1
    20    17    21   ar
    21    13    22   ar
    22    22    23   ar
    23     9    24   am
    24    24    25    2
    25    24    26    1
    26    26    27    1
    27    27    28    1
    28    28    29    1
    29    29    30    1
    30    30    31    1
    31    31    32   ar
    32    32    33   ar
    33    33    34   ar
    34    34    35   ar
    35    35    36   ar
    36    36    37    1
    37    29    38    1
    38    38    39    1
    39     5    40   ar
    40    40    41   ar
    41    41    42   ar
    42    42     3   ar
    43    26     6    1
    44    36    31   ar
    45    23    10   ar
    46    39    26    1
    47    21    14   ar
    48     1    43    1
    49     1    44    1
    50     1    45    1
    51     4    46    1
    52    11    47    1
    53    12    48    1
    54    15    49    1
    55    20    50    1
    56    21    51    1
    57    22    52    1
    58    23    53    1
    59    27    54    1
    60    27    55    1
    61    28    56    1
    62    28    57    1
    63    30    58    1
    64    30    59    1
    65    33    60    1
    66    34    61    1
    67    35    62    1
    68    37    63    1
    69    37    64    1
    70    37    65    1
    71    38    66    1
    72    38    67    1
    73    39    68    1
    74    39    69    1
    75    41    70    1
