@<TRIPOS>MOLECULE
*****
 69 74 0 0 0
SMALL
GASTEIGER

@<TRIPOS>ATOM
      1 C          -2.1692   -1.5354   -3.8771 C.3     1  UNL1       -0.0391
      2 C          -0.9448   -1.5245   -3.0485 C.ar    1  UNL1       -0.0427
      3 C           0.2995   -1.8630   -3.5964 C.ar    1  UNL1       -0.0575
      4 C           1.4370   -1.8393   -2.8094 C.ar    1  UNL1       -0.0493
      5 C           1.3759   -1.4857   -1.4789 C.ar    1  UNL1        0.0376
      6 C           2.5400   -1.4388   -0.6047 C.2     1  UNL1        0.2483
      7 O           2.3311   -1.1687    0.6232 O.2     1  UNL1       -0.2699
      8 N           3.8357   -1.6823   -1.1063 N.am    1  UNL1       -0.2814
      9 C           4.8993   -1.6109   -0.1479 C.ar    1  UNL1        0.0354
     10 C           5.2341   -2.7886    0.4838 C.ar    1  UNL1       -0.0404
     11 C           6.2584   -2.7962    1.4358 C.ar    1  UNL1       -0.0583
     12 C           6.9235   -1.6300    1.7350 C.ar    1  UNL1       -0.0405
     13 C           6.5993   -0.4289    1.1070 C.ar    1  UNL1        0.0316
     14 N           7.2938    0.7684    1.4244 N.pl3   1  UNL1       -0.3255
     15 C           8.3998    0.6903    2.3240 C.3     1  UNL1        0.0357
     16 C           9.1556    1.9489    2.5227 C.3     1  UNL1        0.0634
     17 O           8.6793    3.0374    1.8198 O.3     1  UNL1       -0.3767
     18 C           7.3139    3.1193    1.7672 C.3     1  UNL1        0.0634
     19 C           6.8442    2.0015    0.8256 C.3     1  UNL1        0.0357
     20 C           5.5809   -0.4773    0.1751 C.ar    1  UNL1       -0.0194
     21 C           0.1143   -1.1529   -0.9633 C.ar    1  UNL1       -0.0416
     22 C          -1.0274   -1.1707   -1.7305 C.ar    1  UNL1       -0.0141
     23 C          -2.3150   -0.8235   -1.1559 C.ar    1  UNL1       -0.0140
     24 C          -3.4664   -1.5506   -1.2681 C.ar    1  UNL1       -0.0532
     25 C          -4.6611   -1.1300   -0.6832 C.ar    1  UNL1       -0.0486
     26 C          -4.7334    0.0426    0.0369 C.ar    1  UNL1        0.0446
     27 C          -5.7603    0.6900    0.7100 C.ar    1  UNL1        0.0945
     28 C          -7.1818    0.2311    0.8333 C.3     1  UNL1        0.0075
     29 C          -8.0541    0.7497   -0.2660 C.3     1  UNL1       -0.0320
     30 C          -9.3138    1.4159    0.2855 C.3     1  UNL1       -0.0035
     31 N          -8.9649    2.4628    1.2264 N.3     1  UNL1       -0.3159
     32 C          -8.0624    2.0350    2.2449 C.3     1  UNL1       -0.0035
     33 C          -7.6865    0.5884    2.1987 C.3     1  UNL1       -0.0320
     34 N          -5.1773    1.7947    1.2073 N.ar    1  UNL1       -0.0818
     35 O          -3.9218    1.8416    0.8848 O.2     1  UNL1       -0.3544
     36 C          -3.5807    0.7847    0.1584 C.ar    1  UNL1        0.1681
     37 C          -2.4027    0.3664   -0.4203 C.ar    1  UNL1       -0.0083
     38 H          -2.9479   -0.8424   -3.5449 H       1  UNL1        0.0278
     39 H          -1.8444   -1.2544   -4.9293 H       1  UNL1        0.0278
     40 H          -2.5760   -2.5777   -4.0293 H       1  UNL1        0.0278
     41 H           0.3147   -2.1385   -4.6507 H       1  UNL1        0.0621
     42 H           2.4009   -2.1086   -3.2542 H       1  UNL1        0.0625
     43 H           4.0027   -1.8970   -2.1043 H       1  UNL1        0.1551
     44 H           4.7571   -3.7393    0.2997 H       1  UNL1        0.0636
     45 H           6.5196   -3.7200    1.9299 H       1  UNL1        0.0619
     46 H           7.7156   -1.6258    2.4676 H       1  UNL1        0.0636
     47 H           9.0824   -0.1118    1.9225 H       1  UNL1        0.0486
     48 H           8.0859    0.3069    3.3298 H       1  UNL1        0.0486
     49 H           9.1591    2.2604    3.6048 H       1  UNL1        0.0575
     50 H          10.2202    1.8128    2.2510 H       1  UNL1        0.0575
     51 H           7.0472    4.1127    1.3478 H       1  UNL1        0.0575
     52 H           6.8851    2.9363    2.7654 H       1  UNL1        0.0575
     53 H           7.4223    2.1370   -0.1073 H       1  UNL1        0.0486
     54 H           5.7484    2.0604    0.6808 H       1  UNL1        0.0486
     55 H           5.2687    0.4285   -0.3672 H       1  UNL1        0.0655
     56 H           0.0292   -0.8675    0.0857 H       1  UNL1        0.0631
     57 H          -3.4419   -2.4660   -1.8172 H       1  UNL1        0.0624
     58 H          -5.5724   -1.7035   -0.7705 H       1  UNL1        0.0625
     59 H          -7.1501   -0.8958    0.7194 H       1  UNL1        0.0366
     60 H          -7.5242    1.4568   -0.9508 H       1  UNL1        0.0284
     61 H          -8.4447   -0.0809   -0.9238 H       1  UNL1        0.0284
     62 H          -9.9421    0.6590    0.7680 H       1  UNL1        0.0424
     63 H          -9.8490    1.9082   -0.5555 H       1  UNL1        0.0424
     64 H          -8.6209    3.2752    0.6682 H       1  UNL1        0.1219
     65 H          -8.4953    2.2028    3.2778 H       1  UNL1        0.0424
     66 H          -7.1153    2.6416    2.2707 H       1  UNL1        0.0424
     67 H          -8.5062   -0.0709    2.5535 H       1  UNL1        0.0284
     68 H          -6.8109    0.4683    2.8997 H       1  UNL1        0.0284
     69 H          -1.5100    0.9620   -0.3153 H       1  UNL1        0.0661
@<TRIPOS>BOND
     1     1     2    1
     2     2     3   ar
     3     3     4   ar
     4     4     5   ar
     5     5     6    1
     6     6     7    2
     7     6     8   am
     8     8     9    1
     9     9    10   ar
    10    10    11   ar
    11    11    12   ar
    12    12    13   ar
    13    13    14    1
    14    14    15    1
    15    15    16    1
    16    16    17    1
    17    17    18    1
    18    18    19    1
    19    13    20   ar
    20     5    21   ar
    21    21    22   ar
    22    22    23    1
    23    23    24   ar
    24    24    25   ar
    25    25    26   ar
    26    26    27   ar
    27    27    28    1
    28    28    29    1
    29    29    30    1
    30    30    31    1
    31    31    32    1
    32    32    33    1
    33    27    34   ar
    34    34    35   ar
    35    35    36   ar
    36    36    37   ar
    37    22     2   ar
    38    37    23   ar
    39    20     9   ar
    40    36    26   ar
    41    19    14    1
    42    33    28    1
    43     1    38    1
    44     1    39    1
    45     1    40    1
    46     3    41    1
    47     4    42    1
    48     8    43    1
    49    10    44    1
    50    11    45    1
    51    12    46    1
    52    15    47    1
    53    15    48    1
    54    16    49    1
    55    16    50    1
    56    18    51    1
    57    18    52    1
    58    19    53    1
    59    19    54    1
    60    20    55    1
    61    21    56    1
    62    24    57    1
    63    25    58    1
    64    28    59    1
    65    29    60    1
    66    29    61    1
    67    30    62    1
    68    30    63    1
    69    31    64    1
    70    32    65    1
    71    32    66    1
    72    33    67    1
    73    33    68    1
    74    37    69    1
