
     RDKit          3D

 69 74  0  0  0  0  0  0  0  0999 V2000
   -2.1692   -1.5354   -3.8771 C   0  0  0  0  0  0  0  0  0  0  0  0
   -0.9448   -1.5245   -3.0485 C   0  0  0  0  0  0  0  0  0  0  0  0
    0.2995   -1.8630   -3.5964 C   0  0  0  0  0  0  0  0  0  0  0  0
    1.4370   -1.8393   -2.8094 C   0  0  0  0  0  0  0  0  0  0  0  0
    1.3759   -1.4857   -1.4789 C   0  0  0  0  0  0  0  0  0  0  0  0
    2.5400   -1.4388   -0.6047 C   0  0  0  0  0  0  0  0  0  0  0  0
    2.3311   -1.1687    0.6232 O   0  0  0  0  0  0  0  0  0  0  0  0
    3.8357   -1.6823   -1.1063 N   0  0  0  0  0  0  0  0  0  0  0  0
    4.8993   -1.6109   -0.1479 C   0  0  0  0  0  0  0  0  0  0  0  0
    5.2341   -2.7886    0.4838 C   0  0  0  0  0  0  0  0  0  0  0  0
    6.2584   -2.7962    1.4358 C   0  0  0  0  0  0  0  0  0  0  0  0
    6.9235   -1.6300    1.7350 C   0  0  0  0  0  0  0  0  0  0  0  0
    6.5993   -0.4289    1.1070 C   0  0  0  0  0  0  0  0  0  0  0  0
    7.2938    0.7684    1.4244 N   0  0  0  0  0  0  0  0  0  0  0  0
    8.3998    0.6903    2.3240 C   0  0  0  0  0  0  0  0  0  0  0  0
    9.1556    1.9489    2.5227 C   0  0  0  0  0  0  0  0  0  0  0  0
    8.6793    3.0374    1.8198 O   0  0  0  0  0  0  0  0  0  0  0  0
    7.3139    3.1193    1.7672 C   0  0  0  0  0  0  0  0  0  0  0  0
    6.8442    2.0015    0.8256 C   0  0  0  0  0  0  0  0  0  0  0  0
    5.5809   -0.4773    0.1751 C   0  0  0  0  0  0  0  0  0  0  0  0
    0.1143   -1.1529   -0.9633 C   0  0  0  0  0  0  0  0  0  0  0  0
   -1.0274   -1.1707   -1.7305 C   0  0  0  0  0  0  0  0  0  0  0  0
   -2.3150   -0.8235   -1.1559 C   0  0  0  0  0  0  0  0  0  0  0  0
   -3.4664   -1.5506   -1.2681 C   0  0  0  0  0  0  0  0  0  0  0  0
   -4.6611   -1.1300   -0.6832 C   0  0  0  0  0  0  0  0  0  0  0  0
   -4.7334    0.0426    0.0369 C   0  0  0  0  0  0  0  0  0  0  0  0
   -5.7603    0.6900    0.7100 C   0  0  0  0  0  0  0  0  0  0  0  0
   -7.1818    0.2311    0.8333 C   0  0  0  0  0  0  0  0  0  0  0  0
   -8.0541    0.7497   -0.2660 C   0  0  0  0  0  0  0  0  0  0  0  0
   -9.3138    1.4159    0.2855 C   0  0  0  0  0  0  0  0  0  0  0  0
   -8.9649    2.4628    1.2264 N   0  0  0  0  0  0  0  0  0  0  0  0
   -8.0624    2.0350    2.2449 C   0  0  0  0  0  0  0  0  0  0  0  0
   -7.6865    0.5884    2.1987 C   0  0  0  0  0  0  0  0  0  0  0  0
   -5.1773    1.7947    1.2073 N   0  0  0  0  0  0  0  0  0  0  0  0
   -3.9218    1.8416    0.8848 O   0  0  0  0  0  0  0  0  0  0  0  0
   -3.5807    0.7847    0.1584 C   0  0  0  0  0  0  0  0  0  0  0  0
   -2.4027    0.3664   -0.4203 C   0  0  0  0  0  0  0  0  0  0  0  0
   -2.9479   -0.8424   -3.5449 H   0  0  0  0  0  0  0  0  0  0  0  0
   -1.8444   -1.2544   -4.9293 H   0  0  0  0  0  0  0  0  0  0  0  0
   -2.5760   -2.5777   -4.0293 H   0  0  0  0  0  0  0  0  0  0  0  0
    0.3147   -2.1385   -4.6507 H   0  0  0  0  0  0  0  0  0  0  0  0
    2.4009   -2.1086   -3.2542 H   0  0  0  0  0  0  0  0  0  0  0  0
    4.0027   -1.8970   -2.1043 H   0  0  0  0  0  0  0  0  0  0  0  0
    4.7571   -3.7393    0.2997 H   0  0  0  0  0  0  0  0  0  0  0  0
    6.5196   -3.7200    1.9299 H   0  0  0  0  0  0  0  0  0  0  0  0
    7.7156   -1.6258    2.4676 H   0  0  0  0  0  0  0  0  0  0  0  0
    9.0824   -0.1118    1.9225 H   0  0  0  0  0  0  0  0  0  0  0  0
    8.0859    0.3069    3.3298 H   0  0  0  0  0  0  0  0  0  0  0  0
    9.1591    2.2604    3.6048 H   0  0  0  0  0  0  0  0  0  0  0  0
   10.2202    1.8128    2.2510 H   0  0  0  0  0  0  0  0  0  0  0  0
    7.0472    4.1127    1.3478 H   0  0  0  0  0  0  0  0  0  0  0  0
    6.8851    2.9363    2.7654 H   0  0  0  0  0  0  0  0  0  0  0  0
    7.4223    2.1370   -0.1073 H   0  0  0  0  0  0  0  0  0  0  0  0
    5.7484    2.0604    0.6808 H   0  0  0  0  0  0  0  0  0  0  0  0
    5.2687    0.4285   -0.3672 H   0  0  0  0  0  0  0  0  0  0  0  0
    0.0292   -0.8675    0.0857 H   0  0  0  0  0  0  0  0  0  0  0  0
   -3.4419   -2.4660   -1.8172 H   0  0  0  0  0  0  0  0  0  0  0  0
   -5.5724   -1.7035   -0.7705 H   0  0  0  0  0  0  0  0  0  0  0  0
   -7.1501   -0.8958    0.7194 H   0  0  0  0  0  0  0  0  0  0  0  0
   -7.5242    1.4568   -0.9508 H   0  0  0  0  0  0  0  0  0  0  0  0
   -8.4447   -0.0809   -0.9238 H   0  0  0  0  0  0  0  0  0  0  0  0
   -9.9421    0.6590    0.7680 H   0  0  0  0  0  0  0  0  0  0  0  0
   -9.8490    1.9082   -0.5555 H   0  0  0  0  0  0  0  0  0  0  0  0
   -8.6209    3.2752    0.6682 H   0  0  0  0  0  0  0  0  0  0  0  0
   -8.4953    2.2028    3.2778 H   0  0  0  0  0  0  0  0  0  0  0  0
   -7.1153    2.6416    2.2707 H   0  0  0  0  0  0  0  0  0  0  0  0
   -8.5062   -0.0709    2.5535 H   0  0  0  0  0  0  0  0  0  0  0  0
   -6.8109    0.4683    2.8997 H   0  0  0  0  0  0  0  0  0  0  0  0
   -1.5100    0.9620   -0.3153 H   0  0  0  0  0  0  0  0  0  0  0  0
  1  2  1  0
  2  3  2  0
  3  4  1  0
  4  5  2  0
  5  6  1  0
  6  7  2  0
  6  8  1  0
  8  9  1  0
  9 10  2  0
 10 11  1  0
 11 12  2  0
 12 13  1  0
 13 14  1  0
 14 15  1  0
 15 16  1  0
 16 17  1  0
 17 18  1  0
 18 19  1  0
 13 20  2  0
  5 21  1  0
 21 22  2  0
 22 23  1  0
 23 24  2  0
 24 25  1  0
 25 26  2  0
 26 27  1  0
 27 28  1  0
 28 29  1  0
 29 30  1  0
 30 31  1  0
 31 32  1  0
 32 33  1  0
 27 34  2  0
 34 35  1  0
 35 36  1  0
 36 37  2  0
 22  2  1  0
 37 23  1  0
 20  9  1  0
 36 26  1  0
 19 14  1  0
 33 28  1  0
  1 38  1  0
  1 39  1  0
  1 40  1  0
  3 41  1  0
  4 42  1  0
  8 43  1  0
 10 44  1  0
 11 45  1  0
 12 46  1  0
 15 47  1  0
 15 48  1  0
 16 49  1  0
 16 50  1  0
 18 51  1  0
 18 52  1  0
 19 53  1  0
 19 54  1  0
 20 55  1  0
 21 56  1  0
 24 57  1  0
 25 58  1  0
 28 59  1  0
 29 60  1  0
 29 61  1  0
 30 62  1  0
 30 63  1  0
 31 64  1  0
 32 65  1  0
 32 66  1  0
 33 67  1  0
 33 68  1  0
 37 69  1  0
M  END
$$$$
