@<TRIPOS>MOLECULE
*****
 53 55 0 0 0
SMALL
GASTEIGER

@<TRIPOS>ATOM
      1 C           8.8404    2.6690   -0.6727 C.3     1  UNL1       -0.0613
      2 C           8.6450    1.2063   -1.0948 C.3     1  UNL1       -0.0305
      3 C           7.3919    0.7481   -0.4441 C.ar    1  UNL1       -0.0476
      4 C           7.3898    0.1724    0.8070 C.ar    1  UNL1       -0.0580
      5 C           6.2013   -0.2490    1.3959 C.ar    1  UNL1       -0.0543
      6 C           4.9860   -0.1052    0.7484 C.ar    1  UNL1       -0.0238
      7 C           3.7548   -0.5261    1.3610 C.2     1  UNL1       -0.0357
      8 C           2.8467   -1.1682    0.6450 C.2     1  UNL1        0.0771
      9 S           2.9517   -1.6119   -1.0868 S.3     1  UNL1       -0.0610
     10 C           1.3314   -2.3353   -1.2048 C.2     1  UNL1        0.1205
     11 S           0.6668   -2.9337   -2.5578 S.2     1  UNL1       -0.0272
     12 N           0.7751   -2.2739    0.0910 N.am    1  UNL1       -0.2553
     13 C          -0.5769   -2.8313    0.3778 C.3     1  UNL1        0.0215
     14 C          -1.6192   -1.7686    0.1535 C.3     1  UNL1       -0.0285
     15 C          -3.0101   -2.2894    0.4353 C.3     1  UNL1        0.0257
     16 C          -3.9818   -1.1913    0.1889 C.2     1  UNL1        0.2172
     17 O          -3.5955   -0.0644   -0.2004 O.2     1  UNL1       -0.2755
     18 N          -5.3796   -1.3587    0.3795 N.am    1  UNL1       -0.2855
     19 C          -6.2630   -0.2754    0.1278 C.ar    1  UNL1        0.0334
     20 C          -6.8516   -0.0467   -1.0989 C.ar    1  UNL1       -0.0397
     21 C          -7.7039    1.0186   -1.3157 C.ar    1  UNL1       -0.0460
     22 C          -7.9836    1.8884   -0.2822 C.ar    1  UNL1        0.0589
     23 C          -8.8930    3.0362   -0.4967 C.2     1  UNL1        0.3368
     24 O          -9.4183    3.2227   -1.6217 O.2     1  UNL1       -0.2451
     25 O          -9.1935    3.9262    0.5058 O.3     1  UNL1       -0.4771
     26 C          -7.4105    1.6844    0.9519 C.ar    1  UNL1       -0.0460
     27 C          -6.5670    0.6143    1.1338 C.ar    1  UNL1       -0.0397
     28 C           1.5465   -1.6701    1.0715 C.2     1  UNL1        0.2583
     29 O           1.1804   -1.5372    2.2991 O.2     1  UNL1       -0.2690
     30 C           4.9930    0.4678   -0.4947 C.ar    1  UNL1       -0.0543
     31 C           6.1735    0.8843   -1.0751 C.ar    1  UNL1       -0.0580
     32 H           8.8895    2.6961    0.4438 H       1  UNL1        0.0233
     33 H           7.9482    3.2598   -0.9700 H       1  UNL1        0.0233
     34 H           9.7287    3.0979   -1.1602 H       1  UNL1        0.0233
     35 H           9.5017    0.6193   -0.7422 H       1  UNL1        0.0311
     36 H           8.5462    1.1368   -2.1918 H       1  UNL1        0.0311
     37 H           8.3457    0.0693    1.2945 H       1  UNL1        0.0620
     38 H           6.2483   -0.6968    2.3867 H       1  UNL1        0.0624
     39 H           3.5407   -0.3335    2.4027 H       1  UNL1        0.0636
     40 H          -0.7798   -3.6654   -0.3211 H       1  UNL1        0.0469
     41 H          -0.6381   -3.2225    1.3960 H       1  UNL1        0.0469
     42 H          -1.4455   -0.9279    0.8859 H       1  UNL1        0.0285
     43 H          -1.5789   -1.4114   -0.8815 H       1  UNL1        0.0285
     44 H          -3.1940   -3.1322   -0.2550 H       1  UNL1        0.0359
     45 H          -3.0972   -2.6875    1.4720 H       1  UNL1        0.0359
     46 H          -5.7293   -2.2834    0.7028 H       1  UNL1        0.1548
     47 H          -6.6241   -0.7346   -1.8996 H       1  UNL1        0.0636
     48 H          -8.1551    1.1756   -2.2920 H       1  UNL1        0.0626
     49 H          -9.2178    4.9320    0.3180 H       1  UNL1        0.2954
     50 H          -7.6210    2.3670    1.7856 H       1  UNL1        0.0626
     51 H          -6.1358    0.4879    2.1215 H       1  UNL1        0.0636
     52 H           4.0784    0.6127   -1.0405 H       1  UNL1        0.0624
     53 H           6.1627    1.3385   -2.0664 H       1  UNL1        0.0620
@<TRIPOS>BOND
     1     1     2    1
     2     2     3    1
     3     3     4   ar
     4     4     5   ar
     5     5     6   ar
     6     6     7    1
     7     7     8    2
     8     8     9    1
     9     9    10    1
    10    10    11    2
    11    10    12    1
    12    12    13    1
    13    13    14    1
    14    14    15    1
    15    15    16    1
    16    16    17    2
    17    16    18   am
    18    18    19    1
    19    19    20   ar
    20    20    21   ar
    21    21    22   ar
    22    22    23    1
    23    23    24    2
    24    23    25    1
    25    22    26   ar
    26    26    27   ar
    27    12    28   am
    28    28    29    2
    29     6    30   ar
    30    30    31   ar
    31    31     3   ar
    32    28     8    1
    33    27    19   ar
    34     1    32    1
    35     1    33    1
    36     1    34    1
    37     2    35    1
    38     2    36    1
    39     4    37    1
    40     5    38    1
    41     7    39    1
    42    13    40    1
    43    13    41    1
    44    14    42    1
    45    14    43    1
    46    15    44    1
    47    15    45    1
    48    18    46    1
    49    20    47    1
    50    21    48    1
    51    25    49    1
    52    26    50    1
    53    27    51    1
    54    30    52    1
    55    31    53    1
