@<TRIPOS>MOLECULE
*****
 36 38 0 0 0
SMALL
GASTEIGER

@<TRIPOS>ATOM
      1 C          -3.2064   -0.2563    1.2113 C.3     1  UNL1       -0.0386
      2 C          -1.9434   -0.2791    0.4825 C.ar    1  UNL1       -0.0350
      3 C          -1.2314    0.9233    0.5370 C.ar    1  UNL1       -0.0141
      4 C          -1.7194    2.0366    1.2125 C.ar    1  UNL1       -0.0538
      5 C          -1.0682    3.2499    1.2786 C.ar    1  UNL1       -0.0612
      6 C           0.1575    3.3518    0.6206 C.ar    1  UNL1       -0.0612
      7 C           0.6470    2.2437   -0.0531 C.ar    1  UNL1       -0.0537
      8 C          -0.0126    1.0339   -0.1113 C.ar    1  UNL1       -0.0139
      9 C           0.6042    0.0198   -0.8454 C.ar    1  UNL1       -0.0314
     10 C           1.9021    0.0941   -1.4696 C.3     1  UNL1       -0.0165
     11 C           3.0520   -0.2810   -0.5590 C.3     1  UNL1        0.0488
     12 C           3.1887    0.5403    0.6509 C.2     1  UNL1        0.3050
     13 O           3.2018    1.4069    1.7592 O.3     1  UNL1       -0.4806
     14 O           4.1242    0.2055    1.4298 O.2     1  UNL1       -0.2510
     15 C          -0.1365   -1.1571   -0.8754 C.ar    1  UNL1       -0.0139
     16 C          -1.3514   -1.2827   -0.2358 C.ar    1  UNL1       -0.0141
     17 C          -2.0728   -2.4575   -0.2710 C.ar    1  UNL1       -0.0538
     18 C          -1.6182   -3.5706   -0.9468 C.ar    1  UNL1       -0.0612
     19 C          -0.3966   -3.4810   -1.6025 C.ar    1  UNL1       -0.0612
     20 C           0.2900   -2.2865   -1.5407 C.ar    1  UNL1       -0.0537
     21 H          -2.9468    0.0617    2.2677 H       1  UNL1        0.0278
     22 H          -3.8819    0.5798    0.8558 H       1  UNL1        0.0278
     23 H          -3.7452   -1.1947    1.3285 H       1  UNL1        0.0278
     24 H          -2.6652    1.9952    1.7321 H       1  UNL1        0.0624
     25 H          -1.4909    4.0910    1.8185 H       1  UNL1        0.0618
     26 H           0.6528    4.3129    0.6837 H       1  UNL1        0.0618
     27 H           1.5739    2.4604   -0.5261 H       1  UNL1        0.0624
     28 H           2.2115    1.0880   -1.8491 H       1  UNL1        0.0319
     29 H           1.9389   -0.5598   -2.3590 H       1  UNL1        0.0319
     30 H           4.0312   -0.1452   -1.1154 H       1  UNL1        0.0381
     31 H           2.9647   -1.3312   -0.1993 H       1  UNL1        0.0381
     32 H           2.9597    2.3645    1.6711 H       1  UNL1        0.2951
     33 H          -3.0268   -2.6154    0.2056 H       1  UNL1        0.0624
     34 H          -2.1662   -4.5034   -0.9891 H       1  UNL1        0.0618
     35 H          -0.0339   -4.3509   -2.1347 H       1  UNL1        0.0618
     36 H           1.2140   -2.3068   -2.0622 H       1  UNL1        0.0624
@<TRIPOS>BOND
     1     1     2    1
     2     2     3   ar
     3     3     4   ar
     4     4     5   ar
     5     5     6   ar
     6     6     7   ar
     7     7     8   ar
     8     8     9   ar
     9     9    10    1
    10    10    11    1
    11    11    12    1
    12    12    13    1
    13    12    14    2
    14     9    15   ar
    15    15    16   ar
    16    16    17   ar
    17    17    18   ar
    18    18    19   ar
    19    19    20   ar
    20    16     2   ar
    21     8     3   ar
    22    20    15   ar
    23     1    21    1
    24     1    22    1
    25     1    23    1
    26     4    24    1
    27     5    25    1
    28     6    26    1
    29     7    27    1
    30    10    28    1
    31    10    29    1
    32    11    30    1
    33    11    31    1
    34    13    32    1
    35    17    33    1
    36    18    34    1
    37    19    35    1
    38    20    36    1
