
     RDKit          3D

 42 44  0  0  0  0  0  0  0  0999 V2000
    8.3500    2.1157   -1.7938 Cl  0  0  0  0  0  0  0  0  0  0  0  0
    7.1181    1.3209   -0.8336 C   0  0  0  0  0  0  0  0  0  0  0  0
    6.9415   -0.0446   -0.9274 C   0  0  0  0  0  0  0  0  0  0  0  0
    5.9759   -0.7216   -0.1877 C   0  0  0  0  0  0  0  0  0  0  0  0
    5.1565   -0.0039    0.6780 C   0  0  0  0  0  0  0  0  0  0  0  0
    4.1858   -0.5899    1.4393 O   0  0  0  0  0  0  0  0  0  0  0  0
    2.8619   -0.7779    1.0440 C   0  0  0  0  0  0  0  0  0  0  0  0
    2.4476   -1.9204    0.3897 C   0  0  0  0  0  0  0  0  0  0  0  0
    1.1300   -2.0980    0.0008 C   0  0  0  0  0  0  0  0  0  0  0  0
    0.1748   -1.1315    0.2549 C   0  0  0  0  0  0  0  0  0  0  0  0
   -1.1017   -1.3845   -0.1615 O   0  0  0  0  0  0  0  0  0  0  0  0
   -2.2169   -0.5274    0.0029 C   0  0  0  0  0  0  0  0  0  0  0  0
   -3.4016   -1.2081   -0.6026 C   0  0  0  0  0  0  0  0  0  0  0  0
   -4.6313   -0.5085   -0.5423 N   0  0  0  0  0  0  0  0  0  0  0  0
   -5.2084   -0.3440    0.7504 C   0  0  0  0  0  0  0  0  0  0  0  0
   -5.9536    0.9963    0.7083 C   0  0  0  0  0  0  0  0  0  0  0  0
   -6.0854    1.2331   -0.7920 C   0  0  0  0  0  0  0  0  0  0  0  0
   -4.7232    0.7090   -1.2710 C   0  0  0  0  0  0  0  0  0  0  0  0
    0.5860    0.0056    0.9055 C   0  0  0  0  0  0  0  0  0  0  0  0
    1.9049    0.1839    1.2953 C   0  0  0  0  0  0  0  0  0  0  0  0
    5.3319    1.3647    0.7736 C   0  0  0  0  0  0  0  0  0  0  0  0
    6.2931    2.0319    0.0365 C   0  0  0  0  0  0  0  0  0  0  0  0
    7.5784   -0.6171   -1.6020 H   0  0  0  0  0  0  0  0  0  0  0  0
    5.8412   -1.7946   -0.2659 H   0  0  0  0  0  0  0  0  0  0  0  0
    3.2155   -2.6753    0.1985 H   0  0  0  0  0  0  0  0  0  0  0  0
    0.8611   -3.0181   -0.5126 H   0  0  0  0  0  0  0  0  0  0  0  0
   -2.3595   -0.4277    1.1187 H   0  0  0  0  0  0  0  0  0  0  0  0
   -2.0404    0.4891   -0.3634 H   0  0  0  0  0  0  0  0  0  0  0  0
   -3.5394   -2.1749   -0.0550 H   0  0  0  0  0  0  0  0  0  0  0  0
   -3.1660   -1.4841   -1.6448 H   0  0  0  0  0  0  0  0  0  0  0  0
   -4.4823   -0.3777    1.5798 H   0  0  0  0  0  0  0  0  0  0  0  0
   -5.9912   -1.1221    0.9010 H   0  0  0  0  0  0  0  0  0  0  0  0
   -5.3524    1.8037    1.1582 H   0  0  0  0  0  0  0  0  0  0  0  0
   -6.9167    0.9405    1.2174 H   0  0  0  0  0  0  0  0  0  0  0  0
   -6.2432    2.2780   -1.0482 H   0  0  0  0  0  0  0  0  0  0  0  0
   -6.8602    0.5666   -1.2122 H   0  0  0  0  0  0  0  0  0  0  0  0
   -4.8518    0.5558   -2.3721 H   0  0  0  0  0  0  0  0  0  0  0  0
   -3.9905    1.4772   -1.0237 H   0  0  0  0  0  0  0  0  0  0  0  0
   -0.1720    0.7592    1.1001 H   0  0  0  0  0  0  0  0  0  0  0  0
    2.2020    1.0932    1.8092 H   0  0  0  0  0  0  0  0  0  0  0  0
    4.7002    1.9255    1.4417 H   0  0  0  0  0  0  0  0  0  0  0  0
    6.4312    3.1022    0.1116 H   0  0  0  0  0  0  0  0  0  0  0  0
  1  2  1  0
  2  3  2  0
  3  4  1  0
  4  5  2  0
  5  6  1  0
  6  7  1  0
  7  8  2  0
  8  9  1  0
  9 10  2  0
 10 11  1  0
 11 12  1  0
 12 13  1  0
 13 14  1  0
 14 15  1  0
 15 16  1  0
 16 17  1  0
 17 18  1  0
 10 19  1  0
 19 20  2  0
  5 21  1  0
 21 22  2  0
 22  2  1  0
 20  7  1  0
 18 14  1  0
  3 23  1  0
  4 24  1  0
  8 25  1  0
  9 26  1  0
 12 27  1  0
 12 28  1  0
 13 29  1  0
 13 30  1  0
 15 31  1  0
 15 32  1  0
 16 33  1  0
 16 34  1  0
 17 35  1  0
 17 36  1  0
 18 37  1  0
 18 38  1  0
 19 39  1  0
 20 40  1  0
 21 41  1  0
 22 42  1  0
M  END
$$$$
