@<TRIPOS>MOLECULE
*****
 42 44 0 0 0
SMALL
GASTEIGER

@<TRIPOS>ATOM
      1 CL          8.3500    2.1157   -1.7938 Cl      1  UNL1       -0.0835
      2 C           7.1181    1.3209   -0.8336 C.ar    1  UNL1        0.0412
      3 C           6.9415   -0.0446   -0.9274 C.ar    1  UNL1       -0.0399
      4 C           5.9759   -0.7216   -0.1877 C.ar    1  UNL1       -0.0180
      5 C           5.1565   -0.0039    0.6780 C.ar    1  UNL1        0.1285
      6 O           4.1858   -0.5899    1.4393 O.3     1  UNL1       -0.4560
      7 C           2.8619   -0.7779    1.0440 C.ar    1  UNL1        0.1287
      8 C           2.4476   -1.9204    0.3897 C.ar    1  UNL1       -0.0159
      9 C           1.1300   -2.0980    0.0008 C.ar    1  UNL1       -0.0165
     10 C           0.1748   -1.1315    0.2549 C.ar    1  UNL1        0.1208
     11 O          -1.1017   -1.3845   -0.1615 O.3     1  UNL1       -0.4907
     12 C          -2.2169   -0.5274    0.0029 C.3     1  UNL1        0.1022
     13 C          -3.4016   -1.2081   -0.6026 C.3     1  UNL1        0.0331
     14 N          -4.6313   -0.5085   -0.5423 N.3     1  UNL1       -0.2991
     15 C          -5.2084   -0.3440    0.7504 C.3     1  UNL1       -0.0010
     16 C          -5.9536    0.9963    0.7083 C.3     1  UNL1       -0.0390
     17 C          -6.0854    1.2331   -0.7920 C.3     1  UNL1       -0.0390
     18 C          -4.7232    0.7090   -1.2710 C.3     1  UNL1       -0.0010
     19 C           0.5860    0.0056    0.9055 C.ar    1  UNL1       -0.0165
     20 C           1.9049    0.1839    1.2953 C.ar    1  UNL1       -0.0159
     21 C           5.3319    1.3647    0.7736 C.ar    1  UNL1       -0.0180
     22 C           6.2931    2.0319    0.0365 C.ar    1  UNL1       -0.0399
     23 H           7.5784   -0.6171   -1.6020 H       1  UNL1        0.0633
     24 H           5.8412   -1.7946   -0.2659 H       1  UNL1        0.0655
     25 H           3.2155   -2.6753    0.1985 H       1  UNL1        0.0655
     26 H           0.8611   -3.0181   -0.5126 H       1  UNL1        0.0655
     27 H          -2.3595   -0.4277    1.1187 H       1  UNL1        0.0709
     28 H          -2.0404    0.4891   -0.3634 H       1  UNL1        0.0709
     29 H          -3.5394   -2.1749   -0.0550 H       1  UNL1        0.0460
     30 H          -3.1660   -1.4841   -1.6448 H       1  UNL1        0.0460
     31 H          -4.4823   -0.3777    1.5798 H       1  UNL1        0.0427
     32 H          -5.9912   -1.1221    0.9010 H       1  UNL1        0.0427
     33 H          -5.3524    1.8037    1.1582 H       1  UNL1        0.0278
     34 H          -6.9167    0.9405    1.2174 H       1  UNL1        0.0278
     35 H          -6.2432    2.2780   -1.0482 H       1  UNL1        0.0278
     36 H          -6.8602    0.5666   -1.2122 H       1  UNL1        0.0278
     37 H          -4.8518    0.5558   -2.3721 H       1  UNL1        0.0427
     38 H          -3.9905    1.4772   -1.0237 H       1  UNL1        0.0427
     39 H          -0.1720    0.7592    1.1001 H       1  UNL1        0.0655
     40 H           2.2020    1.0932    1.8092 H       1  UNL1        0.0655
     41 H           4.7002    1.9255    1.4417 H       1  UNL1        0.0655
     42 H           6.4312    3.1022    0.1116 H       1  UNL1        0.0633
@<TRIPOS>BOND
     1     1     2    1
     2     2     3   ar
     3     3     4   ar
     4     4     5   ar
     5     5     6    1
     6     6     7    1
     7     7     8   ar
     8     8     9   ar
     9     9    10   ar
    10    10    11    1
    11    11    12    1
    12    12    13    1
    13    13    14    1
    14    14    15    1
    15    15    16    1
    16    16    17    1
    17    17    18    1
    18    10    19   ar
    19    19    20   ar
    20     5    21   ar
    21    21    22   ar
    22    22     2   ar
    23    20     7   ar
    24    18    14    1
    25     3    23    1
    26     4    24    1
    27     8    25    1
    28     9    26    1
    29    12    27    1
    30    12    28    1
    31    13    29    1
    32    13    30    1
    33    15    31    1
    34    15    32    1
    35    16    33    1
    36    16    34    1
    37    17    35    1
    38    17    36    1
    39    18    37    1
    40    18    38    1
    41    19    39    1
    42    20    40    1
    43    21    41    1
    44    22    42    1
