@<TRIPOS>MOLECULE
*****
 50 52 0 0 0
SMALL
GASTEIGER

@<TRIPOS>ATOM
      1 C          -4.5294   -2.2737   -1.2357 C.3     1  UNL1       -0.0352
      2 C          -3.9647   -1.0016   -0.5875 C.3     1  UNL1        0.0966
      3 C          -2.9500   -0.4852   -1.5231 C.ar    1  UNL1        0.0359
      4 C          -1.5868   -0.4256   -1.1720 C.ar    1  UNL1       -0.0292
      5 C          -0.6314    0.0569   -2.0334 C.ar    1  UNL1        0.0525
      6 N           0.7376    0.1408   -1.7414 N.am    1  UNL1       -0.2789
      7 C           1.3873   -0.2356   -0.5570 C.2     1  UNL1        0.2666
      8 O           0.7276   -0.7092    0.3911 O.2     1  UNL1       -0.2682
      9 C           2.8392   -0.0979   -0.3700 C.ar    1  UNL1        0.1259
     10 C           3.4781   -0.4589    0.7724 C.ar    1  UNL1       -0.0277
     11 C           4.8410   -0.3129    0.9060 C.ar    1  UNL1       -0.0163
     12 C           5.5841    0.2066   -0.1236 C.ar    1  UNL1        0.1390
     13 O           6.9161    0.3966   -0.0935 O.3     1  UNL1       -0.4815
     14 C           7.9140    0.2366    0.8049 C.3     1  UNL1        0.1842
     15 C           7.9236    1.1175    2.0213 C.3     1  UNL1        0.4236
     16 F           9.0308    0.7728    2.8028 F       1  UNL1       -0.1671
     17 F           8.1758    2.4312    1.5569 F       1  UNL1       -0.1671
     18 F           6.7900    1.0930    2.7544 F       1  UNL1       -0.1671
     19 C           4.8856    0.5739   -1.3061 C.ar    1  UNL1        0.0700
     20 N           3.5669    0.4067   -1.3716 N.ar    1  UNL1       -0.2467
     21 C          -1.1001    0.4821   -3.2742 C.ar    1  UNL1        0.0519
     22 N          -2.3912    0.4411   -3.6458 N.ar    1  UNL1       -0.2255
     23 C          -3.2838   -0.0402   -2.7645 C.ar    1  UNL1        0.2188
     24 F          -4.5780   -0.0757   -3.1619 F       1  UNL1       -0.1835
     25 C          -5.0570   -0.0137   -0.2958 C.3     1  UNL1        0.0224
     26 C          -4.4637    1.0448    0.6452 C.3     1  UNL1        0.1997
     27 C          -5.4428    2.1823    0.8403 C.3     1  UNL1        0.4266
     28 F          -6.6038    1.6740    1.3910 F       1  UNL1       -0.1669
     29 F          -5.6631    2.8195   -0.3632 F       1  UNL1       -0.1669
     30 F          -4.8850    3.0890    1.7059 F       1  UNL1       -0.1669
     31 O          -4.2050    0.3638    1.8526 O.2     1  UNL1       -0.4534
     32 C          -3.4894   -0.8218    1.7942 C.2     1  UNL1        0.2765
     33 N          -2.8665   -1.3583    2.9833 N.pl3   1  UNL1       -0.3134
     34 N          -3.3957   -1.4239    0.6682 N.2     1  UNL1       -0.2256
     35 H          -5.2544   -1.9762   -1.9929 H       1  UNL1        0.0256
     36 H          -4.9202   -2.9634   -0.4640 H       1  UNL1        0.0256
     37 H          -3.6660   -2.7739   -1.7210 H       1  UNL1        0.0256
     38 H          -1.3424   -0.7778   -0.1970 H       1  UNL1        0.0641
     39 H           1.3736    0.5377   -2.5053 H       1  UNL1        0.1552
     40 H           2.8928   -0.8789    1.6135 H       1  UNL1        0.0641
     41 H           5.2963   -0.6548    1.8417 H       1  UNL1        0.0655
     42 H           7.9614   -0.8502    1.1279 H       1  UNL1        0.0788
     43 H           8.9298    0.4149    0.3053 H       1  UNL1        0.0788
     44 H           5.4819    0.9813   -2.1115 H       1  UNL1        0.0867
     45 H          -0.3323    0.8674   -3.9601 H       1  UNL1        0.0849
     46 H          -5.8511   -0.5512    0.2693 H       1  UNL1        0.0330
     47 H          -5.4546    0.5260   -1.1493 H       1  UNL1        0.0330
     48 H          -3.4990    1.4192    0.2507 H       1  UNL1        0.0826
     49 H          -3.4768   -1.7026    3.7525 H       1  UNL1        0.1466
     50 H          -1.8492   -1.4125    3.0978 H       1  UNL1        0.1466
@<TRIPOS>BOND
     1     2     1    1
     2     2     3    1
     3     3     4   ar
     4     4     5   ar
     5     5     6    1
     6     6     7   am
     7     7     8    2
     8     7     9    1
     9     9    10   ar
    10    10    11   ar
    11    11    12   ar
    12    12    13    1
    13    13    14    1
    14    14    15    1
    15    15    16    1
    16    15    17    1
    17    15    18    1
    18    12    19   ar
    19    19    20   ar
    20     5    21   ar
    21    21    22   ar
    22    22    23   ar
    23    23    24    1
    24     2    25    1
    25    25    26    1
    26    26    27    1
    27    27    28    1
    28    27    29    1
    29    27    30    1
    30    26    31    1
    31    31    32    1
    32    32    33    1
    33    32    34    2
    34    34     2    1
    35    23     3   ar
    36    20     9   ar
    37     1    35    1
    38     1    36    1
    39     1    37    1
    40     4    38    1
    41     6    39    1
    42    10    40    1
    43    11    41    1
    44    14    42    1
    45    14    43    1
    46    19    44    1
    47    21    45    1
    48    25    46    1
    49    25    47    1
    50    26    48    1
    51    33    49    1
    52    33    50    1
