@<TRIPOS>MOLECULE
*****
 43 45 0 0 0
SMALL
GASTEIGER

@<TRIPOS>ATOM
      1 C           4.0295    2.7215   -0.8490 C.3     1  UNL1       -0.0379
      2 C           2.9655    1.7592   -0.4167 C.ar    1  UNL1       -0.0280
      3 C           1.6512    1.8552   -0.8738 C.ar    1  UNL1       -0.0553
      4 C           0.7013    0.9198   -0.4376 C.ar    1  UNL1       -0.0401
      5 C           1.0805   -0.0955    0.4454 C.ar    1  UNL1        0.0342
      6 N           0.0851   -1.0561    0.8590 N.pl3   1  UNL1       -0.2993
      7 C          -1.1653   -1.0274    0.1383 C.ar    1  UNL1        0.1266
      8 C          -2.4622   -0.6680    0.4254 C.ar    1  UNL1        0.0045
      9 C          -3.3760   -0.7939   -0.5938 C.ar    1  UNL1        0.0760
     10 N          -3.0318   -1.2421   -1.8077 N.ar    1  UNL1       -0.2353
     11 C          -1.7517   -1.5897   -2.0715 C.ar    1  UNL1        0.1187
     12 N          -0.8292   -1.4800   -1.0991 N.ar    1  UNL1       -0.2206
     13 C          -4.7305   -0.4332   -0.2773 C.ar    1  UNL1        0.0005
     14 C          -5.6441   -0.5849   -1.2906 C.ar    1  UNL1       -0.0526
     15 C          -6.9885   -0.3000   -1.1777 C.ar    1  UNL1       -0.0611
     16 C          -7.4504    0.1785    0.0600 C.ar    1  UNL1       -0.0617
     17 C          -6.5549    0.3489    1.1195 C.ar    1  UNL1       -0.0611
     18 C          -5.2007    0.0347    0.9242 C.ar    1  UNL1       -0.0526
     19 C           2.3887   -0.1764    0.8890 C.ar    1  UNL1       -0.0179
     20 C           3.3354    0.7594    0.4532 C.ar    1  UNL1        0.0523
     21 N           4.6369    0.5686    1.0056 N.pl3   1  UNL1       -0.2206
     22 S           5.3376   -1.0203    0.8498 S.O2    1  UNL1        0.0403
     23 C           6.7550   -0.9629   -0.2237 C.3     1  UNL1        0.0736
     24 O           5.7044   -1.5107    2.2111 O.2     1  UNL1       -0.1555
     25 O           4.3203   -1.9732    0.2233 O.2     1  UNL1       -0.1555
     26 H           3.9007    3.0540   -1.8991 H       1  UNL1        0.0278
     27 H           5.0289    2.3104   -0.6922 H       1  UNL1        0.0278
     28 H           3.9095    3.6206   -0.1756 H       1  UNL1        0.0278
     29 H           1.4042    2.6456   -1.5553 H       1  UNL1        0.0621
     30 H          -0.3196    0.9929   -0.7910 H       1  UNL1        0.0636
     31 H           0.3472   -1.6985    1.6439 H       1  UNL1        0.1536
     32 H          -2.5439   -0.3348    1.4343 H       1  UNL1        0.0673
     33 H          -1.6231   -1.9338   -3.1049 H       1  UNL1        0.1048
     34 H          -5.3514   -0.9566   -2.2850 H       1  UNL1        0.0624
     35 H          -7.6759   -0.4320   -2.0016 H       1  UNL1        0.0618
     36 H          -8.5060    0.3992    0.1333 H       1  UNL1        0.0618
     37 H          -6.9312    0.7113    2.0406 H       1  UNL1        0.0618
     38 H          -4.4996    0.1550    1.7178 H       1  UNL1        0.0624
     39 H           2.5801   -0.9989    1.5712 H       1  UNL1        0.0655
     40 H           5.3020    1.2021    1.5123 H       1  UNL1        0.1733
     41 H           7.6546   -1.2299    0.3854 H       1  UNL1        0.0482
     42 H           6.8669    0.0112   -0.7462 H       1  UNL1        0.0482
     43 H           6.6505   -1.7495   -0.9973 H       1  UNL1        0.0482
@<TRIPOS>BOND
     1     1     2    1
     2     2     3   ar
     3     3     4   ar
     4     4     5   ar
     5     5     6    1
     6     6     7    1
     7     7     8   ar
     8     8     9   ar
     9     9    10   ar
    10    10    11   ar
    11    11    12   ar
    12     9    13    1
    13    13    14   ar
    14    14    15   ar
    15    15    16   ar
    16    16    17   ar
    17    17    18   ar
    18     5    19   ar
    19    19    20   ar
    20    20    21    1
    21    21    22    1
    22    22    23    1
    23    22    24    2
    24    22    25    2
    25    20     2   ar
    26    12     7   ar
    27    18    13   ar
    28     1    26    1
    29     1    27    1
    30     1    28    1
    31     3    29    1
    32     4    30    1
    33     6    31    1
    34     8    32    1
    35    11    33    1
    36    14    34    1
    37    15    35    1
    38    16    36    1
    39    17    37    1
    40    18    38    1
    41    19    39    1
    42    21    40    1
    43    23    41    1
    44    23    42    1
    45    23    43    1
