@<TRIPOS>MOLECULE
*****
 65 69 0 0 0
SMALL
GASTEIGER

@<TRIPOS>ATOM
      1 C           6.5152    1.4914    1.6922 C.3     1  UNL1        0.0788
      2 O           5.6050    0.4371    1.5349 O.3     1  UNL1       -0.4950
      3 C           5.0009    0.2148    0.3064 C.ar    1  UNL1        0.1239
      4 C           4.0995   -0.8497    0.1973 C.ar    1  UNL1       -0.0150
      5 C           3.4469   -1.1583   -0.9670 C.ar    1  UNL1       -0.0234
      6 C           2.4749   -2.2656   -1.1357 C.3     1  UNL1        0.0372
      7 N           1.1000   -1.8689   -0.9546 N.am    1  UNL1       -0.3075
      8 C           0.5411   -1.6653    0.3222 C.2     1  UNL1        0.2670
      9 O           1.2806   -1.8368    1.3234 O.2     1  UNL1       -0.2708
     10 C          -0.8618   -1.2599    0.5487 C.3     1  UNL1        0.2687
     11 C          -1.8409   -2.3815    0.2941 C.3     1  UNL1        0.0301
     12 C          -1.8338   -2.9405   -1.0519 C.ar    1  UNL1       -0.0426
     13 C          -2.6045   -2.3828   -2.0419 C.ar    1  UNL1       -0.0584
     14 C          -2.6173   -2.9280   -3.3328 C.ar    1  UNL1       -0.0615
     15 C          -1.8604   -4.0211   -3.6142 C.ar    1  UNL1       -0.0617
     16 C          -1.0837   -4.5870   -2.6249 C.ar    1  UNL1       -0.0615
     17 C          -1.0680   -4.0467   -1.3368 C.ar    1  UNL1       -0.0584
     18 O          -0.9928   -1.0047    1.9638 O.3     1  UNL1       -0.4239
     19 C          -1.7050    0.1420    2.1949 C.2     1  UNL1        0.4114
     20 O          -2.1186    0.4936    3.3527 O.2     1  UNL1       -0.2257
     21 N          -1.8644    0.7965    0.9494 N.am    1  UNL1       -0.1962
     22 C          -2.5600    2.0572    0.7378 C.3     1  UNL1        0.0624
     23 C          -2.0087    3.1697    1.5377 C.3     1  UNL1       -0.0256
     24 C          -3.0122    3.5063    2.5881 C.3     1  UNL1       -0.0254
     25 C          -4.2026    2.7107    2.2542 C.ar    1  UNL1       -0.0423
     26 C          -5.4660    2.7078    2.8497 C.ar    1  UNL1       -0.0583
     27 C          -6.4771    1.8838    2.3984 C.ar    1  UNL1       -0.0615
     28 C          -6.2135    1.0495    1.3312 C.ar    1  UNL1       -0.0614
     29 C          -4.9615    1.0603    0.7500 C.ar    1  UNL1       -0.0565
     30 C          -3.9445    1.8834    1.1975 C.ar    1  UNL1       -0.0233
     31 C          -1.2274    0.0157   -0.0585 C.2     1  UNL1        0.2785
     32 O          -1.0296    0.3863   -1.2492 O.2     1  UNL1       -0.2701
     33 C           3.7346   -0.3402   -2.0584 C.ar    1  UNL1       -0.0150
     34 C           4.6072    0.7150   -2.0114 C.ar    1  UNL1        0.1239
     35 O           4.8651    1.5090   -3.1318 O.3     1  UNL1       -0.4950
     36 C           5.7768    2.5817   -3.0119 C.3     1  UNL1        0.0788
     37 C           5.2446    0.9843   -0.7968 C.ar    1  UNL1        0.0218
     38 H           7.1559    1.2359    2.5628 H       1  UNL1        0.0660
     39 H           6.0245    2.4624    1.9551 H       1  UNL1        0.0660
     40 H           7.1951    1.5773    0.8228 H       1  UNL1        0.0660
     41 H           3.9298   -1.4447    1.0711 H       1  UNL1        0.0657
     42 H           2.7760   -3.0675   -0.4153 H       1  UNL1        0.0512
     43 H           2.6210   -2.7432   -2.1445 H       1  UNL1        0.0512
     44 H           0.4717   -1.7071   -1.7783 H       1  UNL1        0.1492
     45 H          -2.8637   -2.0347    0.6126 H       1  UNL1        0.0362
     46 H          -1.5880   -3.1743    1.0560 H       1  UNL1        0.0362
     47 H          -3.2306   -1.5153   -1.8945 H       1  UNL1        0.0620
     48 H          -3.2182   -2.4979   -4.1154 H       1  UNL1        0.0618
     49 H          -1.8857   -4.4301   -4.6283 H       1  UNL1        0.0618
     50 H          -0.4959   -5.4554   -2.8881 H       1  UNL1        0.0618
     51 H          -0.4323   -4.5462   -0.6110 H       1  UNL1        0.0620
     52 H          -2.5058    2.2843   -0.3592 H       1  UNL1        0.0556
     53 H          -0.9971    2.9521    1.9674 H       1  UNL1        0.0290
     54 H          -1.9347    4.0608    0.8612 H       1  UNL1        0.0290
     55 H          -3.2373    4.6026    2.6292 H       1  UNL1        0.0314
     56 H          -2.5598    3.1795    3.5711 H       1  UNL1        0.0314
     57 H          -5.6857    3.3567    3.6867 H       1  UNL1        0.0620
     58 H          -7.4566    1.8858    2.8649 H       1  UNL1        0.0618
     59 H          -7.0184    0.4083    0.9886 H       1  UNL1        0.0618
     60 H          -4.8002    0.3954   -0.0773 H       1  UNL1        0.0621
     61 H           3.2328   -0.5604   -2.9955 H       1  UNL1        0.0657
     62 H           5.6369    3.2278   -3.9176 H       1  UNL1        0.0660
     63 H           5.3864    3.2151   -2.1635 H       1  UNL1        0.0660
     64 H           6.8097    2.2593   -2.8606 H       1  UNL1        0.0660
     65 H           5.9320    1.8142   -0.7552 H       1  UNL1        0.0691
@<TRIPOS>BOND
     1     1     2    1
     2     2     3    1
     3     3     4   ar
     4     4     5   ar
     5     5     6    1
     6     6     7    1
     7     7     8   am
     8     8     9    2
     9     8    10    1
    10    10    11    1
    11    11    12    1
    12    12    13   ar
    13    13    14   ar
    14    14    15   ar
    15    15    16   ar
    16    16    17   ar
    17    10    18    1
    18    18    19    1
    19    19    20    2
    20    19    21   am
    21    21    22    1
    22    22    23    1
    23    23    24    1
    24    24    25    1
    25    25    26   ar
    26    26    27   ar
    27    27    28   ar
    28    28    29   ar
    29    29    30   ar
    30    21    31   am
    31    31    32    2
    32     5    33   ar
    33    33    34   ar
    34    34    35    1
    35    35    36    1
    36    34    37   ar
    37    37     3   ar
    38    31    10    1
    39    17    12   ar
    40    30    22    1
    41    30    25   ar
    42     1    38    1
    43     1    39    1
    44     1    40    1
    45     4    41    1
    46     6    42    1
    47     6    43    1
    48     7    44    1
    49    11    45    1
    50    11    46    1
    51    13    47    1
    52    14    48    1
    53    15    49    1
    54    16    50    1
    55    17    51    1
    56    22    52    1
    57    23    53    1
    58    23    54    1
    59    24    55    1
    60    24    56    1
    61    26    57    1
    62    27    58    1
    63    28    59    1
    64    29    60    1
    65    33    61    1
    66    36    62    1
    67    36    63    1
    68    36    64    1
    69    37    65    1
