
     RDKit          3D

 76 80  0  0  0  0  0  0  0  0999 V2000
   -4.8607    2.7758    4.1404 C   0  0  0  0  0  0  0  0  0  0  0  0
   -4.6633    1.9597    2.9057 C   0  0  0  0  0  0  0  0  0  0  0  0
   -4.8643    0.5962    2.9169 C   0  0  0  0  0  0  0  0  0  0  0  0
   -4.6866   -0.1822    1.7687 C   0  0  0  0  0  0  0  0  0  0  0  0
   -4.3014    0.3939    0.5786 C   0  0  0  0  0  0  0  0  0  0  0  0
   -4.1094   -0.3544   -0.6311 N   0  0  0  0  0  0  0  0  0  0  0  0
   -4.7190   -0.0519   -1.7791 N   0  0  0  0  0  0  0  0  0  0  0  0
   -4.3834   -0.8842   -2.7564 C   0  0  0  0  0  0  0  0  0  0  0  0
   -4.8274   -0.8937   -4.1753 C   0  0  0  0  0  0  0  0  0  0  0  0
   -5.7634    0.2831   -4.3742 C   0  0  0  0  0  0  0  0  0  0  0  0
   -5.5862   -2.1842   -4.3961 C   0  0  0  0  0  0  0  0  0  0  0  0
   -3.5883   -0.7903   -5.0323 C   0  0  0  0  0  0  0  0  0  0  0  0
   -3.4859   -1.7985   -2.1984 C   0  0  0  0  0  0  0  0  0  0  0  0
   -3.3579   -1.4184   -0.8854 C   0  0  0  0  0  0  0  0  0  0  0  0
   -2.5184   -2.0846    0.0542 N   0  0  0  0  0  0  0  0  0  0  0  0
   -1.1715   -1.6626    0.2299 C   0  0  0  0  0  0  0  0  0  0  0  0
   -0.6759   -0.7026   -0.4172 O   0  0  0  0  0  0  0  0  0  0  0  0
   -0.3192   -2.3142    1.1541 N   0  0  0  0  0  0  0  0  0  0  0  0
    1.0271   -1.9198    1.3670 C   0  0  0  0  0  0  0  0  0  0  0  0
    2.0232   -2.4731    0.6093 C   0  0  0  0  0  0  0  0  0  0  0  0
    3.3463   -2.0677    0.8226 C   0  0  0  0  0  0  0  0  0  0  0  0
    3.7089   -1.1342    1.7602 C   0  0  0  0  0  0  0  0  0  0  0  0
    4.9896   -0.7326    1.9766 O   0  0  0  0  0  0  0  0  0  0  0  0
    6.2192   -0.9858    1.4878 C   0  0  0  0  0  0  0  0  0  0  0  0
    6.5107   -0.6836    0.0386 C   0  0  0  0  0  0  0  0  0  0  0  0
    6.2974    0.6763   -0.2429 N   0  0  0  0  0  0  0  0  0  0  0  0
    4.9863    1.1914   -0.2665 C   0  0  0  0  0  0  0  0  0  0  0  0
    4.7989    2.2762   -1.3243 C   0  0  0  0  0  0  0  0  0  0  0  0
    5.7318    2.0322   -2.3526 O   0  0  0  0  0  0  0  0  0  0  0  0
    6.9834    2.4115   -1.8287 C   0  0  0  0  0  0  0  0  0  0  0  0
    7.3592    1.4791   -0.6941 C   0  0  0  0  0  0  0  0  0  0  0  0
    2.6669   -0.5829    2.5249 C   0  0  0  0  0  0  0  0  0  0  0  0
    3.0011    0.3557    3.4747 C   0  0  0  0  0  0  0  0  0  0  0  0
    2.0149    0.9220    4.2469 C   0  0  0  0  0  0  0  0  0  0  0  0
    0.7054    0.5123    4.0271 C   0  0  0  0  0  0  0  0  0  0  0  0
    0.3500   -0.4246    3.0823 C   0  0  0  0  0  0  0  0  0  0  0  0
    1.3725   -0.9872    2.3082 C   0  0  0  0  0  0  0  0  0  0  0  0
   -4.1031    1.7591    0.5818 C   0  0  0  0  0  0  0  0  0  0  0  0
   -4.2774    2.5292    1.7113 C   0  0  0  0  0  0  0  0  0  0  0  0
   -5.8548    3.2991    4.1320 H   0  0  0  0  0  0  0  0  0  0  0  0
   -4.8082    2.1782    5.0500 H   0  0  0  0  0  0  0  0  0  0  0  0
   -4.1070    3.5990    4.1125 H   0  0  0  0  0  0  0  0  0  0  0  0
   -5.1685    0.1535    3.8623 H   0  0  0  0  0  0  0  0  0  0  0  0
   -4.8508   -1.2506    1.8012 H   0  0  0  0  0  0  0  0  0  0  0  0
   -5.1657    1.2083   -4.2298 H   0  0  0  0  0  0  0  0  0  0  0  0
   -6.2689    0.2457   -5.3516 H   0  0  0  0  0  0  0  0  0  0  0  0
   -6.4967    0.2417   -3.5448 H   0  0  0  0  0  0  0  0  0  0  0  0
   -6.6798   -1.9991   -4.4555 H   0  0  0  0  0  0  0  0  0  0  0  0
   -5.2250   -2.6697   -5.3180 H   0  0  0  0  0  0  0  0  0  0  0  0
   -5.4604   -2.8902   -3.5387 H   0  0  0  0  0  0  0  0  0  0  0  0
   -2.7086   -1.2395   -4.5300 H   0  0  0  0  0  0  0  0  0  0  0  0
   -3.3389    0.2960   -5.1478 H   0  0  0  0  0  0  0  0  0  0  0  0
   -3.7135   -1.2868   -6.0139 H   0  0  0  0  0  0  0  0  0  0  0  0
   -3.0260   -2.6136   -2.7520 H   0  0  0  0  0  0  0  0  0  0  0  0
   -2.9344   -2.8773    0.5869 H   0  0  0  0  0  0  0  0  0  0  0  0
   -0.7279   -3.1249    1.6952 H   0  0  0  0  0  0  0  0  0  0  0  0
    1.8044   -3.2153   -0.1474 H   0  0  0  0  0  0  0  0  0  0  0  0
    4.0772   -2.5587    0.1910 H   0  0  0  0  0  0  0  0  0  0  0  0
    6.9805   -0.4615    2.1505 H   0  0  0  0  0  0  0  0  0  0  0  0
    6.5257   -2.0744    1.6341 H   0  0  0  0  0  0  0  0  0  0  0  0
    7.5665   -1.0111   -0.1975 H   0  0  0  0  0  0  0  0  0  0  0  0
    5.8469   -1.3030   -0.5936 H   0  0  0  0  0  0  0  0  0  0  0  0
    4.2919    0.3672   -0.6012 H   0  0  0  0  0  0  0  0  0  0  0  0
    4.6303    1.5103    0.7200 H   0  0  0  0  0  0  0  0  0  0  0  0
    3.7722    2.2627   -1.7406 H   0  0  0  0  0  0  0  0  0  0  0  0
    5.0175    3.2395   -0.8305 H   0  0  0  0  0  0  0  0  0  0  0  0
    7.7516    2.3891   -2.6191 H   0  0  0  0  0  0  0  0  0  0  0  0
    6.8567    3.4311   -1.4433 H   0  0  0  0  0  0  0  0  0  0  0  0
    7.7123    2.1016    0.1718 H   0  0  0  0  0  0  0  0  0  0  0  0
    8.2309    0.8631   -0.9910 H   0  0  0  0  0  0  0  0  0  0  0  0
    4.0194    0.6387    3.6072 H   0  0  0  0  0  0  0  0  0  0  0  0
    2.2531    1.6716    5.0101 H   0  0  0  0  0  0  0  0  0  0  0  0
   -0.0435    0.9649    4.6400 H   0  0  0  0  0  0  0  0  0  0  0  0
   -0.6677   -0.7419    2.9121 H   0  0  0  0  0  0  0  0  0  0  0  0
   -3.8004    2.2119   -0.3571 H   0  0  0  0  0  0  0  0  0  0  0  0
   -4.1201    3.6043    1.7125 H   0  0  0  0  0  0  0  0  0  0  0  0
  1  2  1  0
  2  3  2  0
  3  4  1  0
  4  5  2  0
  5  6  1  0
  6  7  1  0
  7  8  2  0
  8  9  1  0
  9 10  1  0
  9 11  1  0
  9 12  1  0
  8 13  1  0
 13 14  2  0
 14 15  1  0
 15 16  1  0
 16 17  2  0
 16 18  1  0
 18 19  1  0
 19 20  2  0
 20 21  1  0
 21 22  2  0
 22 23  1  0
 23 24  1  0
 24 25  1  0
 25 26  1  0
 26 27  1  0
 27 28  1  0
 28 29  1  0
 29 30  1  0
 30 31  1  0
 22 32  1  0
 32 33  2  0
 33 34  1  0
 34 35  2  0
 35 36  1  0
 36 37  2  0
  5 38  1  0
 38 39  2  0
 39  2  1  0
 14  6  1  0
 37 19  1  0
 31 26  1  0
 37 32  1  0
  1 40  1  0
  1 41  1  0
  1 42  1  0
  3 43  1  0
  4 44  1  0
 10 45  1  0
 10 46  1  0
 10 47  1  0
 11 48  1  0
 11 49  1  0
 11 50  1  0
 12 51  1  0
 12 52  1  0
 12 53  1  0
 13 54  1  0
 15 55  1  0
 18 56  1  0
 20 57  1  0
 21 58  1  0
 24 59  1  0
 24 60  1  0
 25 61  1  0
 25 62  1  0
 27 63  1  0
 27 64  1  0
 28 65  1  0
 28 66  1  0
 30 67  1  0
 30 68  1  0
 31 69  1  0
 31 70  1  0
 33 71  1  0
 34 72  1  0
 35 73  1  0
 36 74  1  0
 38 75  1  0
 39 76  1  0
M  END
$$$$
