@<TRIPOS>MOLECULE
*****
 76 80 0 0 0
SMALL
GASTEIGER

@<TRIPOS>ATOM
      1 C          -4.8607    2.7758    4.1404 C.3     1  UNL1       -0.0397
      2 C          -4.6633    1.9597    2.9057 C.ar    1  UNL1       -0.0503
      3 C          -4.8643    0.5962    2.9169 C.ar    1  UNL1       -0.0568
      4 C          -4.6866   -0.1822    1.7687 C.ar    1  UNL1       -0.0359
      5 C          -4.3014    0.3939    0.5786 C.ar    1  UNL1        0.0674
      6 N          -4.1094   -0.3544   -0.6311 N.ar    1  UNL1       -0.2181
      7 N          -4.7190   -0.0519   -1.7791 N.ar    1  UNL1       -0.1691
      8 C          -4.3834   -0.8842   -2.7564 C.ar    1  UNL1        0.0706
      9 C          -4.8274   -0.8937   -4.1753 C.3     1  UNL1        0.0063
     10 C          -5.7634    0.2831   -4.3742 C.3     1  UNL1       -0.0546
     11 C          -5.5862   -2.1842   -4.3961 C.3     1  UNL1       -0.0546
     12 C          -3.5883   -0.7903   -5.0323 C.3     1  UNL1       -0.0546
     13 C          -3.4859   -1.7985   -2.1984 C.ar    1  UNL1        0.0021
     14 C          -3.3579   -1.4184   -0.8854 C.ar    1  UNL1        0.1299
     15 N          -2.5184   -2.0846    0.0542 N.am    1  UNL1       -0.2538
     16 C          -1.1715   -1.6626    0.2299 C.2     1  UNL1        0.3092
     17 O          -0.6759   -0.7026   -0.4172 O.2     1  UNL1       -0.2521
     18 N          -0.3192   -2.3142    1.1541 N.am    1  UNL1       -0.2686
     19 C           1.0271   -1.9198    1.3670 C.ar    1  UNL1        0.0427
     20 C           2.0232   -2.4731    0.6093 C.ar    1  UNL1       -0.0364
     21 C           3.3463   -2.0677    0.8226 C.ar    1  UNL1       -0.0176
     22 C           3.7089   -1.1342    1.7602 C.ar    1  UNL1        0.1283
     23 O           4.9896   -0.7326    1.9766 O.3     1  UNL1       -0.4901
     24 C           6.2192   -0.9858    1.4878 C.3     1  UNL1        0.1023
     25 C           6.5107   -0.6836    0.0386 C.3     1  UNL1        0.0333
     26 N           6.2974    0.6763   -0.2429 N.3     1  UNL1       -0.2948
     27 C           4.9863    1.1914   -0.2665 C.3     1  UNL1        0.0225
     28 C           4.7989    2.2762   -1.3243 C.3     1  UNL1        0.0604
     29 O           5.7318    2.0322   -2.3526 O.3     1  UNL1       -0.3772
     30 C           6.9834    2.4115   -1.8287 C.3     1  UNL1        0.0604
     31 C           7.3592    1.4791   -0.6941 C.3     1  UNL1        0.0225
     32 C           2.6669   -0.5829    2.5249 C.ar    1  UNL1        0.0256
     33 C           3.0011    0.3557    3.4747 C.ar    1  UNL1       -0.0505
     34 C           2.0149    0.9220    4.2469 C.ar    1  UNL1       -0.0611
     35 C           0.7054    0.5123    4.0271 C.ar    1  UNL1       -0.0611
     36 C           0.3500   -0.4246    3.0823 C.ar    1  UNL1       -0.0521
     37 C           1.3725   -0.9872    2.3082 C.ar    1  UNL1        0.0069
     38 C          -4.1031    1.7591    0.5818 C.ar    1  UNL1       -0.0359
     39 C          -4.2774    2.5292    1.7113 C.ar    1  UNL1       -0.0568
     40 H          -5.8548    3.2991    4.1320 H       1  UNL1        0.0278
     41 H          -4.8082    2.1782    5.0500 H       1  UNL1        0.0278
     42 H          -4.1070    3.5990    4.1125 H       1  UNL1        0.0278
     43 H          -5.1685    0.1535    3.8623 H       1  UNL1        0.0621
     44 H          -4.8508   -1.2506    1.8012 H       1  UNL1        0.0639
     45 H          -5.1657    1.2083   -4.2298 H       1  UNL1        0.0239
     46 H          -6.2689    0.2457   -5.3516 H       1  UNL1        0.0239
     47 H          -6.4967    0.2417   -3.5448 H       1  UNL1        0.0239
     48 H          -6.6798   -1.9991   -4.4555 H       1  UNL1        0.0239
     49 H          -5.2250   -2.6697   -5.3180 H       1  UNL1        0.0239
     50 H          -5.4604   -2.8902   -3.5387 H       1  UNL1        0.0239
     51 H          -2.7086   -1.2395   -4.5300 H       1  UNL1        0.0239
     52 H          -3.3389    0.2960   -5.1478 H       1  UNL1        0.0239
     53 H          -3.7135   -1.2868   -6.0139 H       1  UNL1        0.0239
     54 H          -3.0260   -2.6136   -2.7520 H       1  UNL1        0.0671
     55 H          -2.9344   -2.8773    0.5869 H       1  UNL1        0.1578
     56 H          -0.7279   -3.1249    1.6952 H       1  UNL1        0.1564
     57 H           1.8044   -3.2153   -0.1474 H       1  UNL1        0.0637
     58 H           4.0772   -2.5587    0.1910 H       1  UNL1        0.0655
     59 H           6.9805   -0.4615    2.1505 H       1  UNL1        0.0709
     60 H           6.5257   -2.0744    1.6341 H       1  UNL1        0.0709
     61 H           7.5665   -1.0111   -0.1975 H       1  UNL1        0.0460
     62 H           5.8469   -1.3030   -0.5936 H       1  UNL1        0.0460
     63 H           4.2919    0.3672   -0.6012 H       1  UNL1        0.0449
     64 H           4.6303    1.5103    0.7200 H       1  UNL1        0.0449
     65 H           3.7722    2.2627   -1.7406 H       1  UNL1        0.0572
     66 H           5.0175    3.2395   -0.8305 H       1  UNL1        0.0572
     67 H           7.7516    2.3891   -2.6191 H       1  UNL1        0.0572
     68 H           6.8567    3.4311   -1.4433 H       1  UNL1        0.0572
     69 H           7.7123    2.1016    0.1718 H       1  UNL1        0.0449
     70 H           8.2309    0.8631   -0.9910 H       1  UNL1        0.0449
     71 H           4.0194    0.6387    3.6072 H       1  UNL1        0.0625
     72 H           2.2531    1.6716    5.0101 H       1  UNL1        0.0618
     73 H          -0.0435    0.9649    4.6400 H       1  UNL1        0.0618
     74 H          -0.6677   -0.7419    2.9121 H       1  UNL1        0.0624
     75 H          -3.8004    2.2119   -0.3571 H       1  UNL1        0.0639
     76 H          -4.1201    3.6043    1.7125 H       1  UNL1        0.0621
@<TRIPOS>BOND
     1     1     2    1
     2     2     3   ar
     3     3     4   ar
     4     4     5   ar
     5     5     6    1
     6     6     7   ar
     7     7     8   ar
     8     8     9    1
     9     9    10    1
    10     9    11    1
    11     9    12    1
    12     8    13   ar
    13    13    14   ar
    14    14    15    1
    15    15    16   am
    16    16    17    2
    17    16    18   am
    18    18    19    1
    19    19    20   ar
    20    20    21   ar
    21    21    22   ar
    22    22    23    1
    23    23    24    1
    24    24    25    1
    25    25    26    1
    26    26    27    1
    27    27    28    1
    28    28    29    1
    29    29    30    1
    30    30    31    1
    31    22    32   ar
    32    32    33   ar
    33    33    34   ar
    34    34    35   ar
    35    35    36   ar
    36    36    37   ar
    37     5    38   ar
    38    38    39   ar
    39    39     2   ar
    40    14     6   ar
    41    37    19   ar
    42    31    26    1
    43    37    32   ar
    44     1    40    1
    45     1    41    1
    46     1    42    1
    47     3    43    1
    48     4    44    1
    49    10    45    1
    50    10    46    1
    51    10    47    1
    52    11    48    1
    53    11    49    1
    54    11    50    1
    55    12    51    1
    56    12    52    1
    57    12    53    1
    58    13    54    1
    59    15    55    1
    60    18    56    1
    61    20    57    1
    62    21    58    1
    63    24    59    1
    64    24    60    1
    65    25    61    1
    66    25    62    1
    67    27    63    1
    68    27    64    1
    69    28    65    1
    70    28    66    1
    71    30    67    1
    72    30    68    1
    73    31    69    1
    74    31    70    1
    75    33    71    1
    76    34    72    1
    77    35    73    1
    78    36    74    1
    79    38    75    1
    80    39    76    1
