@<TRIPOS>MOLECULE
*****
 81 84 0 0 0
SMALL
GASTEIGER

@<TRIPOS>ATOM
      1 C          -7.5682    2.1937   -1.0756 C.3     1  UNL1       -0.0307
      2 C          -6.9944    3.4183   -0.4287 C.3     1  UNL1        0.0868
      3 O          -5.6058    3.5444   -0.5324 O.3     1  UNL1       -0.4922
      4 C          -4.7599    2.6050    0.0139 C.ar    1  UNL1        0.1205
      5 C          -3.3758    2.7823   -0.1333 C.ar    1  UNL1       -0.0197
      6 C          -2.5349    1.8474    0.4120 C.ar    1  UNL1       -0.0550
      7 C          -3.0313    0.7593    1.0885 C.ar    1  UNL1       -0.0449
      8 C          -2.1201   -0.2717    1.6995 C.3     1  UNL1       -0.0006
      9 C          -1.7770   -1.3739    0.7498 C.3     1  UNL1        0.1036
     10 N          -2.9879   -2.0476    0.3138 N.am    1  UNL1       -0.2997
     11 C          -3.2650   -3.4014    0.6353 C.2     1  UNL1        0.2447
     12 O          -2.3890   -3.9939    1.3296 O.2     1  UNL1       -0.2702
     13 C          -4.4745   -4.0830    0.2025 C.ar    1  UNL1        0.0367
     14 C          -5.4502   -3.5045   -0.5609 C.ar    1  UNL1       -0.0496
     15 C          -6.5967   -4.2035   -0.9508 C.ar    1  UNL1       -0.0610
     16 C          -6.7821   -5.5147   -0.5733 C.ar    1  UNL1       -0.0617
     17 C          -5.7996   -6.1082    0.1993 C.ar    1  UNL1       -0.0610
     18 C          -4.6699   -5.4062    0.5787 C.ar    1  UNL1       -0.0496
     19 C          -0.9981   -0.8315   -0.3850 C.2     1  UNL1        0.2343
     20 O          -1.4399   -0.9509   -1.5593 O.2     1  UNL1       -0.2738
     21 N           0.2581   -0.1664   -0.2074 N.am    1  UNL1       -0.3022
     22 C           1.0072    0.3563   -1.3277 C.3     1  UNL1        0.1033
     23 C           1.3441    1.8152   -1.1599 C.3     1  UNL1       -0.0007
     24 C           2.1639    2.1003    0.0386 C.ar    1  UNL1       -0.0451
     25 C           1.6475    2.3768    1.2830 C.ar    1  UNL1       -0.0585
     26 C           2.4347    2.6424    2.3880 C.ar    1  UNL1       -0.0615
     27 C           3.7879    2.6307    2.2423 C.ar    1  UNL1       -0.0617
     28 C           4.3332    2.3547    0.9976 C.ar    1  UNL1       -0.0615
     29 C           3.5341    2.0923   -0.0937 C.ar    1  UNL1       -0.0585
     30 C           2.2386   -0.4724   -1.4807 C.2     1  UNL1        0.2339
     31 O           2.4725   -1.3643   -0.6354 O.2     1  UNL1       -0.2738
     32 N           3.1002   -0.2184   -2.5811 N.am    1  UNL1       -0.3097
     33 C           4.3151   -0.9728   -2.7840 C.3     1  UNL1        0.0369
     34 C           5.4174   -0.5072   -1.9144 C.ar    1  UNL1       -0.0303
     35 C           6.2368    0.5282   -2.3702 C.ar    1  UNL1       -0.0568
     36 C           7.2806    1.0172   -1.6188 C.ar    1  UNL1       -0.0570
     37 C           7.5687    0.5063   -0.3745 C.ar    1  UNL1       -0.0338
     38 C           8.7088    1.0465    0.4446 C.3     1  UNL1        0.0185
     39 N           9.9362    0.3263    0.1695 N.3     1  UNL1       -0.3261
     40 C           6.7720   -0.5157    0.0917 C.ar    1  UNL1       -0.0570
     41 C           5.7098   -1.0135   -0.6733 C.ar    1  UNL1       -0.0568
     42 C          -4.3859    0.5822    1.2348 C.ar    1  UNL1       -0.0550
     43 C          -5.2554    1.5155    0.6916 C.ar    1  UNL1       -0.0197
     44 H          -8.1836    2.5420   -1.9572 H       1  UNL1        0.0262
     45 H          -8.3109    1.6644   -0.4348 H       1  UNL1        0.0262
     46 H          -6.7933    1.4963   -1.4892 H       1  UNL1        0.0262
     47 H          -7.2931    3.3540    0.6610 H       1  UNL1        0.0694
     48 H          -7.5108    4.3433   -0.7846 H       1  UNL1        0.0694
     49 H          -3.0572    3.6532   -0.6733 H       1  UNL1        0.0654
     50 H          -1.4726    1.9606    0.3128 H       1  UNL1        0.0621
     51 H          -2.5650   -0.5959    2.6382 H       1  UNL1        0.0336
     52 H          -1.1541    0.2631    1.9297 H       1  UNL1        0.0336
     53 H          -1.1911   -2.1214    1.3251 H       1  UNL1        0.0598
     54 H          -3.6835   -1.5276   -0.2557 H       1  UNL1        0.1498
     55 H          -5.3340   -2.4786   -0.8735 H       1  UNL1        0.0625
     56 H          -7.3720   -3.7424   -1.5581 H       1  UNL1        0.0618
     57 H          -7.6667   -6.0681   -0.8695 H       1  UNL1        0.0618
     58 H          -5.9541   -7.1259    0.4861 H       1  UNL1        0.0618
     59 H          -3.8948   -5.8589    1.1828 H       1  UNL1        0.0625
     60 H           0.5828   -0.0922    0.7835 H       1  UNL1        0.1495
     61 H           0.4352    0.2192   -2.2529 H       1  UNL1        0.0598
     62 H           0.4024    2.3810   -1.0738 H       1  UNL1        0.0336
     63 H           1.9134    2.1210   -2.0640 H       1  UNL1        0.0336
     64 H           0.5849    2.3891    1.4077 H       1  UNL1        0.0620
     65 H           1.9457    2.8506    3.3326 H       1  UNL1        0.0618
     66 H           4.4221    2.8381    3.1057 H       1  UNL1        0.0618
     67 H           5.4201    2.3548    0.9220 H       1  UNL1        0.0618
     68 H           4.0326    1.8876   -1.0342 H       1  UNL1        0.0620
     69 H           2.7931    0.5485   -3.2281 H       1  UNL1        0.1491
     70 H           4.5685   -0.8926   -3.8649 H       1  UNL1        0.0512
     71 H           4.1030   -2.0706   -2.6154 H       1  UNL1        0.0512
     72 H           6.0105    0.9398   -3.3631 H       1  UNL1        0.0621
     73 H           7.9109    1.8221   -1.9842 H       1  UNL1        0.0621
     74 H           8.4995    0.9910    1.5151 H       1  UNL1        0.0471
     75 H           8.8461    2.0948    0.1003 H       1  UNL1        0.0471
     76 H          10.0895   -0.3430    0.9535 H       1  UNL1        0.1185
     77 H           9.8846   -0.2401   -0.7060 H       1  UNL1        0.1185
     78 H           6.9924   -0.9229    1.0696 H       1  UNL1        0.0621
     79 H           5.1195   -1.8091   -0.2790 H       1  UNL1        0.0621
     80 H          -4.7994   -0.2846    1.7746 H       1  UNL1        0.0621
     81 H          -6.3269    1.3396    0.8389 H       1  UNL1        0.0654
@<TRIPOS>BOND
     1     1     2    1
     2     2     3    1
     3     3     4    1
     4     4     5   ar
     5     5     6   ar
     6     6     7   ar
     7     7     8    1
     8     8     9    1
     9     9    10    1
    10    10    11   am
    11    11    12    2
    12    11    13    1
    13    13    14   ar
    14    14    15   ar
    15    15    16   ar
    16    16    17   ar
    17    17    18   ar
    18     9    19    1
    19    19    20    2
    20    19    21   am
    21    21    22    1
    22    22    23    1
    23    23    24    1
    24    24    25   ar
    25    25    26   ar
    26    26    27   ar
    27    27    28   ar
    28    28    29   ar
    29    22    30    1
    30    30    31    2
    31    30    32   am
    32    32    33    1
    33    33    34    1
    34    34    35   ar
    35    35    36   ar
    36    36    37   ar
    37    37    38    1
    38    38    39    1
    39    37    40   ar
    40    40    41   ar
    41     7    42   ar
    42    42    43   ar
    43    43     4   ar
    44    18    13   ar
    45    29    24   ar
    46    41    34   ar
    47     1    44    1
    48     1    45    1
    49     1    46    1
    50     2    47    1
    51     2    48    1
    52     5    49    1
    53     6    50    1
    54     8    51    1
    55     8    52    1
    56     9    53    1
    57    10    54    1
    58    14    55    1
    59    15    56    1
    60    16    57    1
    61    17    58    1
    62    18    59    1
    63    21    60    1
    64    22    61    1
    65    23    62    1
    66    23    63    1
    67    25    64    1
    68    26    65    1
    69    27    66    1
    70    28    67    1
    71    29    68    1
    72    32    69    1
    73    33    70    1
    74    33    71    1
    75    35    72    1
    76    36    73    1
    77    38    74    1
    78    38    75    1
    79    39    76    1
    80    39    77    1
    81    40    78    1
    82    41    79    1
    83    42    80    1
    84    43    81    1
