@<TRIPOS>MOLECULE
*****
 33 36 0 0 0
SMALL
GASTEIGER

@<TRIPOS>ATOM
      1 O           0.1629   -3.9113    0.9663 O.2     1  UNL1       -0.2870
      2 C           0.1301   -2.6890    0.6756 C.ar    1  UNL1        0.1931
      3 C           1.2925   -1.9103    0.7555 C.ar    1  UNL1        0.0287
      4 C           1.3302   -0.5780    0.4552 C.ar    1  UNL1        0.1392
      5 C           2.5182    0.2477    0.5299 C.ar    1  UNL1        0.0174
      6 C           3.7183   -0.2703    0.9188 C.ar    1  UNL1       -0.0511
      7 C           4.8640    0.5475    0.9858 C.ar    1  UNL1       -0.0611
      8 C           4.7870    1.8812    0.6595 C.ar    1  UNL1       -0.0617
      9 C           3.5653    2.3779    0.2707 C.ar    1  UNL1       -0.0611
     10 C           2.4416    1.5805    0.2038 C.ar    1  UNL1       -0.0511
     11 O           0.1695   -0.0357    0.0695 O.2     1  UNL1       -0.4539
     12 C          -0.9371   -0.7010   -0.0242 C.ar    1  UNL1        0.1498
     13 C          -2.0908   -0.0369   -0.4365 C.ar    1  UNL1        0.0594
     14 C          -3.2853   -0.7157   -0.5467 C.ar    1  UNL1        0.1316
     15 C          -3.3579   -2.0814   -0.2465 C.ar    1  UNL1       -0.0184
     16 C          -2.2155   -2.7363    0.1612 C.ar    1  UNL1       -0.0439
     17 C          -1.0184   -2.0600    0.2726 C.ar    1  UNL1        0.0648
     18 O          -4.3736   -0.0031   -0.9557 O.3     1  UNL1       -0.4872
     19 C          -4.4355    1.3448   -1.2818 C.3     1  UNL1        0.1081
     20 C          -3.1391    2.0253   -1.1492 C.2     1  UNL1       -0.0463
     21 C          -2.0668    1.3768   -0.7588 C.2     1  UNL1       -0.0483
     22 H           2.1878   -2.4132    1.0726 H       1  UNL1        0.0693
     23 H           3.8282   -1.3203    1.1868 H       1  UNL1        0.0625
     24 H           5.7856    0.0902    1.2983 H       1  UNL1        0.0618
     25 H           5.6914    2.4796    0.7233 H       1  UNL1        0.0618
     26 H           3.5321    3.4452    0.0159 H       1  UNL1        0.0618
     27 H           1.5110    2.0516   -0.1138 H       1  UNL1        0.0625
     28 H          -4.2797   -2.6060   -0.3313 H       1  UNL1        0.0654
     29 H          -2.2241   -3.7890    0.4033 H       1  UNL1        0.0627
     30 H          -4.7247    1.4765   -2.3711 H       1  UNL1        0.0742
     31 H          -5.2067    1.8875   -0.6766 H       1  UNL1        0.0742
     32 H          -3.0473    3.1098   -1.3800 H       1  UNL1        0.0606
     33 H          -1.1132    1.9352   -0.6746 H       1  UNL1        0.0624
@<TRIPOS>BOND
     1     1     2    2
     2     2     3   ar
     3     3     4   ar
     4     4     5    1
     5     5     6   ar
     6     6     7   ar
     7     7     8   ar
     8     8     9   ar
     9     9    10   ar
    10     4    11   ar
    11    11    12   ar
    12    12    13   ar
    13    13    14   ar
    14    14    15   ar
    15    15    16   ar
    16    16    17   ar
    17    14    18    1
    18    18    19    1
    19    19    20    1
    20    20    21    2
    21    17     2   ar
    22    10     5   ar
    23    17    12   ar
    24    21    13    1
    25     3    22    1
    26     6    23    1
    27     7    24    1
    28     8    25    1
    29     9    26    1
    30    10    27    1
    31    15    28    1
    32    16    29    1
    33    19    30    1
    34    19    31    1
    35    20    32    1
    36    21    33    1
