@<TRIPOS>MOLECULE
*****
 57 60 0 0 0
SMALL
GASTEIGER

@<TRIPOS>ATOM
      1 C          -4.8795    1.9046    0.8504 C.3     1  UNL1       -0.0558
      2 C          -4.1146    0.6060    0.9406 C.3     1  UNL1       -0.0096
      3 C          -3.8061    0.3519    2.4164 C.3     1  UNL1       -0.0558
      4 C          -4.9413   -0.5767    0.4834 C.3     1  UNL1       -0.0431
      5 C          -4.7656   -0.7931   -0.9940 C.3     1  UNL1       -0.0431
      6 C          -3.3409   -1.0969   -1.3832 C.3     1  UNL1       -0.0095
      7 C          -3.2645   -1.0135   -2.8929 C.3     1  UNL1       -0.0558
      8 C          -2.9561   -2.5104   -1.0015 C.3     1  UNL1       -0.0558
      9 C          -2.3889   -0.0902   -0.8417 C.ar    1  UNL1       -0.0377
     10 C          -2.8050    0.6735    0.2413 C.ar    1  UNL1       -0.0380
     11 C          -1.9476    1.6273    0.7806 C.ar    1  UNL1       -0.0574
     12 C          -0.6803    1.8195    0.2429 C.ar    1  UNL1       -0.0555
     13 C          -0.2645    1.0569   -0.8386 C.ar    1  UNL1       -0.0145
     14 C          -1.1457    0.1216   -1.3436 C.ar    1  UNL1       -0.0518
     15 C           1.0739    1.2414   -1.4267 C.3     1  UNL1        0.1052
     16 O           1.3757    2.6001   -1.5896 O.3     1  UNL1       -0.3825
     17 C           2.1544    0.6706   -0.5762 C.ar    1  UNL1       -0.0142
     18 C           3.4511    1.0413   -0.9137 C.ar    1  UNL1       -0.0481
     19 C           4.5468    0.5783   -0.2003 C.ar    1  UNL1       -0.0175
     20 C           4.3738   -0.2796    0.8845 C.ar    1  UNL1       -0.0171
     21 C           3.0797   -0.6228    1.1869 C.ar    1  UNL1       -0.0537
     22 C           1.9669   -0.1781    0.4952 C.ar    1  UNL1       -0.0552
     23 C           5.4276   -0.7739    1.6337 C.ar    1  UNL1       -0.0400
     24 C           6.6884   -0.3634    1.2412 C.ar    1  UNL1        0.0594
     25 C           6.9257    0.4831    0.1780 C.ar    1  UNL1       -0.0472
     26 C           5.8323    0.9494   -0.5393 C.ar    1  UNL1       -0.0532
     27 C           7.8163   -0.8727    2.0176 C.2     1  UNL1        0.3368
     28 O           9.1297   -0.4994    1.6787 O.3     1  UNL1       -0.4771
     29 O           7.6818   -1.6347    2.9832 O.2     1  UNL1       -0.2451
     30 H          -4.9081    2.3052   -0.1812 H       1  UNL1        0.0238
     31 H          -4.3790    2.6357    1.5361 H       1  UNL1        0.0238
     32 H          -5.9128    1.6957    1.2098 H       1  UNL1        0.0238
     33 H          -3.4533    1.2964    2.8623 H       1  UNL1        0.0238
     34 H          -4.7306   -0.0534    2.8628 H       1  UNL1        0.0238
     35 H          -3.0212   -0.4485    2.4166 H       1  UNL1        0.0238
     36 H          -5.9984   -0.3181    0.6479 H       1  UNL1        0.0274
     37 H          -4.7044   -1.4998    1.0314 H       1  UNL1        0.0274
     38 H          -5.1809    0.0463   -1.5753 H       1  UNL1        0.0274
     39 H          -5.3609   -1.7115   -1.2722 H       1  UNL1        0.0274
     40 H          -2.9958    0.0262   -3.1675 H       1  UNL1        0.0238
     41 H          -4.2150   -1.3220   -3.3732 H       1  UNL1        0.0238
     42 H          -2.4126   -1.6622   -3.2024 H       1  UNL1        0.0238
     43 H          -3.6361   -3.1744   -1.5535 H       1  UNL1        0.0238
     44 H          -1.9169   -2.6587   -1.4042 H       1  UNL1        0.0238
     45 H          -2.9958   -2.7001    0.0808 H       1  UNL1        0.0238
     46 H          -2.1544    2.2817    1.6202 H       1  UNL1        0.0621
     47 H           0.0376    2.5505    0.6204 H       1  UNL1        0.0621
     48 H          -0.8739   -0.5100   -2.1965 H       1  UNL1        0.0624
     49 H           1.1382    0.7719   -2.4209 H       1  UNL1        0.0694
     50 H           0.8147    2.9125   -2.3525 H       1  UNL1        0.2107
     51 H           3.6864    1.7068   -1.7443 H       1  UNL1        0.0627
     52 H           2.8515   -1.2800    2.0076 H       1  UNL1        0.0624
     53 H           0.9526   -0.4399    0.7228 H       1  UNL1        0.0621
     54 H           5.2654   -1.4388    2.4714 H       1  UNL1        0.0632
     55 H           7.9279    0.7830   -0.0999 H       1  UNL1        0.0626
     56 H           6.0105    1.6209   -1.3839 H       1  UNL1        0.0624
     57 H           9.9413   -0.8975    2.1241 H       1  UNL1        0.2954
@<TRIPOS>BOND
     1     1     2    1
     2     2     3    1
     3     2     4    1
     4     4     5    1
     5     5     6    1
     6     6     7    1
     7     6     8    1
     8     6     9    1
     9     9    10   ar
    10    10    11   ar
    11    11    12   ar
    12    12    13   ar
    13    13    14   ar
    14    13    15    1
    15    15    16    1
    16    15    17    1
    17    17    18   ar
    18    18    19   ar
    19    19    20   ar
    20    20    21   ar
    21    21    22   ar
    22    20    23   ar
    23    23    24   ar
    24    24    25   ar
    25    25    26   ar
    26    24    27    1
    27    27    28    1
    28    27    29    2
    29    10     2    1
    30    22    17   ar
    31    14     9   ar
    32    26    19   ar
    33     1    30    1
    34     1    31    1
    35     1    32    1
    36     3    33    1
    37     3    34    1
    38     3    35    1
    39     4    36    1
    40     4    37    1
    41     5    38    1
    42     5    39    1
    43     7    40    1
    44     7    41    1
    45     7    42    1
    46     8    43    1
    47     8    44    1
    48     8    45    1
    49    11    46    1
    50    12    47    1
    51    14    48    1
    52    15    49    1
    53    16    50    1
    54    18    51    1
    55    21    52    1
    56    22    53    1
    57    23    54    1
    58    25    55    1
    59    26    56    1
    60    28    57    1
