@<TRIPOS>MOLECULE
*****
 37 40 0 0 0
SMALL
GASTEIGER

@<TRIPOS>ATOM
      1 O           1.4429    0.2630   -1.7690 O.2     1  UNL1       -0.2697
      2 C           1.2463   -0.2729   -0.6674 C.2     1  UNL1        0.2530
      3 N           2.2947   -0.2000    0.3103 N.am    1  UNL1       -0.2663
      4 C           3.5462    0.3747    0.1753 C.ar    1  UNL1        0.1253
      5 C           3.7486    1.7210    0.2119 C.ar    1  UNL1       -0.0188
      6 C           5.0216    2.2245    0.1480 C.ar    1  UNL1       -0.0217
      7 C           6.0969    1.3643    0.0461 C.ar    1  UNL1        0.1415
      8 F           7.3539    1.8687   -0.0069 F       1  UNL1       -0.2039
      9 C           5.8442   -0.0019    0.0115 C.ar    1  UNL1        0.0649
     10 N           4.6039   -0.4657    0.0743 N.ar    1  UNL1       -0.2373
     11 C           0.0421   -0.9820   -0.2628 C.ar    1  UNL1        0.0847
     12 C          -1.1285   -0.3575    0.0556 C.ar    1  UNL1       -0.0021
     13 C          -2.2482   -1.0895    0.4601 C.ar    1  UNL1        0.1474
     14 O          -3.4430   -0.5070    0.7817 O.3     1  UNL1       -0.4529
     15 C          -4.0158    0.6119    0.2503 C.ar    1  UNL1        0.1492
     16 C          -4.7144    0.4578   -0.9678 C.ar    1  UNL1        0.0700
     17 N          -5.3144    1.4920   -1.5736 N.ar    1  UNL1       -0.2568
     18 C          -5.2915    2.7309   -1.0664 C.ar    1  UNL1        0.0630
     19 C          -4.6211    2.9309    0.1225 C.ar    1  UNL1        0.1449
     20 F          -4.5854    4.1730    0.6545 F       1  UNL1       -0.2038
     21 C          -4.0002    1.8750    0.7544 C.ar    1  UNL1        0.0189
     22 C          -2.1313   -2.4958    0.5286 C.ar    1  UNL1        0.0737
     23 N          -0.9724   -3.0937    0.2118 N.ar    1  UNL1       -0.2161
     24 N          -0.5801   -4.3630    0.1815 N.ar    1  UNL1       -0.1534
     25 C           0.6899   -4.4815   -0.2073 C.ar    1  UNL1        0.1390
     26 N           1.1186   -3.2059   -0.4346 N.ar    1  UNL1       -0.2141
     27 C           0.0906   -2.3758   -0.1735 C.ar    1  UNL1        0.1680
     28 H           2.0795   -0.6590    1.2552 H       1  UNL1        0.1566
     29 H           2.8857    2.3910    0.2846 H       1  UNL1        0.0653
     30 H           5.1799    3.3133    0.1750 H       1  UNL1        0.0648
     31 H           6.7096   -0.6508   -0.0630 H       1  UNL1        0.0859
     32 H          -1.2324    0.7226    0.0186 H       1  UNL1        0.0663
     33 H          -4.7531   -0.5245   -1.3996 H       1  UNL1        0.0867
     34 H          -5.8017    3.5311   -1.6004 H       1  UNL1        0.0859
     35 H          -3.4937    2.0526    1.6792 H       1  UNL1        0.0684
     36 H          -3.0110   -3.0360    0.8398 H       1  UNL1        0.0868
     37 H           1.3430   -5.3358   -0.3515 H       1  UNL1        0.1066
@<TRIPOS>BOND
     1     1     2    2
     2     2     3   am
     3     3     4    1
     4     4     5   ar
     5     5     6   ar
     6     6     7   ar
     7     7     8    1
     8     7     9   ar
     9     9    10   ar
    10     2    11    1
    11    11    12   ar
    12    12    13   ar
    13    13    14    1
    14    14    15    1
    15    15    16   ar
    16    16    17   ar
    17    17    18   ar
    18    18    19   ar
    19    19    20    1
    20    19    21   ar
    21    13    22   ar
    22    22    23   ar
    23    23    24   ar
    24    24    25   ar
    25    25    26   ar
    26    26    27   ar
    27    10     4   ar
    28    27    11   ar
    29    21    15   ar
    30    27    23   ar
    31     3    28    1
    32     5    29    1
    33     6    30    1
    34     9    31    1
    35    12    32    1
    36    16    33    1
    37    18    34    1
    38    21    35    1
    39    22    36    1
    40    25    37    1
