@<TRIPOS>MOLECULE
*****
 52 55 0 0 0
SMALL
GASTEIGER

@<TRIPOS>ATOM
      1 C           7.3972   -0.5777    1.5799 C.3     1  UNL1       -0.0653
      2 C           6.7574   -0.9899    0.2929 C.3     1  UNL1       -0.0558
      3 C           5.2425   -0.8809    0.3488 C.3     1  UNL1       -0.0502
      4 C           4.7315   -1.3261   -1.0110 C.3     1  UNL1       -0.0186
      5 C           3.2096   -1.2413   -1.0250 C.3     1  UNL1        0.0896
      6 O           2.7667    0.0774   -0.7841 O.3     1  UNL1       -0.4914
      7 C           1.3959    0.2993   -0.7691 C.ar    1  UNL1        0.1282
      8 C           0.4795   -0.7065   -0.9775 C.ar    1  UNL1       -0.0186
      9 C          -0.8688   -0.4549   -0.9570 C.ar    1  UNL1       -0.0469
     10 C          -1.3765    0.8353   -0.7235 C.ar    1  UNL1        0.0302
     11 C          -2.8118    1.0573   -0.7388 C.2     1  UNL1        0.1943
     12 O          -3.3419    1.9739   -1.3784 O.2     1  UNL1       -0.2866
     13 C          -3.6652    0.1705    0.0260 C.ar    1  UNL1        0.0300
     14 C          -3.2909   -0.0937    1.3390 C.ar    1  UNL1       -0.0503
     15 C          -3.9959   -0.8899    2.1834 C.ar    1  UNL1       -0.0605
     16 C          -5.1512   -1.4731    1.7171 C.ar    1  UNL1       -0.0540
     17 C          -5.5547   -1.2319    0.4121 C.ar    1  UNL1       -0.0172
     18 C          -6.7290   -1.8495   -0.0134 C.ar    1  UNL1       -0.0540
     19 C          -7.1326   -1.6204   -1.3035 C.ar    1  UNL1       -0.0612
     20 C          -6.3934   -0.8072   -2.1360 C.ar    1  UNL1       -0.0611
     21 C          -5.2124   -0.1829   -1.7159 C.ar    1  UNL1       -0.0533
     22 C          -4.8198   -0.4145   -0.4367 C.ar    1  UNL1       -0.0071
     23 C          -0.4733    1.8489   -0.5130 C.ar    1  UNL1       -0.0036
     24 C          -0.9592    3.1139   -0.2748 C.ar    1  UNL1       -0.0532
     25 C          -0.0320    4.1226   -0.0584 C.ar    1  UNL1       -0.0611
     26 C           1.3216    3.8676   -0.0805 C.ar    1  UNL1       -0.0611
     27 C           1.7747    2.5898   -0.3209 C.ar    1  UNL1       -0.0505
     28 C           0.8779    1.5622   -0.5403 C.ar    1  UNL1        0.0245
     29 H           8.4843   -0.3796    1.3541 H       1  UNL1        0.0230
     30 H           6.9749    0.3612    1.9492 H       1  UNL1        0.0230
     31 H           7.3999   -1.3903    2.3349 H       1  UNL1        0.0230
     32 H           6.9866   -2.0613    0.1173 H       1  UNL1        0.0263
     33 H           7.0981   -0.3682   -0.5433 H       1  UNL1        0.0263
     34 H           4.7928   -1.5183    1.1139 H       1  UNL1        0.0266
     35 H           4.9738    0.1727    0.5194 H       1  UNL1        0.0266
     36 H           5.0405   -2.3442   -1.2618 H       1  UNL1        0.0298
     37 H           5.0842   -0.6568   -1.8238 H       1  UNL1        0.0298
     38 H           2.7942   -1.6849   -1.9309 H       1  UNL1        0.0696
     39 H           2.8750   -1.8964   -0.1736 H       1  UNL1        0.0696
     40 H           0.8823   -1.7080   -1.1587 H       1  UNL1        0.0654
     41 H          -1.5632   -1.2548   -1.1219 H       1  UNL1        0.0626
     42 H          -2.3852    0.3614    1.7098 H       1  UNL1        0.0625
     43 H          -3.6373   -1.0503    3.2039 H       1  UNL1        0.0618
     44 H          -5.7024   -2.1043    2.4004 H       1  UNL1        0.0624
     45 H          -7.2679   -2.4740    0.6753 H       1  UNL1        0.0624
     46 H          -8.0462   -2.0984   -1.6406 H       1  UNL1        0.0618
     47 H          -6.7386   -0.6421   -3.1600 H       1  UNL1        0.0618
     48 H          -4.6512    0.4450   -2.3942 H       1  UNL1        0.0624
     49 H          -2.0135    3.3326   -0.2446 H       1  UNL1        0.0624
     50 H          -0.3867    5.1408    0.1337 H       1  UNL1        0.0618
     51 H           2.0164    4.6802    0.0925 H       1  UNL1        0.0618
     52 H           2.8432    2.3597   -0.3439 H       1  UNL1        0.0625
@<TRIPOS>BOND
     1     1     2    1
     2     2     3    1
     3     3     4    1
     4     4     5    1
     5     5     6    1
     6     6     7    1
     7     7     8   ar
     8     8     9   ar
     9     9    10   ar
    10    10    11    1
    11    11    12    2
    12    11    13    1
    13    13    14   ar
    14    14    15   ar
    15    15    16   ar
    16    16    17   ar
    17    17    18   ar
    18    18    19   ar
    19    19    20   ar
    20    20    21   ar
    21    21    22   ar
    22    10    23   ar
    23    23    24   ar
    24    24    25   ar
    25    25    26   ar
    26    26    27   ar
    27    27    28   ar
    28    28     7   ar
    29    22    13   ar
    30    28    23   ar
    31    22    17   ar
    32     1    29    1
    33     1    30    1
    34     1    31    1
    35     2    32    1
    36     2    33    1
    37     3    34    1
    38     3    35    1
    39     4    36    1
    40     4    37    1
    41     5    38    1
    42     5    39    1
    43     8    40    1
    44     9    41    1
    45    14    42    1
    46    15    43    1
    47    16    44    1
    48    18    45    1
    49    19    46    1
    50    20    47    1
    51    21    48    1
    52    24    49    1
    53    25    50    1
    54    26    51    1
    55    27    52    1
