
     RDKit          3D

 52 55  0  0  0  0  0  0  0  0999 V2000
    7.3972   -0.5777    1.5799 C   0  0  0  0  0  0  0  0  0  0  0  0
    6.7574   -0.9899    0.2929 C   0  0  0  0  0  0  0  0  0  0  0  0
    5.2425   -0.8809    0.3488 C   0  0  0  0  0  0  0  0  0  0  0  0
    4.7315   -1.3261   -1.0110 C   0  0  0  0  0  0  0  0  0  0  0  0
    3.2096   -1.2413   -1.0250 C   0  0  0  0  0  0  0  0  0  0  0  0
    2.7667    0.0774   -0.7841 O   0  0  0  0  0  0  0  0  0  0  0  0
    1.3959    0.2993   -0.7691 C   0  0  0  0  0  0  0  0  0  0  0  0
    0.4795   -0.7065   -0.9775 C   0  0  0  0  0  0  0  0  0  0  0  0
   -0.8688   -0.4549   -0.9570 C   0  0  0  0  0  0  0  0  0  0  0  0
   -1.3765    0.8353   -0.7235 C   0  0  0  0  0  0  0  0  0  0  0  0
   -2.8118    1.0573   -0.7388 C   0  0  0  0  0  0  0  0  0  0  0  0
   -3.3419    1.9739   -1.3784 O   0  0  0  0  0  0  0  0  0  0  0  0
   -3.6652    0.1705    0.0260 C   0  0  0  0  0  0  0  0  0  0  0  0
   -3.2909   -0.0937    1.3390 C   0  0  0  0  0  0  0  0  0  0  0  0
   -3.9959   -0.8899    2.1834 C   0  0  0  0  0  0  0  0  0  0  0  0
   -5.1512   -1.4731    1.7171 C   0  0  0  0  0  0  0  0  0  0  0  0
   -5.5547   -1.2319    0.4121 C   0  0  0  0  0  0  0  0  0  0  0  0
   -6.7290   -1.8495   -0.0134 C   0  0  0  0  0  0  0  0  0  0  0  0
   -7.1326   -1.6204   -1.3035 C   0  0  0  0  0  0  0  0  0  0  0  0
   -6.3934   -0.8072   -2.1360 C   0  0  0  0  0  0  0  0  0  0  0  0
   -5.2124   -0.1829   -1.7159 C   0  0  0  0  0  0  0  0  0  0  0  0
   -4.8198   -0.4145   -0.4367 C   0  0  0  0  0  0  0  0  0  0  0  0
   -0.4733    1.8489   -0.5130 C   0  0  0  0  0  0  0  0  0  0  0  0
   -0.9592    3.1139   -0.2748 C   0  0  0  0  0  0  0  0  0  0  0  0
   -0.0320    4.1226   -0.0584 C   0  0  0  0  0  0  0  0  0  0  0  0
    1.3216    3.8676   -0.0805 C   0  0  0  0  0  0  0  0  0  0  0  0
    1.7747    2.5898   -0.3209 C   0  0  0  0  0  0  0  0  0  0  0  0
    0.8779    1.5622   -0.5403 C   0  0  0  0  0  0  0  0  0  0  0  0
    8.4843   -0.3796    1.3541 H   0  0  0  0  0  0  0  0  0  0  0  0
    6.9749    0.3612    1.9492 H   0  0  0  0  0  0  0  0  0  0  0  0
    7.3999   -1.3903    2.3349 H   0  0  0  0  0  0  0  0  0  0  0  0
    6.9866   -2.0613    0.1173 H   0  0  0  0  0  0  0  0  0  0  0  0
    7.0981   -0.3682   -0.5433 H   0  0  0  0  0  0  0  0  0  0  0  0
    4.7928   -1.5183    1.1139 H   0  0  0  0  0  0  0  0  0  0  0  0
    4.9738    0.1727    0.5194 H   0  0  0  0  0  0  0  0  0  0  0  0
    5.0405   -2.3442   -1.2618 H   0  0  0  0  0  0  0  0  0  0  0  0
    5.0842   -0.6568   -1.8238 H   0  0  0  0  0  0  0  0  0  0  0  0
    2.7942   -1.6849   -1.9309 H   0  0  0  0  0  0  0  0  0  0  0  0
    2.8750   -1.8964   -0.1736 H   0  0  0  0  0  0  0  0  0  0  0  0
    0.8823   -1.7080   -1.1587 H   0  0  0  0  0  0  0  0  0  0  0  0
   -1.5632   -1.2548   -1.1219 H   0  0  0  0  0  0  0  0  0  0  0  0
   -2.3852    0.3614    1.7098 H   0  0  0  0  0  0  0  0  0  0  0  0
   -3.6373   -1.0503    3.2039 H   0  0  0  0  0  0  0  0  0  0  0  0
   -5.7024   -2.1043    2.4004 H   0  0  0  0  0  0  0  0  0  0  0  0
   -7.2679   -2.4740    0.6753 H   0  0  0  0  0  0  0  0  0  0  0  0
   -8.0462   -2.0984   -1.6406 H   0  0  0  0  0  0  0  0  0  0  0  0
   -6.7386   -0.6421   -3.1600 H   0  0  0  0  0  0  0  0  0  0  0  0
   -4.6512    0.4450   -2.3942 H   0  0  0  0  0  0  0  0  0  0  0  0
   -2.0135    3.3326   -0.2446 H   0  0  0  0  0  0  0  0  0  0  0  0
   -0.3867    5.1408    0.1337 H   0  0  0  0  0  0  0  0  0  0  0  0
    2.0164    4.6802    0.0925 H   0  0  0  0  0  0  0  0  0  0  0  0
    2.8432    2.3597   -0.3439 H   0  0  0  0  0  0  0  0  0  0  0  0
  1  2  1  0
  2  3  1  0
  3  4  1  0
  4  5  1  0
  5  6  1  0
  6  7  1  0
  7  8  2  0
  8  9  1  0
  9 10  2  0
 10 11  1  0
 11 12  2  0
 11 13  1  0
 13 14  2  0
 14 15  1  0
 15 16  2  0
 16 17  1  0
 17 18  2  0
 18 19  1  0
 19 20  2  0
 20 21  1  0
 21 22  2  0
 10 23  1  0
 23 24  2  0
 24 25  1  0
 25 26  2  0
 26 27  1  0
 27 28  2  0
 28  7  1  0
 22 13  1  0
 28 23  1  0
 22 17  1  0
  1 29  1  0
  1 30  1  0
  1 31  1  0
  2 32  1  0
  2 33  1  0
  3 34  1  0
  3 35  1  0
  4 36  1  0
  4 37  1  0
  5 38  1  0
  5 39  1  0
  8 40  1  0
  9 41  1  0
 14 42  1  0
 15 43  1  0
 16 44  1  0
 18 45  1  0
 19 46  1  0
 20 47  1  0
 21 48  1  0
 24 49  1  0
 25 50  1  0
 26 51  1  0
 27 52  1  0
M  END
$$$$
