@<TRIPOS>MOLECULE
*****
 61 68 0 0 0
SMALL
GASTEIGER

@<TRIPOS>ATOM
      1 C          -2.4342    0.4918    2.2121 C.3     1  UNL1       -0.0155
      2 N          -1.6200   -0.5062    1.5526 N.3     1  UNL1       -0.3136
      3 C          -2.3068   -1.2053    0.5083 C.3     1  UNL1        0.0423
      4 C          -1.5374   -2.2820   -0.1354 C.3     1  UNL1        0.0107
      5 C          -0.7355   -1.9054   -1.3530 C.3     1  UNL1        0.1402
      6 O          -0.9721   -0.7696   -1.9833 O.3     1  UNL1       -0.3282
      7 C          -1.5734    0.3272   -1.3361 C.3     1  UNL1        0.1741
      8 C          -2.0886    1.1186   -2.5363 C.3     1  UNL1       -0.0136
      9 C          -2.6892   -0.2277   -0.5871 C.3     1  UNL1        0.1214
     10 O          -3.6584    0.5720   -0.0718 O.3     1  UNL1       -0.3735
     11 C          -4.9460    0.3549   -0.4730 C.3     1  UNL1        0.0371
     12 N          -0.5149    1.0125   -0.6485 N.ar    1  UNL1       -0.3070
     13 C          -0.5109    2.3007   -0.3301 C.ar    1  UNL1        0.0527
     14 C          -1.4000    3.3487   -0.4487 C.ar    1  UNL1       -0.0375
     15 C          -1.1636    4.6288   -0.0281 C.ar    1  UNL1       -0.0598
     16 C           0.0461    4.9191    0.5620 C.ar    1  UNL1       -0.0611
     17 C           0.9819    3.9206    0.7134 C.ar    1  UNL1       -0.0520
     18 C           0.7125    2.6467    0.2802 C.ar    1  UNL1        0.0081
     19 C           1.4398    1.5116    0.3161 C.ar    1  UNL1        0.0151
     20 C           2.7219    1.2220    0.7839 C.ar    1  UNL1       -0.0078
     21 C           3.2624   -0.0534    0.6946 C.ar    1  UNL1        0.0518
     22 C           2.4919   -1.0256    0.1305 C.ar    1  UNL1        0.0221
     23 C           2.6427   -2.3762   -0.1236 C.ar    1  UNL1        0.0085
     24 C           3.6674   -3.2714    0.0912 C.ar    1  UNL1       -0.0520
     25 C           3.4774   -4.6032   -0.2996 C.ar    1  UNL1       -0.0611
     26 C           2.3149   -5.0426   -0.8843 C.ar    1  UNL1       -0.0598
     27 C           1.2864   -4.1516   -1.1017 C.ar    1  UNL1       -0.0375
     28 C           1.4871   -2.8402   -0.7112 C.ar    1  UNL1        0.0524
     29 N           0.6229   -1.8256   -0.8318 N.ar    1  UNL1       -0.3115
     30 C           1.2030   -0.7293   -0.3380 C.ar    1  UNL1        0.0774
     31 C           0.6902    0.5485   -0.2402 C.ar    1  UNL1        0.0772
     32 C           4.5952   -0.0815    1.2462 C.2     1  UNL1        0.2453
     33 O           5.4375   -0.9863    1.3751 O.2     1  UNL1       -0.2702
     34 N           4.8640    1.2609    1.6914 N.am    1  UNL1       -0.3072
     35 C           3.7344    2.0881    1.4256 C.3     1  UNL1        0.0385
     36 H          -2.1668    0.5834    3.2941 H       1  UNL1        0.0388
     37 H          -2.3831    1.4332    1.6749 H       1  UNL1        0.0388
     38 H          -3.4832    0.1230    2.2110 H       1  UNL1        0.0388
     39 H          -1.0926   -1.1110    2.2025 H       1  UNL1        0.1220
     40 H          -3.2488   -1.6247    0.9484 H       1  UNL1        0.0489
     41 H          -2.2715   -3.0708   -0.4830 H       1  UNL1        0.0325
     42 H          -0.9490   -2.8068    0.6517 H       1  UNL1        0.0325
     43 H          -0.7277   -2.7667   -2.0858 H       1  UNL1        0.0839
     44 H          -3.0948    1.5361   -2.4088 H       1  UNL1        0.0277
     45 H          -2.0221    0.4768   -3.4280 H       1  UNL1        0.0277
     46 H          -1.4119    1.9824   -2.7559 H       1  UNL1        0.0277
     47 H          -3.2555   -0.9148   -1.3014 H       1  UNL1        0.0660
     48 H          -5.5896    1.1109    0.0570 H       1  UNL1        0.0524
     49 H          -5.3428   -0.6434   -0.1705 H       1  UNL1        0.0524
     50 H          -5.0568    0.5251   -1.5431 H       1  UNL1        0.0524
     51 H          -2.3326    3.1257   -0.8931 H       1  UNL1        0.0638
     52 H          -1.9168    5.3712   -0.1651 H       1  UNL1        0.0618
     53 H           0.2715    5.9242    0.9090 H       1  UNL1        0.0618
     54 H           1.9251    4.1857    1.1833 H       1  UNL1        0.0624
     55 H           4.5971   -2.9846    0.5433 H       1  UNL1        0.0624
     56 H           4.2910   -5.2895   -0.1232 H       1  UNL1        0.0618
     57 H           2.1688   -6.0816   -1.1883 H       1  UNL1        0.0618
     58 H           0.3497   -4.4385   -1.5572 H       1  UNL1        0.0638
     59 H           5.7661    1.5711    2.1445 H       1  UNL1        0.1493
     60 H           3.3772    2.4849    2.4075 H       1  UNL1        0.0512
     61 H           4.0707    2.9087    0.7548 H       1  UNL1        0.0512
@<TRIPOS>BOND
     1     1     2    1
     2     2     3    1
     3     3     4    1
     4     4     5    1
     5     5     6    1
     6     6     7    1
     7     7     8    1
     8     7     9    1
     9     9    10    1
    10    10    11    1
    11     7    12    1
    12    12    13   ar
    13    13    14   ar
    14    14    15   ar
    15    15    16   ar
    16    16    17   ar
    17    17    18   ar
    18    18    19   ar
    19    19    20   ar
    20    20    21   ar
    21    21    22   ar
    22    22    23   ar
    23    23    24   ar
    24    24    25   ar
    25    25    26   ar
    26    26    27   ar
    27    27    28   ar
    28    28    29   ar
    29    29    30   ar
    30    30    31   ar
    31    21    32    1
    32    32    33    2
    33    32    34   am
    34    34    35    1
    35     9     3    1
    36    31    12   ar
    37    29     5    1
    38    18    13   ar
    39    31    19   ar
    40    35    20    1
    41    30    22   ar
    42    28    23   ar
    43     1    36    1
    44     1    37    1
    45     1    38    1
    46     2    39    1
    47     3    40    1
    48     4    41    1
    49     4    42    1
    50     5    43    1
    51     8    44    1
    52     8    45    1
    53     8    46    1
    54     9    47    1
    55    11    48    1
    56    11    49    1
    57    11    50    1
    58    14    51    1
    59    15    52    1
    60    16    53    1
    61    17    54    1
    62    24    55    1
    63    25    56    1
    64    26    57    1
    65    27    58    1
    66    34    59    1
    67    35    60    1
    68    35    61    1
