
     RDKit          3D

 18 18  0  0  0  0  0  0  0  0999 V2000
    2.4083    0.5392   -0.1842 C   0  0  0  0  0  0  0  0  0  0  0  0
    1.5495   -0.5416    0.4422 C   0  0  0  0  0  0  0  0  0  0  0  0
    0.1334   -0.2928    0.2190 N   0  0  0  0  0  0  0  0  0  0  0  0
   -0.7397    0.4665    1.0827 C   0  0  0  0  0  0  0  0  0  0  0  0
   -0.3478    1.2238    1.9918 O   0  0  0  0  0  0  0  0  0  0  0  0
   -2.1143    0.0934    0.5900 C   0  0  0  0  0  0  0  0  0  0  0  0
   -1.8509    0.0942   -0.9187 C   0  0  0  0  0  0  0  0  0  0  0  0
   -0.6179   -0.7763   -0.9167 C   0  0  0  0  0  0  0  0  0  0  0  0
   -0.3078   -1.7076   -1.7133 O   0  0  0  0  0  0  0  0  0  0  0  0
    1.7495    1.3562   -0.5998 H   0  0  0  0  0  0  0  0  0  0  0  0
    3.0824    0.9939    0.5509 H   0  0  0  0  0  0  0  0  0  0  0  0
    2.9672    0.0987   -1.0512 H   0  0  0  0  0  0  0  0  0  0  0  0
    1.7306   -0.6512    1.5283 H   0  0  0  0  0  0  0  0  0  0  0  0
    1.7750   -1.5143   -0.0215 H   0  0  0  0  0  0  0  0  0  0  0  0
   -2.8850    0.8013    0.8981 H   0  0  0  0  0  0  0  0  0  0  0  0
   -2.3252   -0.9522    0.8727 H   0  0  0  0  0  0  0  0  0  0  0  0
   -2.6713   -0.3241   -1.5004 H   0  0  0  0  0  0  0  0  0  0  0  0
   -1.5362    1.0927   -1.2697 H   0  0  0  0  0  0  0  0  0  0  0  0
  1  2  1  0
  2  3  1  0
  3  4  1  0
  4  5  2  0
  4  6  1  0
  6  7  1  0
  7  8  1  0
  8  9  2  0
  8  3  1  0
  1 10  1  0
  1 11  1  0
  1 12  1  0
  2 13  1  0
  2 14  1  0
  6 15  1  0
  6 16  1  0
  7 17  1  0
  7 18  1  0
M  END
$$$$
