@<TRIPOS>MOLECULE
*****
 18 18 0 0 0
SMALL
GASTEIGER

@<TRIPOS>ATOM
      1 C           2.4083    0.5392   -0.1842 C.3     1  UNL1       -0.0488
      2 C           1.5495   -0.5416    0.4422 C.3     1  UNL1        0.0195
      3 N           0.1334   -0.2928    0.2190 N.am    1  UNL1       -0.2424
      4 C          -0.7397    0.4665    1.0827 C.2     1  UNL1        0.2222
      5 O          -0.3478    1.2238    1.9918 O.2     1  UNL1       -0.2752
      6 C          -2.1143    0.0934    0.5900 C.3     1  UNL1        0.0328
      7 C          -1.8509    0.0942   -0.9187 C.3     1  UNL1        0.0328
      8 C          -0.6179   -0.7763   -0.9167 C.2     1  UNL1        0.2222
      9 O          -0.3078   -1.7076   -1.7133 O.2     1  UNL1       -0.2752
     10 H           1.7495    1.3562   -0.5998 H       1  UNL1        0.0245
     11 H           3.0824    0.9939    0.5509 H       1  UNL1        0.0245
     12 H           2.9672    0.0987   -1.0512 H       1  UNL1        0.0245
     13 H           1.7306   -0.6512    1.5283 H       1  UNL1        0.0467
     14 H           1.7750   -1.5143   -0.0215 H       1  UNL1        0.0467
     15 H          -2.8850    0.8013    0.8981 H       1  UNL1        0.0363
     16 H          -2.3252   -0.9522    0.8727 H       1  UNL1        0.0363
     17 H          -2.6713   -0.3241   -1.5004 H       1  UNL1        0.0363
     18 H          -1.5362    1.0927   -1.2697 H       1  UNL1        0.0363
@<TRIPOS>BOND
     1     1     2    1
     2     2     3    1
     3     3     4   am
     4     4     5    2
     5     4     6    1
     6     6     7    1
     7     7     8    1
     8     8     9    2
     9     8     3   am
    10     1    10    1
    11     1    11    1
    12     1    12    1
    13     2    13    1
    14     2    14    1
    15     6    15    1
    16     6    16    1
    17     7    17    1
    18     7    18    1
