@<TRIPOS>MOLECULE
*****
 55 59 0 0 0
SMALL
GASTEIGER

@<TRIPOS>ATOM
      1 C           0.3172    2.6828    1.9407 C.3     1  UNL1        0.0788
      2 O          -0.0468    1.5424    1.1884 O.3     1  UNL1       -0.4943
      3 C           0.8754    0.9516    0.3166 C.ar    1  UNL1        0.1328
      4 C           2.1552    1.4270    0.1402 C.ar    1  UNL1        0.0230
      5 C           3.0542    0.8363   -0.7220 C.ar    1  UNL1        0.1319
      6 O           4.3390    1.2904   -0.9174 O.3     1  UNL1       -0.4559
      7 C           5.4164    0.8315   -0.1931 C.ar    1  UNL1        0.1284
      8 C           6.1109   -0.2518   -0.7047 C.ar    1  UNL1       -0.0193
      9 C           7.1885   -0.7114    0.0187 C.ar    1  UNL1       -0.0583
     10 C           7.5616   -0.1187    1.2029 C.ar    1  UNL1       -0.0615
     11 C           6.8468    0.9725    1.7001 C.ar    1  UNL1       -0.0583
     12 C           5.7721    1.4317    0.9798 C.ar    1  UNL1       -0.0193
     13 C           2.6490   -0.2707   -1.4297 C.ar    1  UNL1       -0.0185
     14 C           1.3827   -0.7845   -1.2896 C.ar    1  UNL1       -0.0455
     15 C           0.5045   -0.1709   -0.4180 C.ar    1  UNL1        0.0444
     16 C          -0.8384   -0.6983   -0.2761 C.ar    1  UNL1        0.1036
     17 N          -1.9586    0.0019   -0.5012 N.ar    1  UNL1       -0.2308
     18 C          -3.0401   -0.7851   -0.2732 C.ar    1  UNL1        0.1182
     19 C          -4.4685   -0.4266   -0.3956 C.3     1  UNL1        0.0228
     20 C          -4.8369    0.7758    0.4698 C.3     1  UNL1       -0.0145
     21 C          -4.8236    1.6175   -0.7774 C.3     1  UNL1        0.0646
     22 C          -6.1208    2.3458   -0.9642 C.3     1  UNL1       -0.0360
     23 O          -3.6850    2.4314   -0.8400 O.3     1  UNL1       -0.3888
     24 C          -4.7471    0.3729   -1.6415 C.3     1  UNL1       -0.0145
     25 N          -2.5738   -1.9859    0.0978 N.ar    1  UNL1       -0.2982
     26 C          -3.2090   -3.1087    0.4371 C.ar    1  UNL1        0.0297
     27 C          -2.5109   -4.2279    0.7906 C.ar    1  UNL1        0.0463
     28 N          -1.1629   -4.2331    0.8079 N.ar    1  UNL1       -0.2371
     29 C          -0.5208   -3.1002    0.4655 C.ar    1  UNL1        0.1424
     30 N           0.9092   -3.0941    0.4936 N.pl3   1  UNL1       -0.3414
     31 C          -1.2080   -1.9583    0.1045 C.ar    1  UNL1        0.1136
     32 H           0.9238    2.4242    2.8246 H       1  UNL1        0.0660
     33 H          -0.6283    3.1785    2.2590 H       1  UNL1        0.0660
     34 H           0.8758    3.4265    1.3207 H       1  UNL1        0.0660
     35 H           2.4663    2.3051    0.7053 H       1  UNL1        0.0691
     36 H           5.8122   -0.7156   -1.6399 H       1  UNL1        0.0654
     37 H           7.7399   -1.5681   -0.3850 H       1  UNL1        0.0619
     38 H           8.4023   -0.5000    1.7390 H       1  UNL1        0.0618
     39 H           7.1468    1.4339    2.6345 H       1  UNL1        0.0619
     40 H           5.2122    2.2860    1.3680 H       1  UNL1        0.0654
     41 H           3.3196   -0.7706   -2.1197 H       1  UNL1        0.0654
     42 H           1.0837   -1.6690   -1.8735 H       1  UNL1        0.0626
     43 H          -5.1155   -1.3068   -0.2168 H       1  UNL1        0.0381
     44 H          -5.8208    0.6800    0.9747 H       1  UNL1        0.0300
     45 H          -4.0711    1.0297    1.2276 H       1  UNL1        0.0300
     46 H          -5.9521    3.3038   -1.5030 H       1  UNL1        0.0257
     47 H          -6.5142    2.5675    0.0624 H       1  UNL1        0.0257
     48 H          -6.8179    1.6893   -1.5133 H       1  UNL1        0.0257
     49 H          -3.3666    2.5487    0.0833 H       1  UNL1        0.2101
     50 H          -5.7023    0.1332   -2.1493 H       1  UNL1        0.0300
     51 H          -3.9136    0.4093   -2.3857 H       1  UNL1        0.0300
     52 H          -4.2846   -3.1599    0.4410 H       1  UNL1        0.0829
     53 H          -3.0097   -5.1454    1.0681 H       1  UNL1        0.0845
     54 H           1.4614   -3.7571   -0.0749 H       1  UNL1        0.1438
     55 H           1.4213   -2.4080    1.1007 H       1  UNL1        0.1438
@<TRIPOS>BOND
     1     1     2    1
     2     2     3    1
     3     3     4   ar
     4     4     5   ar
     5     5     6    1
     6     6     7    1
     7     7     8   ar
     8     8     9   ar
     9     9    10   ar
    10    10    11   ar
    11    11    12   ar
    12     5    13   ar
    13    13    14   ar
    14    14    15   ar
    15    15    16    1
    16    16    17   ar
    17    17    18   ar
    18    18    19    1
    19    19    20    1
    20    20    21    1
    21    21    22    1
    22    21    23    1
    23    21    24    1
    24    18    25   ar
    25    25    26   ar
    26    26    27   ar
    27    27    28   ar
    28    28    29   ar
    29    29    30    1
    30    29    31   ar
    31    15     3   ar
    32    31    16   ar
    33    12     7   ar
    34    24    19    1
    35    31    25   ar
    36     1    32    1
    37     1    33    1
    38     1    34    1
    39     4    35    1
    40     8    36    1
    41     9    37    1
    42    10    38    1
    43    11    39    1
    44    12    40    1
    45    13    41    1
    46    14    42    1
    47    19    43    1
    48    20    44    1
    49    20    45    1
    50    22    46    1
    51    22    47    1
    52    22    48    1
    53    23    49    1
    54    24    50    1
    55    24    51    1
    56    26    52    1
    57    27    53    1
    58    30    54    1
    59    30    55    1
