@<TRIPOS>MOLECULE
*****
 56 57 0 0 0
SMALL
GASTEIGER

@<TRIPOS>ATOM
      1 C           7.5120    0.0854   -0.2081 C.3     1  UNL1        0.0366
      2 O           6.2027    0.2418   -0.6639 O.3     1  UNL1       -0.3796
      3 C           5.6769    1.4064   -0.1452 C.3     1  UNL1        0.0815
      4 C           4.2534    1.6799   -0.5750 C.3     1  UNL1        0.1160
      5 O           3.3767    0.6438   -0.1726 O.3     1  UNL1       -0.4590
      6 C           2.0368    0.7095   -0.4710 C.2     1  UNL1        0.3376
      7 O           1.8993    1.8046   -1.1045 O.2     1  UNL1       -0.2452
      8 C           1.0583   -0.3073   -0.0992 C.2     1  UNL1        0.0652
      9 C           1.4505   -1.3891    0.5767 C.2     1  UNL1        0.0157
     10 C           2.8460   -1.5986    0.9658 C.3     1  UNL1       -0.0260
     11 N           0.4098   -2.3098    0.8832 N.pl3   1  UNL1       -0.3207
     12 C          -0.9618   -2.1493    0.5260 C.2     1  UNL1        0.0157
     13 C          -2.0027   -3.1379    0.8699 C.3     1  UNL1       -0.0260
     14 C          -1.2506   -1.0422   -0.1438 C.2     1  UNL1        0.0652
     15 C          -0.3112    0.0313   -0.5547 C.3     1  UNL1        0.0508
     16 C          -0.6463    1.3514   -0.0070 C.ar    1  UNL1       -0.0287
     17 C          -0.6241    1.4351    1.3885 C.ar    1  UNL1        0.0197
     18 C          -0.9246    2.6321    1.9903 C.ar    1  UNL1        0.2734
     19 C          -1.2428    3.7326    1.2321 C.ar    1  UNL1        0.0156
     20 C          -1.2763    3.6932   -0.1488 C.ar    1  UNL1       -0.0551
     21 C          -0.9729    2.4894   -0.7186 C.ar    1  UNL1       -0.0572
     22 N          -0.9178    2.7730    3.3863 N.pl3   1  UNL1        0.0796
     23 O          -1.2193    3.9732    3.9800 O.co2   1  UNL1       -0.5760
     24 O          -0.6524    1.8772    4.2038 O.2     1  UNL1        0.0414
     25 C          -2.6159   -0.7523   -0.5714 C.2     1  UNL1        0.3378
     26 O          -3.1007    0.2025   -1.1952 O.2     1  UNL1       -0.2452
     27 O          -3.7025   -1.5836   -0.3235 O.3     1  UNL1       -0.4586
     28 C          -5.0152   -1.3395   -0.7155 C.3     1  UNL1        0.0978
     29 C          -5.3924   -2.4943   -1.6536 C.3     1  UNL1       -0.0280
     30 C          -6.0275   -1.3884    0.4039 C.3     1  UNL1       -0.0280
     31 H           8.1344    0.9628   -0.5436 H       1  UNL1        0.0524
     32 H           7.8952   -0.8451   -0.7073 H       1  UNL1        0.0524
     33 H           7.5862   -0.0969    0.8707 H       1  UNL1        0.0524
     34 H           6.3106    2.2484   -0.4909 H       1  UNL1        0.0593
     35 H           5.7410    1.3547    0.9595 H       1  UNL1        0.0593
     36 H           3.9549    2.6243   -0.0764 H       1  UNL1        0.0721
     37 H           4.1612    1.8643   -1.6508 H       1  UNL1        0.0721
     38 H           3.5306   -1.6723    0.1080 H       1  UNL1        0.0290
     39 H           3.1939   -0.9005    1.7685 H       1  UNL1        0.0290
     40 H           2.9016   -2.6129    1.4585 H       1  UNL1        0.0290
     41 H           0.6875   -3.1677    1.4128 H       1  UNL1        0.1516
     42 H          -2.8186   -2.7455    1.5037 H       1  UNL1        0.0290
     43 H          -1.4813   -4.0009    1.3343 H       1  UNL1        0.0290
     44 H          -2.4585   -3.5452   -0.0578 H       1  UNL1        0.0290
     45 H          -0.3600    0.0819   -1.6638 H       1  UNL1        0.0451
     46 H          -0.3802    0.5996    2.0389 H       1  UNL1        0.0688
     47 H          -1.4795    4.6778    1.7250 H       1  UNL1        0.0685
     48 H          -1.5253    4.5514   -0.7710 H       1  UNL1        0.0620
     49 H          -0.9660    2.3344   -1.8007 H       1  UNL1        0.0621
     50 H          -5.1624   -0.4079   -1.2603 H       1  UNL1        0.0728
     51 H          -4.6294   -2.6051   -2.4587 H       1  UNL1        0.0265
     52 H          -6.3780   -2.3070   -2.1194 H       1  UNL1        0.0265
     53 H          -5.3358   -3.4077   -1.0458 H       1  UNL1        0.0265
     54 H          -7.0073   -1.5975   -0.0787 H       1  UNL1        0.0265
     55 H          -6.1372   -0.4133    0.9167 H       1  UNL1        0.0265
     56 H          -5.8428   -2.2438    1.0953 H       1  UNL1        0.0265
@<TRIPOS>UNITY_ATOM_ATTR
22 1
charge 1
23 1
charge -1
@<TRIPOS>BOND
     1     1     2    1
     2     2     3    1
     3     3     4    1
     4     4     5    1
     5     5     6    1
     6     6     7    2
     7     6     8    1
     8     8     9    2
     9     9    10    1
    10     9    11    1
    11    11    12    1
    12    12    13    1
    13    12    14    2
    14    14    15    1
    15    15    16    1
    16    16    17   ar
    17    17    18   ar
    18    18    19   ar
    19    19    20   ar
    20    20    21   ar
    21    18    22    1
    22    22    23    1
    23    22    24    2
    24    14    25    1
    25    25    26    2
    26    25    27    1
    27    27    28    1
    28    28    29    1
    29    28    30    1
    30    15     8    1
    31    21    16   ar
    32     1    31    1
    33     1    32    1
    34     1    33    1
    35     3    34    1
    36     3    35    1
    37     4    36    1
    38     4    37    1
    39    10    38    1
    40    10    39    1
    41    10    40    1
    42    11    41    1
    43    13    42    1
    44    13    43    1
    45    13    44    1
    46    15    45    1
    47    17    46    1
    48    19    47    1
    49    20    48    1
    50    21    49    1
    51    28    50    1
    52    29    51    1
    53    29    52    1
    54    29    53    1
    55    30    54    1
    56    30    55    1
    57    30    56    1
