@<TRIPOS>MOLECULE
*****
 32 32 0 0 0
SMALL
GASTEIGER

@<TRIPOS>ATOM
      1 C           0.1642   -1.3456   -0.0923 C.3     1  UNL1        0.1117
      2 O           1.1058   -2.3383   -0.2017 O.3     1  UNL1       -0.3865
      3 C          -1.0361   -1.7177    0.7552 C.3     1  UNL1        0.1101
      4 O          -1.9535   -2.4931    0.0608 O.3     1  UNL1       -0.3866
      5 C          -1.5802   -0.3074    1.0048 C.3     1  UNL1        0.0984
      6 C          -2.6007   -0.0802   -0.1011 C.3     1  UNL1        0.0781
      7 P          -3.3647    1.5508    0.0219 P.3     1  UNL1        0.3304
      8 O          -4.4721    1.5829    1.2768 O.3     1  UNL1       -0.3240
      9 O          -2.1668    2.7211    0.2824 O.3     1  UNL1       -0.3240
     10 O          -4.0724    1.8441   -1.2751 O.2     1  UNL1       -0.2587
     11 O          -0.5163    0.5494    0.9107 O.3     1  UNL1       -0.3652
     12 C           0.6480   -0.1576    0.7450 C.3     1  UNL1        0.1112
     13 C           1.7198    0.6112    0.0205 C.3     1  UNL1        0.0878
     14 O           2.8168   -0.2514   -0.0566 O.3     1  UNL1       -0.2841
     15 P           4.1433    0.3965   -0.8310 P.3     1  UNL1        0.4724
     16 O           5.5312    0.0003    0.0731 O.3     1  UNL1       -0.3026
     17 O           3.9618    2.0641   -1.0130 O.3     1  UNL1       -0.3026
     18 O           4.2536   -0.3096   -2.1852 O.2     1  UNL1       -0.2275
     19 H          -0.1311   -0.9033   -1.0657 H       1  UNL1        0.0647
     20 H           0.8957   -2.8352   -1.0434 H       1  UNL1        0.2100
     21 H          -0.6563   -2.1875    1.6673 H       1  UNL1        0.0646
     22 H          -2.5814   -2.8541    0.7377 H       1  UNL1        0.2100
     23 H          -2.0862   -0.2111    1.9689 H       1  UNL1        0.0629
     24 H          -3.3797   -0.8526    0.0440 H       1  UNL1        0.0414
     25 H          -2.1538   -0.2303   -1.0939 H       1  UNL1        0.0414
     26 H          -4.9270    0.6924    1.3115 H       1  UNL1        0.2198
     27 H          -2.6388    3.5927    0.2667 H       1  UNL1        0.2198
     28 H           1.0134   -0.4837    1.7360 H       1  UNL1        0.0646
     29 H           1.3977    1.0159   -0.9379 H       1  UNL1        0.0592
     30 H           2.0205    1.4361    0.7086 H       1  UNL1        0.0592
     31 H           5.7627   -0.9451   -0.1891 H       1  UNL1        0.2220
     32 H           4.8825    2.4462   -1.0604 H       1  UNL1        0.2220
@<TRIPOS>BOND
     1     1     2    1
     2     1     3    1
     3     3     4    1
     4     3     5    1
     5     5     6    1
     6     6     7    1
     7     7     8    1
     8     7     9    1
     9     7    10    2
    10     5    11    1
    11    11    12    1
    12    12    13    1
    13    13    14    1
    14    14    15    1
    15    15    16    1
    16    15    17    1
    17    15    18    2
    18    12     1    1
    19     1    19    1
    20     2    20    1
    21     3    21    1
    22     4    22    1
    23     5    23    1
    24     6    24    1
    25     6    25    1
    26     8    26    1
    27     9    27    1
    28    12    28    1
    29    13    29    1
    30    13    30    1
    31    16    31    1
    32    17    32    1
