
     RDKit          3D

 62 64  0  0  0  0  0  0  0  0999 V2000
   -1.4557    5.2786    0.6090 C   0  0  0  0  0  0  0  0  0  0  0  0
   -1.0590    4.1021   -0.2638 C   0  0  0  0  0  0  0  0  0  0  0  0
   -2.1502    3.0209   -0.1310 C   0  0  0  0  0  0  0  0  0  0  0  0
   -1.7348    1.5910   -1.1380 S   0  0  0  0  0  0  0  0  0  0  0  0
   -0.3810    0.7170   -0.4216 C   0  0  0  0  0  0  0  0  0  0  0  0
    0.9271    1.0378   -0.6359 N   0  0  0  0  0  0  0  0  0  0  0  0
    1.9490    0.3774   -0.1227 C   0  0  0  0  0  0  0  0  0  0  0  0
    3.2983    0.6486   -0.3629 N   0  0  0  0  0  0  0  0  0  0  0  0
    3.8257    1.1649   -1.5883 C   0  0  0  0  0  0  0  0  0  0  0  0
    4.6435    0.0075   -2.1894 C   0  0  0  0  0  0  0  0  0  0  0  0
    5.7464   -0.3504   -1.2048 C   0  0  0  0  0  0  0  0  0  0  0  0
    5.2059   -0.7193    0.1241 C   0  0  1  0  0  0  0  0  0  0  0  0
    6.2322   -1.0424    1.1534 C   0  0  0  0  0  0  0  0  0  0  0  0
    7.1060   -2.1761    0.8497 C   0  0  0  0  0  0  0  0  0  0  0  0
    8.0290   -2.4463    1.6372 O   0  0  0  0  0  0  0  0  0  0  0  0
    6.9528   -2.9729   -0.2830 O   0  0  0  0  0  0  0  0  0  0  0  0
    4.2821    0.3569    0.6857 C   0  0  0  0  0  0  0  0  0  0  0  0
    1.6991   -0.7319    0.7075 C   0  0  0  0  0  0  0  0  0  0  0  0
    0.4095   -1.0808    0.9442 C   0  0  0  0  0  0  0  0  0  0  0  0
   -0.6314   -0.3547    0.3765 C   0  0  0  0  0  0  0  0  0  0  0  0
   -1.9664   -0.9059    0.6671 C   0  0  0  0  0  0  0  0  0  0  0  0
   -2.2339   -1.1273    1.8469 O   0  0  0  0  0  0  0  0  0  0  0  0
   -2.9058   -1.1835   -0.3142 N   0  0  0  0  0  0  0  0  0  0  0  0
   -4.2089   -1.7613   -0.2442 C   0  0  0  0  0  0  0  0  0  0  0  0
   -4.6545   -2.3199    1.0616 C   0  0  0  0  0  0  0  0  0  0  0  0
   -5.8306   -1.6165    1.7175 C   0  0  0  0  0  0  0  0  0  0  0  0
   -6.9420   -1.7459    0.6787 C   0  0  0  0  0  0  0  0  0  0  0  0
   -6.5409   -0.7397   -0.3869 C   0  0  0  0  0  0  0  0  0  0  0  0
   -5.1932   -0.9542   -0.9710 C   0  0  0  0  0  0  0  0  0  0  0  0
   -0.5446    5.6073    1.1951 H   0  0  0  0  0  0  0  0  0  0  0  0
   -2.2726    5.0180    1.3073 H   0  0  0  0  0  0  0  0  0  0  0  0
   -1.7465    6.1074   -0.0559 H   0  0  0  0  0  0  0  0  0  0  0  0
   -0.0793    3.7136    0.0262 H   0  0  0  0  0  0  0  0  0  0  0  0
   -1.1149    4.4370   -1.3353 H   0  0  0  0  0  0  0  0  0  0  0  0
   -3.1209    3.4290   -0.4689 H   0  0  0  0  0  0  0  0  0  0  0  0
   -2.2430    2.7721    0.9664 H   0  0  0  0  0  0  0  0  0  0  0  0
    3.0871    1.5345   -2.3109 H   0  0  0  0  0  0  0  0  0  0  0  0
    4.5928    1.9443   -1.3114 H   0  0  0  0  0  0  0  0  0  0  0  0
    3.9613   -0.8542   -2.2387 H   0  0  0  0  0  0  0  0  0  0  0  0
    5.0603    0.2997   -3.1730 H   0  0  0  0  0  0  0  0  0  0  0  0
    6.2738   -1.2385   -1.6304 H   0  0  0  0  0  0  0  0  0  0  0  0
    6.4215    0.5532   -1.1647 H   0  0  0  0  0  0  0  0  0  0  0  0
    4.6156   -1.6696   -0.0245 H   0  0  0  0  0  0  0  0  0  0  0  0
    5.6537   -1.3297    2.0912 H   0  0  0  0  0  0  0  0  0  0  0  0
    6.8025   -0.1356    1.4811 H   0  0  0  0  0  0  0  0  0  0  0  0
    7.0567   -3.9884   -0.1708 H   0  0  0  0  0  0  0  0  0  0  0  0
    4.8637    1.2651    0.8889 H   0  0  0  0  0  0  0  0  0  0  0  0
    3.8379   -0.0064    1.6098 H   0  0  0  0  0  0  0  0  0  0  0  0
    2.4918   -1.3047    1.1543 H   0  0  0  0  0  0  0  0  0  0  0  0
    0.2075   -1.9457    1.5990 H   0  0  0  0  0  0  0  0  0  0  0  0
   -2.6103   -0.9406   -1.3130 H   0  0  0  0  0  0  0  0  0  0  0  0
   -4.0557   -2.7330   -0.8548 H   0  0  0  0  0  0  0  0  0  0  0  0
   -5.1287   -3.3381    0.8174 H   0  0  0  0  0  0  0  0  0  0  0  0
   -3.8557   -2.6186    1.7378 H   0  0  0  0  0  0  0  0  0  0  0  0
   -6.0606   -2.1836    2.6436 H   0  0  0  0  0  0  0  0  0  0  0  0
   -5.6982   -0.5524    1.8815 H   0  0  0  0  0  0  0  0  0  0  0  0
   -7.8901   -1.4388    1.0940 H   0  0  0  0  0  0  0  0  0  0  0  0
   -6.8890   -2.7885    0.2921 H   0  0  0  0  0  0  0  0  0  0  0  0
   -7.3172   -0.8218   -1.1809 H   0  0  0  0  0  0  0  0  0  0  0  0
   -6.6519    0.2634    0.0832 H   0  0  0  0  0  0  0  0  0  0  0  0
   -5.3202   -1.2304   -2.0516 H   0  0  0  0  0  0  0  0  0  0  0  0
   -4.7450    0.1008   -1.0614 H   0  0  0  0  0  0  0  0  0  0  0  0
  1  2  1  0
  2  3  1  0
  3  4  1  0
  4  5  1  0
  5  6  2  0
  6  7  1  0
  7  8  1  0
  8  9  1  0
  9 10  1  0
 10 11  1  0
 11 12  1  0
 12 13  1  0
 13 14  1  0
 14 15  2  0
 14 16  1  0
 12 17  1  0
  7 18  2  0
 18 19  1  0
 19 20  2  0
 20 21  1  0
 21 22  2  0
 21 23  1  0
 23 24  1  0
 24 25  1  0
 25 26  1  0
 26 27  1  0
 27 28  1  0
 28 29  1  0
 20  5  1  0
 29 24  1  0
 17  8  1  0
  1 30  1  0
  1 31  1  0
  1 32  1  0
  2 33  1  0
  2 34  1  0
  3 35  1  0
  3 36  1  0
  9 37  1  0
  9 38  1  0
 10 39  1  0
 10 40  1  0
 11 41  1  0
 11 42  1  0
 12 43  1  6
 13 44  1  0
 13 45  1  0
 16 46  1  0
 17 47  1  0
 17 48  1  0
 18 49  1  0
 19 50  1  0
 23 51  1  0
 24 52  1  0
 25 53  1  0
 25 54  1  0
 26 55  1  0
 26 56  1  0
 27 57  1  0
 27 58  1  0
 28 59  1  0
 28 60  1  0
 29 61  1  0
 29 62  1  0
M  END
$$$$
