@<TRIPOS>MOLECULE
*****
 62 64 0 0 0
SMALL
GASTEIGER

@<TRIPOS>ATOM
      1 C          -1.4557    5.2786    0.6090 C.3     1  UNL1       -0.0645
      2 C          -1.0590    4.1021   -0.2638 C.3     1  UNL1       -0.0465
      3 C          -2.1502    3.0209   -0.1310 C.3     1  UNL1       -0.0005
      4 S          -1.7348    1.5910   -1.1380 S.3     1  UNL1       -0.1051
      5 C          -0.3810    0.7170   -0.4216 C.ar    1  UNL1        0.1111
      6 N           0.9271    1.0378   -0.6359 N.ar    1  UNL1       -0.2251
      7 C           1.9490    0.3774   -0.1227 C.ar    1  UNL1        0.1225
      8 N           3.2983    0.6486   -0.3629 N.pl3   1  UNL1       -0.3149
      9 C           3.8257    1.1649   -1.5883 C.3     1  UNL1        0.0135
     10 C           4.6435    0.0075   -2.1894 C.3     1  UNL1       -0.0369
     11 C           5.7464   -0.3504   -1.2048 C.3     1  UNL1       -0.0469
     12 C           5.2059   -0.7193    0.1241 C.3     1  UNL1       -0.0152
     13 C           6.2322   -1.0424    1.1534 C.3     1  UNL1        0.0490
     14 C           7.1060   -2.1761    0.8497 C.2     1  UNL1        0.3050
     15 O           8.0290   -2.4463    1.6372 O.2     1  UNL1       -0.2510
     16 O           6.9528   -2.9729   -0.2830 O.3     1  UNL1       -0.4806
     17 C           4.2821    0.3569    0.6857 C.3     1  UNL1        0.0168
     18 C           1.6991   -0.7319    0.7075 C.ar    1  UNL1       -0.0209
     19 C           0.4095   -1.0808    0.9442 C.ar    1  UNL1       -0.0438
     20 C          -0.6314   -0.3547    0.3765 C.ar    1  UNL1        0.0686
     21 C          -1.9664   -0.9059    0.6671 C.2     1  UNL1        0.2469
     22 O          -2.2339   -1.1273    1.8469 O.2     1  UNL1       -0.2701
     23 N          -2.9058   -1.1835   -0.3142 N.am    1  UNL1       -0.3084
     24 C          -4.2089   -1.7613   -0.2442 C.3     1  UNL1        0.0234
     25 C          -4.6545   -2.3199    1.0616 C.3     1  UNL1       -0.0345
     26 C          -5.8306   -1.6165    1.7175 C.3     1  UNL1       -0.0514
     27 C          -6.9420   -1.7459    0.6787 C.3     1  UNL1       -0.0529
     28 C          -6.5409   -0.7397   -0.3869 C.3     1  UNL1       -0.0514
     29 C          -5.1932   -0.9542   -0.9710 C.3     1  UNL1       -0.0345
     30 H          -0.5446    5.6073    1.1951 H       1  UNL1        0.0230
     31 H          -2.2726    5.0180    1.3073 H       1  UNL1        0.0230
     32 H          -1.7465    6.1074   -0.0559 H       1  UNL1        0.0230
     33 H          -0.0793    3.7136    0.0262 H       1  UNL1        0.0271
     34 H          -1.1149    4.4370   -1.3353 H       1  UNL1        0.0271
     35 H          -3.1209    3.4290   -0.4689 H       1  UNL1        0.0380
     36 H          -2.2430    2.7721    0.9664 H       1  UNL1        0.0380
     37 H           3.0871    1.5345   -2.3109 H       1  UNL1        0.0464
     38 H           4.5928    1.9443   -1.3114 H       1  UNL1        0.0464
     39 H           3.9613   -0.8542   -2.2387 H       1  UNL1        0.0280
     40 H           5.0603    0.2997   -3.1730 H       1  UNL1        0.0280
     41 H           6.2738   -1.2385   -1.6304 H       1  UNL1        0.0269
     42 H           6.4215    0.5532   -1.1647 H       1  UNL1        0.0269
     43 H           4.6156   -1.6696   -0.0245 H       1  UNL1        0.0321
     44 H           5.6537   -1.3297    2.0912 H       1  UNL1        0.0381
     45 H           6.8025   -0.1356    1.4811 H       1  UNL1        0.0381
     46 H           7.0567   -3.9884   -0.1708 H       1  UNL1        0.2951
     47 H           4.8637    1.2651    0.8889 H       1  UNL1        0.0467
     48 H           3.8379   -0.0064    1.6098 H       1  UNL1        0.0467
     49 H           2.4918   -1.3047    1.1543 H       1  UNL1        0.0652
     50 H           0.2075   -1.9457    1.5990 H       1  UNL1        0.0627
     51 H          -2.6103   -0.9406   -1.3130 H       1  UNL1        0.1493
     52 H          -4.0557   -2.7330   -0.8548 H       1  UNL1        0.0498
     53 H          -5.1287   -3.3381    0.8174 H       1  UNL1        0.0283
     54 H          -3.8557   -2.6186    1.7378 H       1  UNL1        0.0283
     55 H          -6.0606   -2.1836    2.6436 H       1  UNL1        0.0266
     56 H          -5.6982   -0.5524    1.8815 H       1  UNL1        0.0266
     57 H          -7.8901   -1.4388    1.0940 H       1  UNL1        0.0265
     58 H          -6.8890   -2.7885    0.2921 H       1  UNL1        0.0265
     59 H          -7.3172   -0.8218   -1.1809 H       1  UNL1        0.0266
     60 H          -6.6519    0.2634    0.0832 H       1  UNL1        0.0266
     61 H          -5.3202   -1.2304   -2.0516 H       1  UNL1        0.0283
     62 H          -4.7450    0.1008   -1.0614 H       1  UNL1        0.0283
@<TRIPOS>BOND
     1     1     2    1
     2     2     3    1
     3     3     4    1
     4     4     5    1
     5     5     6   ar
     6     6     7   ar
     7     7     8    1
     8     8     9    1
     9     9    10    1
    10    10    11    1
    11    11    12    1
    12    12    13    1
    13    13    14    1
    14    14    15    2
    15    14    16    1
    16    12    17    1
    17     7    18   ar
    18    18    19   ar
    19    19    20   ar
    20    20    21    1
    21    21    22    2
    22    21    23   am
    23    23    24    1
    24    24    25    1
    25    25    26    1
    26    26    27    1
    27    27    28    1
    28    28    29    1
    29    20     5   ar
    30    29    24    1
    31    17     8    1
    32     1    30    1
    33     1    31    1
    34     1    32    1
    35     2    33    1
    36     2    34    1
    37     3    35    1
    38     3    36    1
    39     9    37    1
    40     9    38    1
    41    10    39    1
    42    10    40    1
    43    11    41    1
    44    11    42    1
    45    12    43    1
    46    13    44    1
    47    13    45    1
    48    16    46    1
    49    17    47    1
    50    17    48    1
    51    18    49    1
    52    19    50    1
    53    23    51    1
    54    24    52    1
    55    25    53    1
    56    25    54    1
    57    26    55    1
    58    26    56    1
    59    27    57    1
    60    27    58    1
    61    28    59    1
    62    28    60    1
    63    29    61    1
    64    29    62    1
