@<TRIPOS>MOLECULE
*****
 48 52 0 0 0
SMALL
GASTEIGER

@<TRIPOS>ATOM
      1 C          -3.3784    4.3356    0.5903 C.3     1  UNL1       -0.0223
      2 C          -3.1248    3.1567   -0.2826 C.ar    1  UNL1        0.0390
      3 C          -4.0241    2.9092   -1.2955 C.ar    1  UNL1       -0.0406
      4 C          -3.8347    1.8308   -2.1311 C.ar    1  UNL1       -0.0580
      5 C          -2.7149    1.0189   -1.9094 C.ar    1  UNL1       -0.0342
      6 C          -1.8327    1.2906   -0.8885 C.ar    1  UNL1        0.0895
      7 C          -0.6595    0.4263   -0.6562 C.ar    1  UNL1        0.0926
      8 N           0.6192    0.7132   -0.9614 N.ar    1  UNL1       -0.3389
      9 C           1.4009   -0.3114   -0.6081 C.ar    1  UNL1        0.1254
     10 C           2.8656   -0.4320   -0.7557 C.3     1  UNL1        0.0673
     11 N           3.5933    0.0548    0.3767 N.pl3   1  UNL1       -0.3345
     12 C           5.0019   -0.0098    0.3721 C.ar    1  UNL1        0.0631
     13 C           5.6863   -0.5315   -0.6967 C.ar    1  UNL1       -0.0380
     14 C           7.0616   -0.5760   -0.6579 C.ar    1  UNL1       -0.0598
     15 C           7.7995   -0.1133    0.4226 C.ar    1  UNL1       -0.0589
     16 C           7.0625    0.4012    1.4703 C.ar    1  UNL1       -0.0246
     17 C           5.6904    0.4573    1.4571 C.ar    1  UNL1        0.1441
     18 F           5.0246    0.9807    2.5303 F       1  UNL1       -0.2036
     19 N           0.5998   -1.2530   -0.0741 N.ar    1  UNL1       -0.2302
     20 C          -0.6998   -0.8281   -0.0861 C.ar    1  UNL1        0.0998
     21 C          -1.8610   -1.5548    0.4044 C.ar    1  UNL1        0.0208
     22 C          -2.0132   -1.7576    1.7708 C.ar    1  UNL1       -0.0475
     23 C          -3.0857   -2.4402    2.2916 C.ar    1  UNL1       -0.0167
     24 C          -4.0233   -2.9273    1.4059 C.ar    1  UNL1        0.1557
     25 N          -5.1714   -3.6246    1.5605 N.ar    1  UNL1       -0.2149
     26 C          -5.7277   -3.8588    0.3687 C.ar    1  UNL1        0.1390
     27 N          -4.9217   -3.3036   -0.5416 N.ar    1  UNL1       -0.1535
     28 N          -3.8898   -2.7394    0.0825 N.ar    1  UNL1       -0.2198
     29 C          -2.8252   -2.0620   -0.4327 C.ar    1  UNL1        0.0407
     30 N          -2.0439    2.3506   -0.0890 N.ar    1  UNL1       -0.2503
     31 H          -2.6486    4.3602    1.4358 H       1  UNL1        0.0292
     32 H          -3.2689    5.2923    0.0520 H       1  UNL1        0.0292
     33 H          -4.4240    4.3045    0.9956 H       1  UNL1        0.0292
     34 H          -4.8848    3.5814   -1.4214 H       1  UNL1        0.0635
     35 H          -4.5368    1.6389   -2.9201 H       1  UNL1        0.0619
     36 H          -2.5826    0.1803   -2.5819 H       1  UNL1        0.0639
     37 H           0.9293    1.5944   -1.4004 H       1  UNL1        0.1672
     38 H           3.1234   -1.5283   -0.8453 H       1  UNL1        0.0541
     39 H           3.1717    0.1032   -1.6844 H       1  UNL1        0.0541
     40 H           3.0960    0.4492    1.1886 H       1  UNL1        0.1466
     41 H           5.1653   -0.9152   -1.5843 H       1  UNL1        0.0637
     42 H           7.6043   -0.9909   -1.5072 H       1  UNL1        0.0618
     43 H           8.8807   -0.1642    0.4170 H       1  UNL1        0.0618
     44 H           7.6372    0.7659    2.3224 H       1  UNL1        0.0647
     45 H          -1.2667   -1.3667    2.4341 H       1  UNL1        0.0626
     46 H          -3.2210   -2.6088    3.3693 H       1  UNL1        0.0655
     47 H          -6.6392   -4.3869    0.1778 H       1  UNL1        0.1066
     48 H          -2.7091   -1.9118   -1.4850 H       1  UNL1        0.0837
@<TRIPOS>BOND
     1     1     2    1
     2     2     3   ar
     3     3     4   ar
     4     4     5   ar
     5     5     6   ar
     6     6     7    1
     7     7     8   ar
     8     8     9   ar
     9     9    10    1
    10    10    11    1
    11    11    12    1
    12    12    13   ar
    13    13    14   ar
    14    14    15   ar
    15    15    16   ar
    16    16    17   ar
    17    17    18    1
    18     9    19   ar
    19    19    20   ar
    20    20    21    1
    21    21    22   ar
    22    22    23   ar
    23    23    24   ar
    24    24    25   ar
    25    25    26   ar
    26    26    27   ar
    27    27    28   ar
    28    28    29   ar
    29     6    30   ar
    30    30     2   ar
    31    20     7   ar
    32    29    21   ar
    33    17    12   ar
    34    28    24   ar
    35     1    31    1
    36     1    32    1
    37     1    33    1
    38     3    34    1
    39     4    35    1
    40     5    36    1
    41     8    37    1
    42    10    38    1
    43    10    39    1
    44    11    40    1
    45    13    41    1
    46    14    42    1
    47    15    43    1
    48    16    44    1
    49    22    45    1
    50    23    46    1
    51    26    47    1
    52    29    48    1
