@<TRIPOS>MOLECULE
*****
 25 28 0 0 0
SMALL
GASTEIGER

@<TRIPOS>ATOM
      1 O           0.4253   -2.8527   -0.3233 O.2     1  UNL1       -0.2866
      2 C           0.2820   -1.6247   -0.1820 C.2     1  UNL1        0.1945
      3 C           1.4284   -0.7119   -0.0087 C.ar    1  UNL1        0.0315
      4 C           2.7303   -1.1900    0.0041 C.ar    1  UNL1       -0.0503
      5 C           3.8256   -0.3877    0.1612 C.ar    1  UNL1       -0.0610
      6 C           3.6308    0.9738    0.3159 C.ar    1  UNL1       -0.0611
      7 C           2.3285    1.4899    0.3077 C.ar    1  UNL1       -0.0518
      8 C           1.2584    0.6482    0.1472 C.ar    1  UNL1        0.0135
      9 C          -0.1113    1.1795    0.1372 C.ar    1  UNL1        0.1016
     10 N          -0.6790    2.3981    0.2543 N.ar    1  UNL1       -0.1727
     11 N          -2.0224    2.2722    0.1658 N.ar    1  UNL1       -0.2764
     12 C          -2.3439    0.9763   -0.0090 C.ar    1  UNL1        0.0670
     13 C          -3.4950    0.2102   -0.1648 C.ar    1  UNL1       -0.0362
     14 C          -3.4392   -1.1790   -0.3304 C.ar    1  UNL1       -0.0591
     15 C          -2.2227   -1.8074   -0.3405 C.ar    1  UNL1       -0.0502
     16 C          -1.0592   -1.0498   -0.1852 C.ar    1  UNL1        0.0335
     17 C          -1.1519    0.3038   -0.0258 C.ar    1  UNL1        0.0382
     18 H           2.8531   -2.2506   -0.1180 H       1  UNL1        0.0625
     19 H           4.8494   -0.7477    0.1732 H       1  UNL1        0.0618
     20 H           4.4650    1.6515    0.4437 H       1  UNL1        0.0618
     21 H           2.1382    2.5309    0.4238 H       1  UNL1        0.0624
     22 H          -2.7167    3.0298    0.2200 H       1  UNL1        0.1889
     23 H          -4.4371    0.7337   -0.1525 H       1  UNL1        0.0639
     24 H          -4.3806   -1.7286   -0.4484 H       1  UNL1        0.0618
     25 H          -2.1558   -2.8680   -0.4657 H       1  UNL1        0.0625
@<TRIPOS>BOND
     1     1     2    2
     2     2     3    1
     3     3     4   ar
     4     4     5   ar
     5     5     6   ar
     6     6     7   ar
     7     7     8   ar
     8     8     9    1
     9     9    10   ar
    10    10    11   ar
    11    11    12   ar
    12    12    13   ar
    13    13    14   ar
    14    14    15   ar
    15    15    16   ar
    16    16    17   ar
    17    16     2    1
    18     8     3   ar
    19    17     9   ar
    20    17    12   ar
    21     4    18    1
    22     5    19    1
    23     6    20    1
    24     7    21    1
    25    11    22    1
    26    13    23    1
    27    14    24    1
    28    15    25    1
