@<TRIPOS>MOLECULE
*****
 18 18 0 0 0
SMALL
GASTEIGER

@<TRIPOS>ATOM
      1 N          -2.7480   -1.1668   -0.5408 N.pl3   1  UNL1       -0.3579
      2 C          -1.5767   -0.3951   -0.3343 C.ar    1  UNL1        0.0255
      3 C          -0.3724   -1.0211   -0.0072 C.ar    1  UNL1       -0.0235
      4 C           0.7303   -0.2122    0.1806 C.ar    1  UNL1        0.1018
      5 C           1.9435   -0.9467    0.5185 C.2     1  UNL1        0.3404
      6 O           3.2277   -0.5324    0.7798 O.3     1  UNL1       -0.4770
      7 O           2.0623   -2.1946    0.6467 O.2     1  UNL1       -0.2450
      8 C           0.7390    1.1482    0.0726 C.ar    1  UNL1        0.1309
      9 O           1.8740    1.9048    0.2720 O.3     1  UNL1       -0.5059
     10 C          -0.4929    1.6998   -0.2548 C.ar    1  UNL1       -0.0176
     11 C          -1.6492    0.9727   -0.4615 C.ar    1  UNL1       -0.0376
     12 H          -3.6942   -0.7378   -0.4349 H       1  UNL1        0.1423
     13 H          -2.6621   -2.1809   -0.8030 H       1  UNL1        0.1423
     14 H          -0.3555   -2.1013    0.0841 H       1  UNL1        0.0645
     15 H           4.0372   -0.7480    0.1846 H       1  UNL1        0.2954
     16 H           2.0987    2.2977    1.1727 H       1  UNL1        0.2922
     17 H          -0.5848    2.7784   -0.3632 H       1  UNL1        0.0655
     18 H          -2.5769    1.4351   -0.7119 H       1  UNL1        0.0637
@<TRIPOS>BOND
     1     1     2    1
     2     2     3   ar
     3     3     4   ar
     4     4     5    1
     5     5     6    1
     6     5     7    2
     7     4     8   ar
     8     8     9    1
     9     8    10   ar
    10    10    11   ar
    11    11     2   ar
    12     1    12    1
    13     1    13    1
    14     3    14    1
    15     6    15    1
    16     9    16    1
    17    10    17    1
    18    11    18    1
