@<TRIPOS>MOLECULE
*****
 55 59 0 0 0
SMALL
GASTEIGER

@<TRIPOS>ATOM
      1 C           4.2386    0.4929   -1.7857 C.3     1  UNL1       -0.0465
      2 C           2.8009    0.1244   -1.4760 C.3     1  UNL1        0.0209
      3 C           1.9679    1.3477   -1.7091 C.3     1  UNL1       -0.0332
      4 C           2.0819    2.3036   -0.5184 C.3     1  UNL1       -0.0346
      5 C           1.7371    1.6062    0.7580 C.3     1  UNL1        0.0207
      6 N           2.0812    2.5186    1.8418 N.3     1  UNL1       -0.3259
      7 C           2.4506    0.3211    0.9835 C.3     1  UNL1        0.0277
      8 N           2.6485   -0.4856   -0.1952 N.pl3   1  UNL1       -0.3241
      9 C           2.7042   -1.8979   -0.1166 C.ar    1  UNL1        0.0544
     10 C           3.9339   -2.5222   -0.2816 C.ar    1  UNL1       -0.0207
     11 C           3.9459   -3.8874   -0.1598 C.ar    1  UNL1        0.0294
     12 N           2.8595   -4.6187    0.1024 N.ar    1  UNL1       -0.2613
     13 C           1.6719   -3.9564    0.2556 C.ar    1  UNL1        0.0506
     14 C           1.5381   -2.6003    0.1561 C.ar    1  UNL1        0.0732
     15 N           0.3432   -1.8650    0.2641 N.pl3   1  UNL1       -0.2809
     16 C          -0.8872   -2.4773    0.6220 C.ar    1  UNL1        0.2213
     17 N          -1.2036   -3.7390    0.9299 N.ar    1  UNL1       -0.2205
     18 C          -2.5031   -3.8869    1.2101 C.ar    1  UNL1        0.0567
     19 C          -3.0654   -2.6359    1.0743 C.ar    1  UNL1        0.0871
     20 C          -4.3778   -2.1679    1.2368 C.ar    1  UNL1       -0.0326
     21 C          -4.5754   -0.8231    1.0124 C.ar    1  UNL1       -0.0318
     22 C          -3.5505    0.0259    0.6482 C.ar    1  UNL1        0.0974
     23 C          -3.7990    1.4621    0.4163 C.ar    1  UNL1        0.0723
     24 C          -3.7105    2.4029    1.4195 C.ar    1  UNL1        0.1354
     25 F          -3.3851    2.0221    2.6765 F       1  UNL1       -0.2047
     26 C          -3.9414    3.7437    1.2063 C.ar    1  UNL1       -0.0256
     27 C          -4.2789    4.1748   -0.0736 C.ar    1  UNL1       -0.0563
     28 C          -4.3745    3.2577   -1.0942 C.ar    1  UNL1       -0.0256
     29 C          -4.1341    1.9031   -0.8461 C.ar    1  UNL1        0.1354
     30 F          -4.2314    1.0111   -1.8576 F       1  UNL1       -0.2047
     31 N          -2.3256   -0.5000    0.5139 N.ar    1  UNL1       -0.1633
     32 N          -2.0807   -1.8044    0.7213 N.ar    1  UNL1       -0.1997
     33 H           4.2950    1.4104   -2.4116 H       1  UNL1        0.0248
     34 H           4.7572   -0.3084   -2.3480 H       1  UNL1        0.0248
     35 H           4.8350    0.6704   -0.8625 H       1  UNL1        0.0248
     36 H           2.5059   -0.6099   -2.2598 H       1  UNL1        0.0497
     37 H           2.4247    1.9049   -2.5756 H       1  UNL1        0.0283
     38 H           0.9317    1.1405   -1.9773 H       1  UNL1        0.0283
     39 H           3.1472    2.6610   -0.5143 H       1  UNL1        0.0281
     40 H           1.4246    3.1585   -0.6666 H       1  UNL1        0.0281
     41 H           0.6380    1.4174    0.7360 H       1  UNL1        0.0474
     42 H           1.8958    3.4833    1.5068 H       1  UNL1        0.1185
     43 H           3.1242    2.4357    1.9799 H       1  UNL1        0.1185
     44 H           3.4658    0.4743    1.4426 H       1  UNL1        0.0479
     45 H           1.9030   -0.3017    1.7296 H       1  UNL1        0.0479
     46 H           4.8083   -1.9222   -0.4938 H       1  UNL1        0.0652
     47 H           4.9232   -4.3830   -0.2908 H       1  UNL1        0.0830
     48 H           0.7761   -4.5511    0.4673 H       1  UNL1        0.0849
     49 H           0.3280   -0.8245    0.0660 H       1  UNL1        0.1551
     50 H          -3.0429   -4.7912    1.4914 H       1  UNL1        0.0852
     51 H          -5.1635   -2.8527    1.5227 H       1  UNL1        0.0640
     52 H          -5.5785   -0.3992    1.1236 H       1  UNL1        0.0640
     53 H          -3.8748    4.4896    1.9853 H       1  UNL1        0.0646
     54 H          -4.4651    5.2246   -0.2647 H       1  UNL1        0.0619
     55 H          -4.6381    3.6236   -2.0759 H       1  UNL1        0.0646
@<TRIPOS>BOND
     1     1     2    1
     2     2     3    1
     3     3     4    1
     4     4     5    1
     5     5     6    1
     6     5     7    1
     7     7     8    1
     8     8     9    1
     9     9    10   ar
    10    10    11   ar
    11    11    12   ar
    12    12    13   ar
    13    13    14   ar
    14    14    15    1
    15    15    16    1
    16    16    17   ar
    17    17    18   ar
    18    18    19   ar
    19    19    20   ar
    20    20    21   ar
    21    21    22   ar
    22    22    23    1
    23    23    24   ar
    24    24    25    1
    25    24    26   ar
    26    26    27   ar
    27    27    28   ar
    28    28    29   ar
    29    29    30    1
    30    22    31   ar
    31    31    32   ar
    32     8     2    1
    33    14     9   ar
    34    32    16   ar
    35    32    19   ar
    36    29    23   ar
    37     1    33    1
    38     1    34    1
    39     1    35    1
    40     2    36    1
    41     3    37    1
    42     3    38    1
    43     4    39    1
    44     4    40    1
    45     5    41    1
    46     6    42    1
    47     6    43    1
    48     7    44    1
    49     7    45    1
    50    10    46    1
    51    11    47    1
    52    13    48    1
    53    15    49    1
    54    18    50    1
    55    20    51    1
    56    21    52    1
    57    26    53    1
    58    27    54    1
    59    28    55    1
