@<TRIPOS>MOLECULE
*****
 53 55 0 0 0
SMALL
GASTEIGER

@<TRIPOS>ATOM
      1 C          -8.1611    1.5341    0.2508 C.3     1  UNL1       -0.0650
      2 C          -6.8476    0.9203   -0.2654 C.3     1  UNL1       -0.0519
      3 C          -5.7219    1.4215    0.5618 C.3     1  UNL1       -0.0274
      4 C          -4.4181    0.9133    0.1777 C.ar    1  UNL1       -0.0356
      5 C          -4.0488   -0.2361    0.8912 C.ar    1  UNL1       -0.0563
      6 C          -2.8659   -0.9048    0.6687 C.ar    1  UNL1       -0.0402
      7 C          -1.9652   -0.4749   -0.2820 C.ar    1  UNL1        0.0342
      8 N          -0.7670   -1.1940   -0.4786 N.am    1  UNL1       -0.2814
      9 C           0.4819   -1.0436    0.1533 C.2     1  UNL1        0.2500
     10 O           0.2203   -0.1002    0.9286 O.2     1  UNL1       -0.2698
     11 C           1.5842   -1.8952   -0.2053 C.ar    1  UNL1        0.0578
     12 C           1.4301   -2.8434   -1.1740 C.ar    1  UNL1       -0.0478
     13 C           2.4380   -3.6794   -1.5623 C.ar    1  UNL1       -0.0609
     14 C           3.6759   -3.5537   -0.9379 C.ar    1  UNL1       -0.0600
     15 C           3.8047   -2.5879    0.0376 C.ar    1  UNL1       -0.0401
     16 C           2.7773   -1.7522    0.4173 C.ar    1  UNL1        0.0396
     17 N           3.1252   -0.8580    1.4385 N.pl3   1  UNL1       -0.3391
     18 C           4.2648   -0.4973    2.2374 C.3     1  UNL1        0.0357
     19 C           5.3482    0.1501    1.4532 C.ar    1  UNL1       -0.0143
     20 C           5.1139    1.5159    1.2944 C.ar    1  UNL1        0.0096
     21 N           5.9354    2.3607    0.6385 N.ar    1  UNL1       -0.3288
     22 C           7.0592    1.9097    0.0868 C.ar    1  UNL1        0.2487
     23 O           7.8965    2.6083   -0.5469 O.2     1  UNL1       -0.2679
     24 C           7.3472    0.5559    0.2123 C.ar    1  UNL1        0.0031
     25 C           6.5054   -0.2955    0.8817 C.ar    1  UNL1       -0.0506
     26 C          -2.3410    0.6562   -0.9754 C.ar    1  UNL1       -0.0286
     27 C          -3.5240    1.3381   -0.7633 C.ar    1  UNL1        0.0597
     28 C          -3.8213    2.5624   -1.5418 C.3     1  UNL1        0.4177
     29 F          -2.7278    2.8307   -2.3860 F       1  UNL1       -0.1659
     30 F          -4.0323    3.6066   -0.6824 F       1  UNL1       -0.1659
     31 F          -4.8602    2.3601   -2.4404 F       1  UNL1       -0.1659
     32 H          -8.4689    2.3806   -0.4133 H       1  UNL1        0.0230
     33 H          -8.0788    1.8445    1.2953 H       1  UNL1        0.0230
     34 H          -8.9441    0.7624    0.1518 H       1  UNL1        0.0230
     35 H          -6.9643   -0.1975   -0.1277 H       1  UNL1        0.0266
     36 H          -6.7829    1.1788   -1.3075 H       1  UNL1        0.0266
     37 H          -5.6852    2.5364    0.4738 H       1  UNL1        0.0313
     38 H          -5.9789    1.2142    1.6328 H       1  UNL1        0.0313
     39 H          -4.6676   -0.6951    1.6818 H       1  UNL1        0.0621
     40 H          -2.5968   -1.8014    1.2376 H       1  UNL1        0.0636
     41 H          -1.0484   -1.8908   -1.2366 H       1  UNL1        0.1551
     42 H           0.5101   -3.0000   -1.6989 H       1  UNL1        0.0626
     43 H           2.3002   -4.4274   -2.3336 H       1  UNL1        0.0618
     44 H           4.4668   -4.2285   -1.2599 H       1  UNL1        0.0618
     45 H           4.8019   -2.5944    0.4489 H       1  UNL1        0.0636
     46 H           2.2964   -0.2786    1.6882 H       1  UNL1        0.1464
     47 H           4.7374   -1.4434    2.6383 H       1  UNL1        0.0511
     48 H           3.9502    0.1457    3.0636 H       1  UNL1        0.0511
     49 H           4.2381    2.0578    1.6830 H       1  UNL1        0.0811
     50 H           5.7767    3.3705    0.5130 H       1  UNL1        0.1683
     51 H           8.2261    0.0549   -0.1871 H       1  UNL1        0.0672
     52 H           6.6643   -1.3481    1.0307 H       1  UNL1        0.0623
     53 H          -1.6583    1.0317   -1.7373 H       1  UNL1        0.0642
@<TRIPOS>BOND
     1     1     2    1
     2     2     3    1
     3     3     4    1
     4     4     5   ar
     5     5     6   ar
     6     6     7   ar
     7     7     8    1
     8     8     9   am
     9     9    10    2
    10     9    11    1
    11    11    12   ar
    12    12    13   ar
    13    13    14   ar
    14    14    15   ar
    15    15    16   ar
    16    16    17    1
    17    17    18    1
    18    18    19    1
    19    19    20   ar
    20    20    21   ar
    21    21    22   ar
    22    22    23    2
    23    22    24   ar
    24    24    25   ar
    25     7    26   ar
    26    26    27   ar
    27    27    28    1
    28    28    29    1
    29    28    30    1
    30    28    31    1
    31    27     4   ar
    32    16    11   ar
    33    25    19   ar
    34     1    32    1
    35     1    33    1
    36     1    34    1
    37     2    35    1
    38     2    36    1
    39     3    37    1
    40     3    38    1
    41     5    39    1
    42     6    40    1
    43     8    41    1
    44    12    42    1
    45    13    43    1
    46    14    44    1
    47    15    45    1
    48    17    46    1
    49    18    47    1
    50    18    48    1
    51    20    49    1
    52    21    50    1
    53    24    51    1
    54    25    52    1
    55    26    53    1
