@<TRIPOS>MOLECULE
*****
 49 52 0 0 0
SMALL
GASTEIGER

@<TRIPOS>ATOM
      1 N           9.9254   -1.9007    1.1341 N.am    1  UNL1       -0.3253
      2 C           9.4487   -1.2392   -0.0185 C.2     1  UNL1        0.2415
      3 O          10.0197   -1.3673   -1.1111 O.2     1  UNL1       -0.2704
      4 C           8.2690   -0.3972    0.0900 C.ar    1  UNL1        0.0366
      5 C           7.5921   -0.2184    1.2848 C.ar    1  UNL1       -0.0486
      6 C           6.4743    0.5751    1.4035 C.ar    1  UNL1       -0.0473
      7 C           5.9816    1.2344    0.3037 C.ar    1  UNL1        0.0133
      8 S           4.5222    2.2661    0.4747 S.3     1  UNL1       -0.0806
      9 C           3.1081    1.3809    0.2006 C.ar    1  UNL1        0.0710
     10 C           2.2266    0.6394    0.9709 C.ar    1  UNL1        0.0507
     11 N           1.2190    0.0760    0.4419 N.ar    1  UNL1       -0.2318
     12 C           0.8726    0.0852   -0.7470 C.ar    1  UNL1        0.1666
     13 N          -0.1413   -0.4138   -1.6159 N.am    1  UNL1       -0.2485
     14 C          -1.3516    0.3206   -1.8801 C.2     1  UNL1        0.3057
     15 O          -1.4374    1.4234   -1.2882 O.2     1  UNL1       -0.2524
     16 N          -2.3279   -0.2102   -2.7461 N.am    1  UNL1       -0.2920
     17 C          -3.5385    0.5040   -3.0170 C.3     1  UNL1        0.0711
     18 C          -4.3111    0.7028   -1.7610 C.ar    1  UNL1        0.1251
     19 N          -5.1635   -0.2225   -1.2153 N.ar    1  UNL1       -0.2309
     20 C          -5.6903    0.3143   -0.1107 C.ar    1  UNL1        0.0889
     21 C          -6.6616   -0.2985    0.8171 C.ar    1  UNL1        0.0018
     22 C          -7.1445   -1.5714    0.6083 C.ar    1  UNL1       -0.0525
     23 C          -8.0641   -2.1418    1.4935 C.ar    1  UNL1       -0.0611
     24 C          -8.5094   -1.4388    2.5996 C.ar    1  UNL1       -0.0617
     25 C          -8.0178   -0.1659    2.7962 C.ar    1  UNL1       -0.0611
     26 C          -7.1105    0.3941    1.9211 C.ar    1  UNL1       -0.0525
     27 C          -5.1680    1.5780    0.0369 C.ar    1  UNL1        0.0293
     28 N          -4.3184    1.8019   -0.9911 N.ar    1  UNL1       -0.3464
     29 S           2.2507    1.1440   -1.4527 S.2     1  UNL1       -0.0454
     30 C           6.6269    1.0810   -0.8992 C.ar    1  UNL1       -0.0473
     31 C           7.7413    0.2837   -0.9946 C.ar    1  UNL1       -0.0486
     32 H          10.1463   -1.3512    1.9824 H       1  UNL1        0.1453
     33 H          10.0514   -2.9268    1.1260 H       1  UNL1        0.1453
     34 H           7.9844   -0.7405    2.1502 H       1  UNL1        0.0625
     35 H           5.9877    0.6699    2.3883 H       1  UNL1        0.0629
     36 H           2.4707    0.5799    2.0719 H       1  UNL1        0.0847
     37 H          -0.0126   -1.3387   -2.0800 H       1  UNL1        0.1583
     38 H          -2.1899   -1.1443   -3.2139 H       1  UNL1        0.1507
     39 H          -4.2197   -0.0413   -3.7040 H       1  UNL1        0.0543
     40 H          -3.2978    1.5092   -3.4684 H       1  UNL1        0.0543
     41 H          -6.7917   -2.1187   -0.2614 H       1  UNL1        0.0624
     42 H          -8.4468   -3.1410    1.3346 H       1  UNL1        0.0618
     43 H          -9.2193   -1.9066    3.2639 H       1  UNL1        0.0618
     44 H          -8.3716    0.3737    3.6621 H       1  UNL1        0.0618
     45 H          -6.7169    1.3948    2.0657 H       1  UNL1        0.0624
     46 H          -5.3549    2.3136    0.8063 H       1  UNL1        0.0829
     47 H          -3.7860    2.6935   -1.1322 H       1  UNL1        0.1666
     48 H           6.2095    1.6183   -1.7521 H       1  UNL1        0.0629
     49 H           8.2345    0.1810   -1.9678 H       1  UNL1        0.0625
@<TRIPOS>BOND
     1     1     2   am
     2     2     3    2
     3     2     4    1
     4     4     5   ar
     5     5     6   ar
     6     6     7   ar
     7     7     8    1
     8     8     9    1
     9     9    10   ar
    10    10    11   ar
    11    11    12   ar
    12    12    13    1
    13    13    14   am
    14    14    15    2
    15    14    16   am
    16    16    17    1
    17    17    18    1
    18    18    19   ar
    19    19    20   ar
    20    20    21    1
    21    21    22   ar
    22    22    23   ar
    23    23    24   ar
    24    24    25   ar
    25    25    26   ar
    26    20    27   ar
    27    27    28   ar
    28    12    29   ar
    29     7    30   ar
    30    30    31   ar
    31    31     4   ar
    32    29     9   ar
    33    28    18   ar
    34    26    21   ar
    35     1    32    1
    36     1    33    1
    37     5    34    1
    38     6    35    1
    39    10    36    1
    40    13    37    1
    41    16    38    1
    42    17    39    1
    43    17    40    1
    44    22    41    1
    45    23    42    1
    46    24    43    1
    47    25    44    1
    48    26    45    1
    49    27    46    1
    50    28    47    1
    51    30    48    1
    52    31    49    1
