
     RDKit          3D

 56 61  0  0  0  0  0  0  0  0999 V2000
    7.0435    2.0738    0.3736 C   0  0  0  0  0  0  0  0  0  0  0  0
    5.9395    1.1754   -0.0907 N   0  0  0  0  0  0  0  0  0  0  0  0
    6.3561   -0.0020   -0.7829 C   0  0  0  0  0  0  0  0  0  0  0  0
    4.6309    1.5746    0.1873 C   0  0  0  0  0  0  0  0  0  0  0  0
    4.5242    2.7416    0.8283 O   0  0  0  0  0  0  0  0  0  0  0  0
    3.4133    0.9527   -0.0960 N   0  0  0  0  0  0  0  0  0  0  0  0
    2.2534    1.7602    0.3588 C   0  0  0  0  0  0  0  0  0  0  0  0
    1.6270    1.1115    1.6067 C   0  0  0  0  0  0  0  0  0  0  0  0
    0.6760    0.0947    1.1431 N   0  0  0  0  0  0  0  0  0  0  0  0
   -0.5621   -0.1158    1.6282 C   0  0  0  0  0  0  0  0  0  0  0  0
   -1.1717   -1.1303    0.9396 C   0  0  0  0  0  0  0  0  0  0  0  0
   -2.4913   -1.7323    1.0241 C   0  0  0  0  0  0  0  0  0  0  0  0
   -3.6831   -1.1898    0.9603 C   0  0  0  0  0  0  0  0  0  0  0  0
   -3.9935    0.2333    0.7784 C   0  0  0  0  0  0  0  0  0  0  0  0
   -3.6364    1.3447    1.4737 C   0  0  0  0  0  0  0  0  0  0  0  0
   -4.1517    2.4691    0.8821 N   0  0  0  0  0  0  0  0  0  0  0  0
   -4.8301    2.0307   -0.1853 C   0  0  0  0  0  0  0  0  0  0  0  0
   -5.5357    2.7447   -1.1244 C   0  0  0  0  0  0  0  0  0  0  0  0
   -6.1581    2.0665   -2.1512 C   0  0  0  0  0  0  0  0  0  0  0  0
   -6.0852    0.6969   -2.2511 C   0  0  0  0  0  0  0  0  0  0  0  0
   -5.3558    0.0338   -1.2690 C   0  0  0  0  0  0  0  0  0  0  0  0
   -4.7493    0.6959   -0.2672 N   0  0  0  0  0  0  0  0  0  0  0  0
   -4.7387   -2.2289    1.1174 C   0  0  0  0  0  0  0  0  0  0  0  0
   -5.9671   -2.0071    1.0999 O   0  0  0  0  0  0  0  0  0  0  0  0
   -4.0986   -3.4613    1.2839 N   0  0  0  0  0  0  0  0  0  0  0  0
   -2.7135   -3.1927    1.2320 C   0  0  0  0  0  0  0  0  0  0  0  0
   -1.7741   -4.0297    1.3415 O   0  0  0  0  0  0  0  0  0  0  0  0
   -0.2092   -1.5238   -0.0035 C   0  0  0  0  0  0  0  0  0  0  0  0
   -0.2133   -2.4791   -0.9804 C   0  0  0  0  0  0  0  0  0  0  0  0
    0.8684   -2.6998   -1.8197 C   0  0  0  0  0  0  0  0  0  0  0  0
    1.9891   -1.9362   -1.6718 C   0  0  0  0  0  0  0  0  0  0  0  0
    2.0016   -0.9654   -0.6845 C   0  0  0  0  0  0  0  0  0  0  0  0
    0.9375   -0.7513    0.1364 C   0  0  0  0  0  0  0  0  0  0  0  0
    3.3628   -0.3157   -0.7429 C   0  0  0  0  0  0  0  0  0  0  0  0
    7.8455    2.0076   -0.3871 H   0  0  0  0  0  0  0  0  0  0  0  0
    6.6188    3.0884    0.4502 H   0  0  0  0  0  0  0  0  0  0  0  0
    7.3594    1.6780    1.3459 H   0  0  0  0  0  0  0  0  0  0  0  0
    6.3407   -0.8570   -0.0543 H   0  0  0  0  0  0  0  0  0  0  0  0
    5.7990   -0.2132   -1.6957 H   0  0  0  0  0  0  0  0  0  0  0  0
    7.4628    0.1414   -1.0590 H   0  0  0  0  0  0  0  0  0  0  0  0
    1.5091    1.8182   -0.4706 H   0  0  0  0  0  0  0  0  0  0  0  0
    2.6299    2.7419    0.6317 H   0  0  0  0  0  0  0  0  0  0  0  0
    1.1553    1.8672    2.2337 H   0  0  0  0  0  0  0  0  0  0  0  0
    2.4503    0.5517    2.0968 H   0  0  0  0  0  0  0  0  0  0  0  0
   -0.9949    0.4189    2.4402 H   0  0  0  0  0  0  0  0  0  0  0  0
   -3.0438    1.3374    2.3806 H   0  0  0  0  0  0  0  0  0  0  0  0
   -5.6232    3.8275   -1.0900 H   0  0  0  0  0  0  0  0  0  0  0  0
   -6.7140    2.6662   -2.8858 H   0  0  0  0  0  0  0  0  0  0  0  0
   -6.5819    0.1978   -3.0642 H   0  0  0  0  0  0  0  0  0  0  0  0
   -5.2871   -1.0308   -1.3385 H   0  0  0  0  0  0  0  0  0  0  0  0
   -4.5573   -4.3881    1.4185 H   0  0  0  0  0  0  0  0  0  0  0  0
   -1.1134   -3.0914   -1.1087 H   0  0  0  0  0  0  0  0  0  0  0  0
    0.7682   -3.4772   -2.5600 H   0  0  0  0  0  0  0  0  0  0  0  0
    2.8379   -2.1032   -2.3234 H   0  0  0  0  0  0  0  0  0  0  0  0
    4.1117   -1.0491   -0.3681 H   0  0  0  0  0  0  0  0  0  0  0  0
    3.5221   -0.1712   -1.8477 H   0  0  0  0  0  0  0  0  0  0  0  0
  1  2  1  0
  2  3  1  0
  2  4  1  0
  4  5  2  0
  4  6  1  0
  6  7  1  0
  7  8  1  0
  8  9  1  0
  9 10  1  0
 10 11  2  0
 11 12  1  0
 12 13  2  0
 13 14  1  0
 14 15  2  0
 15 16  1  0
 16 17  2  0
 17 18  1  0
 18 19  2  0
 19 20  1  0
 20 21  2  0
 21 22  1  0
 13 23  1  0
 23 24  2  0
 23 25  1  0
 25 26  1  0
 26 27  2  0
 11 28  1  0
 28 29  2  0
 29 30  1  0
 30 31  2  0
 31 32  1  0
 32 33  2  0
 32 34  1  0
 34  6  1  0
 33  9  1  0
 26 12  1  0
 33 28  1  0
 22 14  1  0
 22 17  1  0
  1 35  1  0
  1 36  1  0
  1 37  1  0
  3 38  1  0
  3 39  1  0
  3 40  1  0
  7 41  1  0
  7 42  1  0
  8 43  1  0
  8 44  1  0
 10 45  1  0
 15 46  1  0
 18 47  1  0
 19 48  1  0
 20 49  1  0
 21 50  1  0
 25 51  1  0
 29 52  1  0
 30 53  1  0
 31 54  1  0
 34 55  1  0
 34 56  1  0
M  END
$$$$
