@<TRIPOS>MOLECULE
*****
 56 61 0 0 0
SMALL
GASTEIGER

@<TRIPOS>ATOM
      1 C           7.0435    2.0738    0.3736 C.3     1  UNL1        0.0043
      2 N           5.9395    1.1754   -0.0907 N.am    1  UNL1       -0.2916
      3 C           6.3561   -0.0020   -0.7829 C.3     1  UNL1        0.0043
      4 C           4.6309    1.5746    0.1873 C.2     1  UNL1        0.3046
      5 O           4.5242    2.7416    0.8283 O.2     1  UNL1       -0.2524
      6 N           3.4133    0.9527   -0.0960 N.am    1  UNL1       -0.2794
      7 C           2.2534    1.7602    0.3588 C.3     1  UNL1        0.0345
      8 C           1.6270    1.1115    1.6067 C.3     1  UNL1        0.0392
      9 N           0.6760    0.0947    1.1431 N.ar    1  UNL1       -0.3443
     10 C          -0.5621   -0.1158    1.6282 C.ar    1  UNL1        0.0137
     11 C          -1.1717   -1.1303    0.9396 C.ar    1  UNL1        0.0131
     12 C          -2.4913   -1.7323    1.0241 C.2     1  UNL1        0.0604
     13 C          -3.6831   -1.1898    0.9603 C.2     1  UNL1        0.0751
     14 C          -3.9935    0.2333    0.7784 C.ar    1  UNL1        0.0789
     15 C          -3.6364    1.3447    1.4737 C.ar    1  UNL1        0.0545
     16 N          -4.1517    2.4691    0.8821 N.ar    1  UNL1       -0.2355
     17 C          -4.8301    2.0307   -0.1853 C.ar    1  UNL1        0.1380
     18 C          -5.5357    2.7447   -1.1244 C.ar    1  UNL1       -0.0188
     19 C          -6.1581    2.0665   -2.1512 C.ar    1  UNL1       -0.0569
     20 C          -6.0852    0.6969   -2.2511 C.ar    1  UNL1       -0.0450
     21 C          -5.3558    0.0338   -1.2690 C.ar    1  UNL1        0.0118
     22 N          -4.7493    0.6959   -0.2672 N.ar    1  UNL1       -0.2991
     23 C          -4.7387   -2.2289    1.1174 C.2     1  UNL1        0.2533
     24 O          -5.9671   -2.0071    1.0999 O.2     1  UNL1       -0.2697
     25 N          -4.0986   -3.4613    1.2839 N.am    1  UNL1       -0.2482
     26 C          -2.7135   -3.1927    1.2320 C.2     1  UNL1        0.2519
     27 O          -1.7741   -4.0297    1.3415 O.2     1  UNL1       -0.2697
     28 C          -0.2092   -1.5238   -0.0035 C.ar    1  UNL1        0.0081
     29 C          -0.2133   -2.4791   -0.9804 C.ar    1  UNL1       -0.0520
     30 C           0.8684   -2.6998   -1.8197 C.ar    1  UNL1       -0.0607
     31 C           1.9891   -1.9362   -1.6718 C.ar    1  UNL1       -0.0551
     32 C           2.0016   -0.9654   -0.6845 C.ar    1  UNL1       -0.0060
     33 C           0.9375   -0.7513    0.1364 C.ar    1  UNL1        0.0544
     34 C           3.3628   -0.3157   -0.7429 C.3     1  UNL1        0.0432
     35 H           7.8455    2.0076   -0.3871 H       1  UNL1        0.0429
     36 H           6.6188    3.0884    0.4502 H       1  UNL1        0.0429
     37 H           7.3594    1.6780    1.3459 H       1  UNL1        0.0429
     38 H           6.3407   -0.8570   -0.0543 H       1  UNL1        0.0429
     39 H           5.7990   -0.2132   -1.6957 H       1  UNL1        0.0429
     40 H           7.4628    0.1414   -1.0590 H       1  UNL1        0.0429
     41 H           1.5091    1.8182   -0.4706 H       1  UNL1        0.0483
     42 H           2.6299    2.7419    0.6317 H       1  UNL1        0.0483
     43 H           1.1553    1.8672    2.2337 H       1  UNL1        0.0507
     44 H           2.4503    0.5517    2.0968 H       1  UNL1        0.0507
     45 H          -0.9949    0.4189    2.4402 H       1  UNL1        0.0815
     46 H          -3.0438    1.3374    2.3806 H       1  UNL1        0.0852
     47 H          -5.6232    3.8275   -1.0900 H       1  UNL1        0.0654
     48 H          -6.7140    2.6662   -2.8858 H       1  UNL1        0.0619
     49 H          -6.5819    0.1978   -3.0642 H       1  UNL1        0.0632
     50 H          -5.2871   -1.0308   -1.3385 H       1  UNL1        0.0813
     51 H          -4.5573   -4.3881    1.4185 H       1  UNL1        0.1581
     52 H          -1.1134   -3.0914   -1.1087 H       1  UNL1        0.0624
     53 H           0.7682   -3.4772   -2.5600 H       1  UNL1        0.0618
     54 H           2.8379   -2.1032   -2.3234 H       1  UNL1        0.0621
     55 H           4.1117   -1.0491   -0.3681 H       1  UNL1        0.0515
     56 H           3.5221   -0.1712   -1.8477 H       1  UNL1        0.0515
@<TRIPOS>BOND
     1     1     2    1
     2     2     3    1
     3     2     4   am
     4     4     5    2
     5     4     6   am
     6     6     7    1
     7     7     8    1
     8     8     9    1
     9     9    10   ar
    10    10    11   ar
    11    11    12    1
    12    12    13    2
    13    13    14    1
    14    14    15   ar
    15    15    16   ar
    16    16    17   ar
    17    17    18   ar
    18    18    19   ar
    19    19    20   ar
    20    20    21   ar
    21    21    22   ar
    22    13    23    1
    23    23    24    2
    24    23    25   am
    25    25    26   am
    26    26    27    2
    27    11    28   ar
    28    28    29   ar
    29    29    30   ar
    30    30    31   ar
    31    31    32   ar
    32    32    33   ar
    33    32    34    1
    34    34     6    1
    35    33     9   ar
    36    26    12    1
    37    33    28   ar
    38    22    14   ar
    39    22    17   ar
    40     1    35    1
    41     1    36    1
    42     1    37    1
    43     3    38    1
    44     3    39    1
    45     3    40    1
    46     7    41    1
    47     7    42    1
    48     8    43    1
    49     8    44    1
    50    10    45    1
    51    15    46    1
    52    18    47    1
    53    19    48    1
    54    20    49    1
    55    21    50    1
    56    25    51    1
    57    29    52    1
    58    30    53    1
    59    31    54    1
    60    34    55    1
    61    34    56    1
