
     RDKit          3D

 52 55  0  0  0  0  0  0  0  0999 V2000
    9.4607   -1.3042    1.2108 C   0  0  0  0  0  0  0  0  0  0  0  0
    8.8214   -0.8031    0.0790 O   0  0  0  0  0  0  0  0  0  0  0  0
    7.4814   -0.5881   -0.1040 C   0  0  0  0  0  0  0  0  0  0  0  0
    6.5141   -0.8397    0.8316 C   0  0  0  0  0  0  0  0  0  0  0  0
    5.1672   -0.5868    0.5506 C   0  0  0  0  0  0  0  0  0  0  0  0
    4.7395   -0.0820   -0.6537 C   0  0  0  0  0  0  0  0  0  0  0  0
    3.3420    0.1842   -0.9692 C   0  0  0  0  0  0  0  0  0  0  0  0
    3.0390    0.6612   -2.0849 O   0  0  0  0  0  0  0  0  0  0  0  0
    2.3038   -0.0824   -0.0455 N   0  0  0  0  0  0  0  0  0  0  0  0
    0.9244    0.1786   -0.3580 C   0  0  0  0  0  0  0  0  0  0  0  0
    0.1424   -0.7906   -0.9645 C   0  0  0  0  0  0  0  0  0  0  0  0
   -1.1790   -0.5235   -1.2528 C   0  0  0  0  0  0  0  0  0  0  0  0
   -1.7788    0.6869   -0.9646 C   0  0  0  0  0  0  0  0  0  0  0  0
   -3.1710    0.9807   -1.2666 C   0  0  0  0  0  0  0  0  0  0  0  0
   -3.3987    1.7072   -2.2814 O   0  0  0  0  0  0  0  0  0  0  0  0
   -4.2464    0.4919   -0.4815 N   0  0  0  0  0  0  0  0  0  0  0  0
   -5.5726    0.8355   -0.8580 C   0  0  0  0  0  0  0  0  0  0  0  0
   -6.1772    1.9895   -0.4293 C   0  0  0  0  0  0  0  0  0  0  0  0
   -7.4957    2.2841   -0.8129 C   0  0  0  0  0  0  0  0  0  0  0  0
   -8.1423    1.4214   -1.5994 N   0  0  0  0  0  0  0  0  0  0  0  0
   -7.5542    0.2986   -2.0172 C   0  0  0  0  0  0  0  0  0  0  0  0
   -6.3016    0.0227   -1.6503 N   0  0  0  0  0  0  0  0  0  0  0  0
   -4.0283   -0.3544    0.6409 C   0  0  0  0  0  0  0  0  0  0  0  0
   -4.0702   -1.7462    0.4740 C   0  0  0  0  0  0  0  0  0  0  0  0
   -3.8614   -2.6054    1.5314 C   0  0  0  0  0  0  0  0  0  0  0  0
   -3.6014   -2.1381    2.8021 C   0  0  0  0  0  0  0  0  0  0  0  0
   -3.5582   -0.7634    2.9764 C   0  0  0  0  0  0  0  0  0  0  0  0
   -3.7692    0.0940    1.9084 C   0  0  0  0  0  0  0  0  0  0  0  0
   -3.6792    1.8122    2.2239 Cl  0  0  0  0  0  0  0  0  0  0  0  0
   -1.0061    1.6549   -0.3616 C   0  0  0  0  0  0  0  0  0  0  0  0
    0.3255    1.3850   -0.0700 C   0  0  0  0  0  0  0  0  0  0  0  0
    5.7410    0.1701   -1.6001 C   0  0  0  0  0  0  0  0  0  0  0  0
    7.0661   -0.0813   -1.3161 C   0  0  0  0  0  0  0  0  0  0  0  0
    8.8044   -1.3470    2.1112 H   0  0  0  0  0  0  0  0  0  0  0  0
    9.9112   -2.3014    1.0718 H   0  0  0  0  0  0  0  0  0  0  0  0
   10.2746   -0.5640    1.4699 H   0  0  0  0  0  0  0  0  0  0  0  0
    6.7876   -1.2344    1.7898 H   0  0  0  0  0  0  0  0  0  0  0  0
    4.4291   -0.7901    1.3092 H   0  0  0  0  0  0  0  0  0  0  0  0
    2.4875   -0.4757    0.8935 H   0  0  0  0  0  0  0  0  0  0  0  0
    0.6098   -1.7352   -1.1943 H   0  0  0  0  0  0  0  0  0  0  0  0
   -1.8144   -1.2691   -1.7242 H   0  0  0  0  0  0  0  0  0  0  0  0
   -5.6461    2.6753    0.1964 H   0  0  0  0  0  0  0  0  0  0  0  0
   -7.9541    3.2131   -0.4580 H   0  0  0  0  0  0  0  0  0  0  0  0
   -8.1362   -0.3529   -2.6515 H   0  0  0  0  0  0  0  0  0  0  0  0
   -4.2771   -2.1106   -0.5431 H   0  0  0  0  0  0  0  0  0  0  0  0
   -3.8956   -3.6753    1.3788 H   0  0  0  0  0  0  0  0  0  0  0  0
   -3.4370   -2.7935    3.6442 H   0  0  0  0  0  0  0  0  0  0  0  0
   -3.3586   -0.4038    3.9809 H   0  0  0  0  0  0  0  0  0  0  0  0
   -1.4556    2.6042   -0.1342 H   0  0  0  0  0  0  0  0  0  0  0  0
    0.9579    2.1419    0.4127 H   0  0  0  0  0  0  0  0  0  0  0  0
    5.4236    0.5686   -2.5540 H   0  0  0  0  0  0  0  0  0  0  0  0
    7.8118    0.1308   -2.0866 H   0  0  0  0  0  0  0  0  0  0  0  0
  1  2  1  0
  2  3  1  0
  3  4  2  0
  4  5  1  0
  5  6  2  0
  6  7  1  0
  7  8  2  0
  7  9  1  0
  9 10  1  0
 10 11  2  0
 11 12  1  0
 12 13  2  0
 13 14  1  0
 14 15  2  0
 14 16  1  0
 16 17  1  0
 17 18  2  0
 18 19  1  0
 19 20  2  0
 20 21  1  0
 21 22  2  0
 16 23  1  0
 23 24  2  0
 24 25  1  0
 25 26  2  0
 26 27  1  0
 27 28  2  0
 28 29  1  0
 13 30  1  0
 30 31  2  0
  6 32  1  0
 32 33  2  0
 33  3  1  0
 31 10  1  0
 22 17  1  0
 28 23  1  0
  1 34  1  0
  1 35  1  0
  1 36  1  0
  4 37  1  0
  5 38  1  0
  9 39  1  0
 11 40  1  0
 12 41  1  0
 18 42  1  0
 19 43  1  0
 21 44  1  0
 24 45  1  0
 25 46  1  0
 26 47  1  0
 27 48  1  0
 30 49  1  0
 31 50  1  0
 32 51  1  0
 33 52  1  0
M  END
$$$$
