@<TRIPOS>MOLECULE
*****
 52 55 0 0 0
SMALL
GASTEIGER

@<TRIPOS>ATOM
      1 C           9.4607   -1.3042    1.2108 C.3     1  UNL1        0.0788
      2 O           8.8214   -0.8031    0.0790 O.3     1  UNL1       -0.4951
      3 C           7.4814   -0.5881   -0.1040 C.ar    1  UNL1        0.1201
      4 C           6.5141   -0.8397    0.8316 C.ar    1  UNL1       -0.0192
      5 C           5.1672   -0.5868    0.5506 C.ar    1  UNL1       -0.0462
      6 C           4.7395   -0.0820   -0.6537 C.ar    1  UNL1        0.0372
      7 C           3.3420    0.1842   -0.9692 C.2     1  UNL1        0.2483
      8 O           3.0390    0.6612   -2.0849 O.2     1  UNL1       -0.2699
      9 N           2.3038   -0.0824   -0.0455 N.am    1  UNL1       -0.2815
     10 C           0.9244    0.1786   -0.3580 C.ar    1  UNL1        0.0337
     11 C           0.1424   -0.7906   -0.9645 C.ar    1  UNL1       -0.0398
     12 C          -1.1790   -0.5235   -1.2528 C.ar    1  UNL1       -0.0479
     13 C          -1.7788    0.6869   -0.9646 C.ar    1  UNL1        0.0377
     14 C          -3.1710    0.9807   -1.2666 C.2     1  UNL1        0.2563
     15 O          -3.3987    1.7072   -2.2814 O.2     1  UNL1       -0.2692
     16 N          -4.2464    0.4919   -0.4815 N.am    1  UNL1       -0.2189
     17 C          -5.5726    0.8355   -0.8580 C.ar    1  UNL1        0.1354
     18 C          -6.1772    1.9895   -0.4293 C.ar    1  UNL1       -0.0028
     19 C          -7.4957    2.2841   -0.8129 C.ar    1  UNL1        0.0326
     20 N          -8.1423    1.4214   -1.5994 N.ar    1  UNL1       -0.2436
     21 C          -7.5542    0.2986   -2.0172 C.ar    1  UNL1        0.1180
     22 N          -6.3016    0.0227   -1.6503 N.ar    1  UNL1       -0.2200
     23 C          -4.0283   -0.3544    0.6409 C.ar    1  UNL1        0.0613
     24 C          -4.0702   -1.7462    0.4740 C.ar    1  UNL1       -0.0385
     25 C          -3.8614   -2.6054    1.5314 C.ar    1  UNL1       -0.0599
     26 C          -3.6014   -2.1381    2.8021 C.ar    1  UNL1       -0.0603
     27 C          -3.5582   -0.7634    2.9764 C.ar    1  UNL1       -0.0416
     28 C          -3.7692    0.0940    1.9084 C.ar    1  UNL1        0.0627
     29 CL         -3.6792    1.8122    2.2239 Cl      1  UNL1       -0.0816
     30 C          -1.0061    1.6549   -0.3616 C.ar    1  UNL1       -0.0479
     31 C           0.3255    1.3850   -0.0700 C.ar    1  UNL1       -0.0398
     32 C           5.7410    0.1701   -1.6001 C.ar    1  UNL1       -0.0462
     33 C           7.0661   -0.0813   -1.3161 C.ar    1  UNL1       -0.0192
     34 H           8.8044   -1.3470    2.1112 H       1  UNL1        0.0660
     35 H           9.9112   -2.3014    1.0718 H       1  UNL1        0.0660
     36 H          10.2746   -0.5640    1.4699 H       1  UNL1        0.0660
     37 H           6.7876   -1.2344    1.7898 H       1  UNL1        0.0654
     38 H           4.4291   -0.7901    1.3092 H       1  UNL1        0.0626
     39 H           2.4875   -0.4757    0.8935 H       1  UNL1        0.1551
     40 H           0.6098   -1.7352   -1.1943 H       1  UNL1        0.0636
     41 H          -1.8144   -1.2691   -1.7242 H       1  UNL1        0.0626
     42 H          -5.6461    2.6753    0.1964 H       1  UNL1        0.0667
     43 H          -7.9541    3.2131   -0.4580 H       1  UNL1        0.0831
     44 H          -8.1362   -0.3529   -2.6515 H       1  UNL1        0.1047
     45 H          -4.2771   -2.1106   -0.5431 H       1  UNL1        0.0637
     46 H          -3.8956   -3.6753    1.3788 H       1  UNL1        0.0618
     47 H          -3.4370   -2.7935    3.6442 H       1  UNL1        0.0618
     48 H          -3.3586   -0.4038    3.9809 H       1  UNL1        0.0633
     49 H          -1.4556    2.6042   -0.1342 H       1  UNL1        0.0626
     50 H           0.9579    2.1419    0.4127 H       1  UNL1        0.0636
     51 H           5.4236    0.5686   -2.5540 H       1  UNL1        0.0626
     52 H           7.8118    0.1308   -2.0866 H       1  UNL1        0.0654
@<TRIPOS>BOND
     1     1     2    1
     2     2     3    1
     3     3     4   ar
     4     4     5   ar
     5     5     6   ar
     6     6     7    1
     7     7     8    2
     8     7     9   am
     9     9    10    1
    10    10    11   ar
    11    11    12   ar
    12    12    13   ar
    13    13    14    1
    14    14    15    2
    15    14    16   am
    16    16    17    1
    17    17    18   ar
    18    18    19   ar
    19    19    20   ar
    20    20    21   ar
    21    21    22   ar
    22    16    23    1
    23    23    24   ar
    24    24    25   ar
    25    25    26   ar
    26    26    27   ar
    27    27    28   ar
    28    28    29    1
    29    13    30   ar
    30    30    31   ar
    31     6    32   ar
    32    32    33   ar
    33    33     3   ar
    34    31    10   ar
    35    22    17   ar
    36    28    23   ar
    37     1    34    1
    38     1    35    1
    39     1    36    1
    40     4    37    1
    41     5    38    1
    42     9    39    1
    43    11    40    1
    44    12    41    1
    45    18    42    1
    46    19    43    1
    47    21    44    1
    48    24    45    1
    49    25    46    1
    50    26    47    1
    51    27    48    1
    52    30    49    1
    53    31    50    1
    54    32    51    1
    55    33    52    1
