
     RDKit          3D

 52 56  0  0  0  0  0  0  0  0999 V2000
   -3.7508   -1.8679   -1.3346 C   0  0  0  0  0  0  0  0  0  0  0  0
   -4.7371   -1.1473   -0.6777 O   0  0  0  0  0  0  0  0  0  0  0  0
   -4.2249   -0.0820    0.0412 C   0  0  0  0  0  0  0  0  0  0  0  0
   -3.2798   -0.4580    1.0681 N   0  0  0  0  0  0  0  0  0  0  0  0
   -3.6342   -0.7691    2.3272 C   0  0  0  0  0  0  0  0  0  0  0  0
   -2.4840   -1.0751    3.0135 C   0  0  0  0  0  0  0  0  0  0  0  0
   -2.3583   -1.4763    4.4224 C   0  0  0  0  0  0  0  0  0  0  0  0
   -1.4400   -0.9343    2.1184 C   0  0  0  0  0  0  0  0  0  0  0  0
   -1.9514   -0.5472    0.9024 C   0  0  0  0  0  0  0  0  0  0  0  0
   -0.8654   -0.3813   -0.0878 C   0  0  0  0  0  0  0  0  0  0  0  0
   -0.8241    0.9848   -0.6511 C   0  0  0  0  0  0  0  0  0  0  0  0
   -0.3708    2.0231    0.1242 C   0  0  0  0  0  0  0  0  0  0  0  0
   -0.3089    3.3255   -0.3509 C   0  0  0  0  0  0  0  0  0  0  0  0
   -0.7094    3.5971   -1.6312 C   0  0  0  0  0  0  0  0  0  0  0  0
   -0.6365    5.2309   -2.2410 Cl  0  0  0  0  0  0  0  0  0  0  0  0
   -1.1660    2.5633   -2.4184 C   0  0  0  0  0  0  0  0  0  0  0  0
   -1.2271    1.2508   -1.9357 C   0  0  0  0  0  0  0  0  0  0  0  0
    0.3612   -0.7011    0.6268 N   0  0  0  0  0  0  0  0  0  0  0  0
    1.6513   -0.6642    0.0291 C   0  0  0  0  0  0  0  0  0  0  0  0
    2.1538   -1.8104   -0.5792 C   0  0  0  0  0  0  0  0  0  0  0  0
    3.4045   -1.7917   -1.1643 C   0  0  0  0  0  0  0  0  0  0  0  0
    3.9715   -3.0071   -1.8254 C   0  0  0  0  0  0  0  0  0  0  0  0
    4.0971   -0.5991   -1.1057 C   0  0  0  0  0  0  0  0  0  0  0  0
    5.3154   -0.2313   -1.5625 N   0  0  0  0  0  0  0  0  0  0  0  0
    5.5328    1.0396   -1.2540 N   0  0  0  0  0  0  0  0  0  0  0  0
    4.4941    1.5428   -0.6003 N   0  0  0  0  0  0  0  0  0  0  0  0
    4.3282    2.8971   -0.0837 C   0  0  0  0  0  0  0  0  0  0  0  0
    3.5890    0.5353   -0.4985 C   0  0  0  0  0  0  0  0  0  0  0  0
    2.3733    0.4696    0.0548 N   0  0  0  0  0  0  0  0  0  0  0  0
    0.0223   -1.0361    1.9595 C   0  0  0  0  0  0  0  0  0  0  0  0
    0.8133   -1.3714    2.8864 O   0  0  0  0  0  0  0  0  0  0  0  0
   -3.2442   -1.1798   -2.0256 H   0  0  0  0  0  0  0  0  0  0  0  0
   -3.0580   -2.3459   -0.5971 H   0  0  0  0  0  0  0  0  0  0  0  0
   -4.2279   -2.6842   -1.9152 H   0  0  0  0  0  0  0  0  0  0  0  0
   -3.7643    0.6109   -0.6921 H   0  0  0  0  0  0  0  0  0  0  0  0
   -5.1129    0.4504    0.4787 H   0  0  0  0  0  0  0  0  0  0  0  0
   -4.6501   -0.7663    2.6916 H   0  0  0  0  0  0  0  0  0  0  0  0
   -1.7198   -0.7242    4.9567 H   0  0  0  0  0  0  0  0  0  0  0  0
   -1.7805   -2.4341    4.4725 H   0  0  0  0  0  0  0  0  0  0  0  0
   -3.3409   -1.5625    4.9055 H   0  0  0  0  0  0  0  0  0  0  0  0
   -1.0036   -1.1439   -0.8925 H   0  0  0  0  0  0  0  0  0  0  0  0
   -0.0460    1.8453    1.1415 H   0  0  0  0  0  0  0  0  0  0  0  0
    0.0532    4.1123    0.2896 H   0  0  0  0  0  0  0  0  0  0  0  0
   -1.4868    2.7452   -3.4262 H   0  0  0  0  0  0  0  0  0  0  0  0
   -1.5905    0.4679   -2.5823 H   0  0  0  0  0  0  0  0  0  0  0  0
    1.5606   -2.7275   -0.5957 H   0  0  0  0  0  0  0  0  0  0  0  0
    4.6578   -2.6596   -2.6275 H   0  0  0  0  0  0  0  0  0  0  0  0
    3.1811   -3.6747   -2.2001 H   0  0  0  0  0  0  0  0  0  0  0  0
    4.6283   -3.5679   -1.0975 H   0  0  0  0  0  0  0  0  0  0  0  0
    3.8020    3.4928   -0.8585 H   0  0  0  0  0  0  0  0  0  0  0  0
    3.6937    2.9213    0.8184 H   0  0  0  0  0  0  0  0  0  0  0  0
    5.3099    3.3154    0.1842 H   0  0  0  0  0  0  0  0  0  0  0  0
  1  2  1  0
  2  3  1  0
  3  4  1  0
  4  5  1  0
  5  6  2  0
  6  7  1  0
  6  8  1  0
  8  9  2  0
  9 10  1  0
 10 11  1  0
 11 12  2  0
 12 13  1  0
 13 14  2  0
 14 15  1  0
 14 16  1  0
 16 17  2  0
 10 18  1  0
 18 19  1  0
 19 20  2  0
 20 21  1  0
 21 22  1  0
 21 23  2  0
 23 24  1  0
 24 25  2  0
 25 26  1  0
 26 27  1  0
 26 28  1  0
 28 29  2  0
 18 30  1  0
 30 31  2  0
  9  4  1  0
 17 11  1  0
 29 19  1  0
 30  8  1  0
 28 23  1  0
  1 32  1  0
  1 33  1  0
  1 34  1  0
  3 35  1  0
  3 36  1  0
  5 37  1  0
  7 38  1  0
  7 39  1  0
  7 40  1  0
 10 41  1  0
 12 42  1  0
 13 43  1  0
 16 44  1  0
 17 45  1  0
 20 46  1  0
 22 47  1  0
 22 48  1  0
 22 49  1  0
 27 50  1  0
 27 51  1  0
 27 52  1  0
M  END
$$$$
