@<TRIPOS>MOLECULE
*****
 52 56 0 0 0
SMALL
GASTEIGER

@<TRIPOS>ATOM
      1 C          -3.7508   -1.8679   -1.3346 C.3     1  UNL1        0.0387
      2 O          -4.7371   -1.1473   -0.6777 O.3     1  UNL1       -0.3625
      3 C          -4.2249   -0.0820    0.0412 C.3     1  UNL1        0.1235
      4 N          -3.2798   -0.4580    1.0681 N.ar    1  UNL1       -0.3242
      5 C          -3.6342   -0.7691    2.3272 C.ar    1  UNL1        0.0108
      6 C          -2.4840   -1.0751    3.0135 C.ar    1  UNL1       -0.0204
      7 C          -2.3583   -1.4763    4.4224 C.3     1  UNL1       -0.0376
      8 C          -1.4400   -0.9343    2.1184 C.ar    1  UNL1        0.0631
      9 C          -1.9514   -0.5472    0.9024 C.ar    1  UNL1        0.0585
     10 C          -0.8654   -0.3813   -0.0878 C.3     1  UNL1        0.0986
     11 C          -0.8241    0.9848   -0.6511 C.ar    1  UNL1       -0.0207
     12 C          -0.3708    2.0231    0.1242 C.ar    1  UNL1       -0.0550
     13 C          -0.3089    3.3255   -0.3509 C.ar    1  UNL1       -0.0431
     14 C          -0.7094    3.5971   -1.6312 C.ar    1  UNL1        0.0410
     15 CL         -0.6365    5.2309   -2.2410 Cl      1  UNL1       -0.0835
     16 C          -1.1660    2.5633   -2.4184 C.ar    1  UNL1       -0.0431
     17 C          -1.2271    1.2508   -1.9357 C.ar    1  UNL1       -0.0550
     18 N           0.3612   -0.7011    0.6268 N.am    1  UNL1       -0.2388
     19 C           1.6513   -0.6642    0.0291 C.ar    1  UNL1        0.1313
     20 C           2.1538   -1.8104   -0.5792 C.ar    1  UNL1       -0.0161
     21 C           3.4045   -1.7917   -1.1643 C.ar    1  UNL1       -0.0164
     22 C           3.9715   -3.0071   -1.8254 C.3     1  UNL1       -0.0374
     23 C           4.0971   -0.5991   -1.1057 C.ar    1  UNL1        0.1345
     24 N           5.3154   -0.2313   -1.5625 N.ar    1  UNL1       -0.1276
     25 N           5.5328    1.0396   -1.2540 N.ar    1  UNL1       -0.0635
     26 N           4.4941    1.5428   -0.6003 N.ar    1  UNL1       -0.2297
     27 C           4.3282    2.8971   -0.0837 C.3     1  UNL1        0.0341
     28 C           3.5890    0.5353   -0.4985 C.ar    1  UNL1        0.1803
     29 N           2.3733    0.4696    0.0548 N.ar    1  UNL1       -0.2108
     30 C           0.0223   -1.0361    1.9595 C.2     1  UNL1        0.2548
     31 O           0.8133   -1.3714    2.8864 O.2     1  UNL1       -0.2695
     32 H          -3.2442   -1.1798   -2.0256 H       1  UNL1        0.0524
     33 H          -3.0580   -2.3459   -0.5971 H       1  UNL1        0.0524
     34 H          -4.2279   -2.6842   -1.9152 H       1  UNL1        0.0524
     35 H          -3.7643    0.6109   -0.6921 H       1  UNL1        0.0800
     36 H          -5.1129    0.4504    0.4787 H       1  UNL1        0.0800
     37 H          -4.6501   -0.7663    2.6916 H       1  UNL1        0.0812
     38 H          -1.7198   -0.7242    4.9567 H       1  UNL1        0.0278
     39 H          -1.7805   -2.4341    4.4725 H       1  UNL1        0.0278
     40 H          -3.3409   -1.5625    4.9055 H       1  UNL1        0.0278
     41 H          -1.0036   -1.1439   -0.8925 H       1  UNL1        0.0620
     42 H          -0.0460    1.8453    1.1415 H       1  UNL1        0.0621
     43 H           0.0532    4.1123    0.2896 H       1  UNL1        0.0632
     44 H          -1.4868    2.7452   -3.4262 H       1  UNL1        0.0632
     45 H          -1.5905    0.4679   -2.5823 H       1  UNL1        0.0621
     46 H           1.5606   -2.7275   -0.5957 H       1  UNL1        0.0655
     47 H           4.6578   -2.6596   -2.6275 H       1  UNL1        0.0278
     48 H           3.1811   -3.6747   -2.2001 H       1  UNL1        0.0278
     49 H           4.6283   -3.5679   -1.0975 H       1  UNL1        0.0278
     50 H           3.8020    3.4928   -0.8585 H       1  UNL1        0.0474
     51 H           3.6937    2.9213    0.8184 H       1  UNL1        0.0474
     52 H           5.3099    3.3154    0.1842 H       1  UNL1        0.0474
@<TRIPOS>BOND
     1     1     2    1
     2     2     3    1
     3     3     4    1
     4     4     5   ar
     5     5     6   ar
     6     6     7    1
     7     6     8   ar
     8     8     9   ar
     9     9    10    1
    10    10    11    1
    11    11    12   ar
    12    12    13   ar
    13    13    14   ar
    14    14    15    1
    15    14    16   ar
    16    16    17   ar
    17    10    18    1
    18    18    19    1
    19    19    20   ar
    20    20    21   ar
    21    21    22    1
    22    21    23   ar
    23    23    24   ar
    24    24    25   ar
    25    25    26   ar
    26    26    27    1
    27    26    28   ar
    28    28    29   ar
    29    18    30   am
    30    30    31    2
    31     9     4   ar
    32    17    11   ar
    33    29    19   ar
    34    30     8    1
    35    28    23   ar
    36     1    32    1
    37     1    33    1
    38     1    34    1
    39     3    35    1
    40     3    36    1
    41     5    37    1
    42     7    38    1
    43     7    39    1
    44     7    40    1
    45    10    41    1
    46    12    42    1
    47    13    43    1
    48    16    44    1
    49    17    45    1
    50    20    46    1
    51    22    47    1
    52    22    48    1
    53    22    49    1
    54    27    50    1
    55    27    51    1
    56    27    52    1
