@<TRIPOS>MOLECULE
*****
 62 65 0 0 0
SMALL
GASTEIGER

@<TRIPOS>ATOM
      1 C          -4.6971   -3.4642   -2.2121 C.3     1  UNL1        0.0705
      2 S          -4.1076   -3.1804   -0.5636 S.O2    1  UNL1        0.0265
      3 O          -2.6993   -3.6914   -0.4664 O.2     1  UNL1       -0.1585
      4 O          -4.9326   -3.9658    0.4157 O.2     1  UNL1       -0.1585
      5 N          -4.2207   -1.5062   -0.1363 N.3     1  UNL1       -0.1947
      6 C          -3.3971   -0.6938   -1.0223 C.3     1  UNL1        0.0190
      7 C          -3.4383    0.7663   -0.7334 C.3     1  UNL1       -0.0161
      8 C          -2.9382    1.1853    0.6294 C.3     1  UNL1        0.0496
      9 N          -1.5755    0.9117    0.9089 N.am    1  UNL1       -0.3069
     10 C          -0.5223    0.7377   -0.0198 C.2     1  UNL1        0.2336
     11 O          -0.7030    0.8306   -1.2593 O.2     1  UNL1       -0.2738
     12 C           0.8782    0.4293    0.4521 C.3     1  UNL1        0.0965
     13 N           0.9024    0.3666    1.9050 N.3     1  UNL1       -0.3173
     14 C           1.3030   -0.9655   -0.0247 C.3     1  UNL1       -0.0104
     15 C           2.6735   -1.1923    0.6210 C.3     1  UNL1        0.0156
     16 N           3.5918   -0.2811   -0.0226 N.pl3   1  UNL1       -0.3144
     17 C           4.9635   -0.5900   -0.0479 C.ar    1  UNL1        0.1337
     18 N           5.8301    0.2441    0.5514 N.ar    1  UNL1       -0.2200
     19 C           7.1634    0.0069    0.5684 C.ar    1  UNL1        0.1204
     20 N           7.6733   -1.0895   -0.0238 N.ar    1  UNL1       -0.2178
     21 C           6.8550   -1.9728   -0.6467 C.ar    1  UNL1        0.1432
     22 N           7.0613   -3.1194   -1.3059 N.ar    1  UNL1       -0.3457
     23 C           5.8998   -3.6168   -1.7408 C.ar    1  UNL1        0.0042
     24 C           4.9134   -2.7442   -1.3378 C.ar    1  UNL1       -0.0318
     25 C           5.4838   -1.7129   -0.6548 C.ar    1  UNL1        0.0585
     26 C           3.0814    0.9312   -0.6288 C.3     1  UNL1        0.0156
     27 C           1.8567    1.4740    0.0213 C.3     1  UNL1       -0.0104
     28 C          -3.4331    2.5162    0.9429 C.ar    1  UNL1       -0.0271
     29 C          -4.6595    2.6542    1.5740 C.ar    1  UNL1       -0.0554
     30 C          -5.1387    3.9030    1.8762 C.ar    1  UNL1       -0.0431
     31 C          -4.4417    5.0559    1.5749 C.ar    1  UNL1        0.0410
     32 CL         -5.0502    6.6556    1.9595 Cl      1  UNL1       -0.0835
     33 C          -3.2220    4.9312    0.9477 C.ar    1  UNL1       -0.0431
     34 C          -2.7534    3.6810    0.6509 C.ar    1  UNL1       -0.0554
     35 H          -5.4663   -2.7049   -2.4592 H       1  UNL1        0.0479
     36 H          -5.2411   -4.4455   -2.1965 H       1  UNL1        0.0479
     37 H          -3.8900   -3.5440   -2.9539 H       1  UNL1        0.0479
     38 H          -3.7551   -1.4438    0.8207 H       1  UNL1        0.1476
     39 H          -3.6348   -0.8891   -2.0881 H       1  UNL1        0.0442
     40 H          -2.3731   -1.0772   -0.8687 H       1  UNL1        0.0442
     41 H          -2.9365    1.3299   -1.5474 H       1  UNL1        0.0299
     42 H          -4.5076    1.0856   -0.7867 H       1  UNL1        0.0299
     43 H          -3.5164    0.4432    1.3082 H       1  UNL1        0.0549
     44 H          -1.2654    0.8168    1.9278 H       1  UNL1        0.1493
     45 H           0.6915    1.2932    2.3372 H       1  UNL1        0.1192
     46 H           0.3741   -0.4184    2.2945 H       1  UNL1        0.1192
     47 H           0.6219   -1.6812    0.4603 H       1  UNL1        0.0303
     48 H           1.3539   -1.0326   -1.1133 H       1  UNL1        0.0303
     49 H           2.5420   -0.8215    1.6809 H       1  UNL1        0.0465
     50 H           2.9782   -2.2391    0.6108 H       1  UNL1        0.0465
     51 H           7.8150    0.7192    1.0697 H       1  UNL1        0.1048
     52 H           7.9865   -3.5737   -1.4666 H       1  UNL1        0.1668
     53 H           5.7243   -4.5228   -2.3017 H       1  UNL1        0.0807
     54 H           3.8538   -2.8520   -1.5292 H       1  UNL1        0.0640
     55 H           3.8920    1.7113   -0.5461 H       1  UNL1        0.0465
     56 H           2.9415    0.7788   -1.7193 H       1  UNL1        0.0465
     57 H           1.3326    2.1149   -0.7460 H       1  UNL1        0.0303
     58 H           2.1338    2.1853    0.8340 H       1  UNL1        0.0303
     59 H          -5.2664    1.7971    1.8428 H       1  UNL1        0.0621
     60 H          -6.1007    4.0532    2.3732 H       1  UNL1        0.0632
     61 H          -2.6857    5.8342    0.7165 H       1  UNL1        0.0632
     62 H          -1.8020    3.5882    0.1617 H       1  UNL1        0.0621
@<TRIPOS>BOND
     1     1     2    1
     2     2     3    2
     3     2     4    2
     4     2     5    1
     5     5     6    1
     6     6     7    1
     7     7     8    1
     8     8     9    1
     9     9    10   am
    10    10    11    2
    11    10    12    1
    12    12    13    1
    13    12    14    1
    14    14    15    1
    15    15    16    1
    16    16    17    1
    17    17    18   ar
    18    18    19   ar
    19    19    20   ar
    20    20    21   ar
    21    21    22   ar
    22    22    23   ar
    23    23    24   ar
    24    24    25   ar
    25    16    26    1
    26    26    27    1
    27     8    28    1
    28    28    29   ar
    29    29    30   ar
    30    30    31   ar
    31    31    32    1
    32    31    33   ar
    33    33    34   ar
    34    27    12    1
    35    34    28   ar
    36    25    17   ar
    37    25    21   ar
    38     1    35    1
    39     1    36    1
    40     1    37    1
    41     5    38    1
    42     6    39    1
    43     6    40    1
    44     7    41    1
    45     7    42    1
    46     8    43    1
    47     9    44    1
    48    13    45    1
    49    13    46    1
    50    14    47    1
    51    14    48    1
    52    15    49    1
    53    15    50    1
    54    19    51    1
    55    22    52    1
    56    23    53    1
    57    24    54    1
    58    26    55    1
    59    26    56    1
    60    27    57    1
    61    27    58    1
    62    29    59    1
    63    30    60    1
    64    33    61    1
    65    34    62    1
