@<TRIPOS>MOLECULE
*****
 49 51 0 0 0
SMALL
GASTEIGER

@<TRIPOS>ATOM
      1 C          -4.7328    4.3577    0.0026 C.3     1  UNL1        0.0788
      2 O          -5.5636    3.2516   -0.2680 O.3     1  UNL1       -0.4951
      3 C          -5.0817    1.9645   -0.4360 C.ar    1  UNL1        0.1209
      4 C          -5.9416    0.9214   -0.6990 C.ar    1  UNL1       -0.0189
      5 C          -5.4916   -0.3630   -0.8700 C.ar    1  UNL1       -0.0438
      6 C          -4.1283   -0.6873   -0.7865 C.ar    1  UNL1        0.0251
      7 C          -3.2790    0.3375   -0.5273 C.ar    1  UNL1        0.0544
      8 C          -3.7445    1.6475   -0.3538 C.ar    1  UNL1       -0.0068
      9 C          -1.8316    0.2774   -0.3821 C.2     1  UNL1        0.2521
     10 O          -1.2477    1.3553   -0.6521 O.2     1  UNL1       -0.2696
     11 N          -0.9302   -0.7705    0.0100 N.am    1  UNL1       -0.2664
     12 C           0.3115   -0.3496    0.5840 C.3     1  UNL1        0.0201
     13 C           1.4326   -0.1397   -0.3931 C.3     1  UNL1       -0.0367
     14 C           2.6508    0.2880    0.3986 C.3     1  UNL1       -0.0512
     15 C           3.8442    0.5264   -0.5037 C.3     1  UNL1       -0.0447
     16 C           4.9927    0.9454    0.3892 C.3     1  UNL1        0.0259
     17 C           6.2240    1.2071   -0.3950 C.2     1  UNL1        0.2354
     18 O           6.1773    1.0602   -1.6383 O.2     1  UNL1       -0.2737
     19 N           7.4104    1.6115    0.2639 N.am    1  UNL1       -0.1975
     20 O           8.5538    1.8594   -0.4192 O.3     1  UNL1       -0.2952
     21 C          -1.1622   -2.1703   -0.1252 C.ar    1  UNL1        0.0503
     22 C          -0.0483   -2.8701    0.2253 C.ar    1  UNL1       -0.0392
     23 C           0.0046   -4.2706    0.1901 C.ar    1  UNL1       -0.0599
     24 C          -1.0903   -4.9883   -0.2079 C.ar    1  UNL1       -0.0606
     25 C          -2.2066   -4.3012   -0.5601 C.ar    1  UNL1       -0.0462
     26 C          -2.2601   -2.8928   -0.5249 C.ar    1  UNL1        0.0341
     27 S          -3.8534   -2.4103   -1.0618 S.3     1  UNL1       -0.0868
     28 H          -5.2506    5.3025   -0.2345 H       1  UNL1        0.0660
     29 H          -3.8165    4.2801   -0.6518 H       1  UNL1        0.0660
     30 H          -4.3296    4.3356    1.0436 H       1  UNL1        0.0660
     31 H          -7.0072    1.1660   -0.7657 H       1  UNL1        0.0654
     32 H          -6.1828   -1.1611   -1.0746 H       1  UNL1        0.0630
     33 H          -3.0567    2.4551   -0.1484 H       1  UNL1        0.0662
     34 H           0.1161    0.7284    0.9359 H       1  UNL1        0.0469
     35 H           0.5869   -0.7836    1.5579 H       1  UNL1        0.0469
     36 H           1.2002    0.7742   -1.0311 H       1  UNL1        0.0280
     37 H           1.6046   -0.9161   -1.1285 H       1  UNL1        0.0280
     38 H           2.3972    1.2841    0.8464 H       1  UNL1        0.0266
     39 H           2.8803   -0.3765    1.2359 H       1  UNL1        0.0266
     40 H           4.0978   -0.4295   -0.9996 H       1  UNL1        0.0270
     41 H           3.5925    1.3321   -1.1903 H       1  UNL1        0.0270
     42 H           4.7201    1.8120    1.0142 H       1  UNL1        0.0359
     43 H           5.2485    0.1230    1.1043 H       1  UNL1        0.0359
     44 H           7.4535    1.7361    1.3092 H       1  UNL1        0.1822
     45 H           9.1164    1.0425   -0.4725 H       1  UNL1        0.2414
     46 H           0.8437   -2.3748    0.5407 H       1  UNL1        0.0636
     47 H           0.9178   -4.7758    0.4802 H       1  UNL1        0.0618
     48 H          -1.0589   -6.0706   -0.2381 H       1  UNL1        0.0618
     49 H          -3.0813   -4.8812   -0.8783 H       1  UNL1        0.0629
@<TRIPOS>BOND
     1     1     2    1
     2     2     3    1
     3     3     4   ar
     4     4     5   ar
     5     5     6   ar
     6     6     7   ar
     7     7     8   ar
     8     7     9    1
     9     9    10    2
    10     9    11   am
    11    11    12    1
    12    12    13    1
    13    13    14    1
    14    14    15    1
    15    15    16    1
    16    16    17    1
    17    17    18    2
    18    17    19   am
    19    19    20    1
    20    11    21    1
    21    21    22   ar
    22    22    23   ar
    23    23    24   ar
    24    24    25   ar
    25    25    26   ar
    26    26    27    1
    27     8     3   ar
    28    26    21   ar
    29    27     6    1
    30     1    28    1
    31     1    29    1
    32     1    30    1
    33     4    31    1
    34     5    32    1
    35     8    33    1
    36    12    34    1
    37    12    35    1
    38    13    36    1
    39    13    37    1
    40    14    38    1
    41    14    39    1
    42    15    40    1
    43    15    41    1
    44    16    42    1
    45    16    43    1
    46    19    44    1
    47    20    45    1
    48    22    46    1
    49    23    47    1
    50    24    48    1
    51    25    49    1
