
     RDKit          3D

 38 40  0  0  0  0  0  0  0  0999 V2000
    5.7590    1.1781    1.3413 N   0  0  0  0  0  0  0  0  0  0  0  0
    4.5999    0.6334    0.7257 C   0  0  0  0  0  0  0  0  0  0  0  0
    4.5177   -0.7369    0.4654 C   0  0  0  0  0  0  0  0  0  0  0  0
    3.3865   -1.2359   -0.1300 C   0  0  0  0  0  0  0  0  0  0  0  0
    2.3147   -0.4262   -0.4855 C   0  0  0  0  0  0  0  0  0  0  0  0
    1.1277   -1.0391   -1.1249 C   0  0  0  0  0  0  0  0  0  0  0  0
    0.1762   -1.4414   -0.0944 N   0  0  0  0  0  0  0  0  0  0  0  0
   -1.0429   -2.0462   -0.3620 C   0  0  0  0  0  0  0  0  0  0  0  0
   -2.2546   -1.5738   -0.3845 C   0  0  0  0  0  0  0  0  0  0  0  0
   -3.3748   -2.5189   -0.7188 C   0  0  0  0  0  0  0  0  0  0  0  0
   -3.0556   -3.7139   -0.9558 O   0  0  0  0  0  0  0  0  0  0  0  0
   -4.6863   -2.0517   -0.7531 N   0  0  0  0  0  0  0  0  0  0  0  0
   -4.9972   -0.7024   -0.4802 C   0  0  0  0  0  0  0  0  0  0  0  0
   -6.1838   -0.3365   -0.5242 O   0  0  0  0  0  0  0  0  0  0  0  0
   -3.9107    0.2127   -0.1563 C   0  0  0  0  0  0  0  0  0  0  0  0
   -4.2009    1.5499    0.1160 C   0  0  0  0  0  0  0  0  0  0  0  0
   -3.2484    2.4858    0.4303 C   0  0  0  0  0  0  0  0  0  0  0  0
   -1.9321    2.0930    0.4820 C   0  0  0  0  0  0  0  0  0  0  0  0
   -0.5755    3.3515    0.9128 Br  0  0  0  0  0  0  0  0  0  0  0  0
   -1.6084    0.7550    0.2130 C   0  0  0  0  0  0  0  0  0  0  0  0
   -2.5698   -0.1809   -0.1022 C   0  0  0  0  0  0  0  0  0  0  0  0
    2.4271    0.9215   -0.2151 C   0  0  0  0  0  0  0  0  0  0  0  0
    3.5582    1.4603    0.3867 C   0  0  0  0  0  0  0  0  0  0  0  0
    3.6635    2.8189    0.6557 O   0  0  0  0  0  0  0  0  0  0  0  0
    6.5158    1.6759    0.8209 H   0  0  0  0  0  0  0  0  0  0  0  0
    5.8941    1.0933    2.3754 H   0  0  0  0  0  0  0  0  0  0  0  0
    5.3511   -1.3856    0.7388 H   0  0  0  0  0  0  0  0  0  0  0  0
    3.3252   -2.2901   -0.3294 H   0  0  0  0  0  0  0  0  0  0  0  0
    1.3593   -1.8450   -1.8210 H   0  0  0  0  0  0  0  0  0  0  0  0
    0.5993   -0.2370   -1.7134 H   0  0  0  0  0  0  0  0  0  0  0  0
    0.4816   -1.2854    0.9113 H   0  0  0  0  0  0  0  0  0  0  0  0
   -0.9783   -3.1509   -0.6058 H   0  0  0  0  0  0  0  0  0  0  0  0
   -5.4471   -2.7617   -0.9956 H   0  0  0  0  0  0  0  0  0  0  0  0
   -5.2584    1.8457    0.0700 H   0  0  0  0  0  0  0  0  0  0  0  0
   -3.5589    3.4977    0.6267 H   0  0  0  0  0  0  0  0  0  0  0  0
   -0.5898    0.4952    0.2631 H   0  0  0  0  0  0  0  0  0  0  0  0
    1.5963    1.5695   -0.4874 H   0  0  0  0  0  0  0  0  0  0  0  0
    2.8201    3.3218    0.9044 H   0  0  0  0  0  0  0  0  0  0  0  0
  1  2  1  0
  2  3  2  0
  3  4  1  0
  4  5  2  0
  5  6  1  0
  6  7  1  0
  7  8  1  0
  8  9  2  3
  9 10  1  0
 10 11  2  0
 10 12  1  0
 12 13  1  0
 13 14  2  0
 13 15  1  0
 15 16  2  0
 16 17  1  0
 17 18  2  0
 18 19  1  0
 18 20  1  0
 20 21  2  0
  5 22  1  0
 22 23  2  0
 23 24  1  0
 23  2  1  0
 21  9  1  0
 21 15  1  0
  1 25  1  0
  1 26  1  0
  3 27  1  0
  4 28  1  0
  6 29  1  0
  6 30  1  0
  7 31  1  0
  8 32  1  0
 12 33  1  0
 16 34  1  0
 17 35  1  0
 20 36  1  0
 22 37  1  0
 24 38  1  0
M  END
$$$$
