@<TRIPOS>MOLECULE
*****
 38 40 0 0 0
SMALL
GASTEIGER

@<TRIPOS>ATOM
      1 N           5.7590    1.1781    1.3413 N.pl3   1  UNL1       -0.3552
      2 C           4.5999    0.6334    0.7257 C.ar    1  UNL1        0.0666
      3 C           4.5177   -0.7369    0.4654 C.ar    1  UNL1       -0.0372
      4 C           3.3865   -1.2359   -0.1300 C.ar    1  UNL1       -0.0551
      5 C           2.3147   -0.4262   -0.4855 C.ar    1  UNL1       -0.0269
      6 C           1.1277   -1.0391   -1.1249 C.3     1  UNL1        0.0340
      7 N           0.1762   -1.4414   -0.0944 N.pl3   1  UNL1       -0.3449
      8 C          -1.0429   -2.0462   -0.3620 C.2     1  UNL1        0.0025
      9 C          -2.2546   -1.5738   -0.3845 C.2     1  UNL1        0.0584
     10 C          -3.3748   -2.5189   -0.7188 C.2     1  UNL1        0.2523
     11 O          -3.0556   -3.7139   -0.9558 O.2     1  UNL1       -0.2697
     12 N          -4.6863   -2.0517   -0.7531 N.am    1  UNL1       -0.2483
     13 C          -4.9972   -0.7024   -0.4802 C.2     1  UNL1        0.2511
     14 O          -6.1838   -0.3365   -0.5242 O.2     1  UNL1       -0.2698
     15 C          -3.9107    0.2127   -0.1563 C.ar    1  UNL1        0.0451
     16 C          -4.2009    1.5499    0.1160 C.ar    1  UNL1       -0.0480
     17 C          -3.2484    2.4858    0.4303 C.ar    1  UNL1       -0.0470
     18 C          -1.9321    2.0930    0.4820 C.ar    1  UNL1        0.0185
     19 BR         -0.5755    3.3515    0.9128 Br      1  UNL1       -0.0503
     20 C          -1.6084    0.7550    0.2130 C.ar    1  UNL1       -0.0391
     21 C          -2.5698   -0.1809   -0.1022 C.ar    1  UNL1        0.0014
     22 C           2.4271    0.9215   -0.2151 C.ar    1  UNL1       -0.0137
     23 C           3.5582    1.4603    0.3867 C.ar    1  UNL1        0.1377
     24 O           3.6635    2.8189    0.6557 O.3     1  UNL1       -0.5049
     25 H           6.5158    1.6759    0.8209 H       1  UNL1        0.1424
     26 H           5.8941    1.0933    2.3754 H       1  UNL1        0.1424
     27 H           5.3511   -1.3856    0.7388 H       1  UNL1        0.0637
     28 H           3.3252   -2.2901   -0.3294 H       1  UNL1        0.0621
     29 H           1.3593   -1.8450   -1.8210 H       1  UNL1        0.0511
     30 H           0.5993   -0.2370   -1.7134 H       1  UNL1        0.0511
     31 H           0.4816   -1.2854    0.9113 H       1  UNL1        0.1459
     32 H          -0.9783   -3.1509   -0.6058 H       1  UNL1        0.0786
     33 H          -5.4471   -2.7617   -0.9956 H       1  UNL1        0.1581
     34 H          -5.2584    1.8457    0.0700 H       1  UNL1        0.0626
     35 H          -3.5589    3.4977    0.6267 H       1  UNL1        0.0629
     36 H          -0.5898    0.4952    0.2631 H       1  UNL1        0.0635
     37 H           1.5963    1.5695   -0.4874 H       1  UNL1        0.0658
     38 H           2.8201    3.3218    0.9044 H       1  UNL1        0.2922
@<TRIPOS>BOND
     1     1     2    1
     2     2     3   ar
     3     3     4   ar
     4     4     5   ar
     5     5     6    1
     6     6     7    1
     7     7     8    1
     8     8     9    2
     9     9    10    1
    10    10    11    2
    11    10    12   am
    12    12    13   am
    13    13    14    2
    14    13    15    1
    15    15    16   ar
    16    16    17   ar
    17    17    18   ar
    18    18    19    1
    19    18    20   ar
    20    20    21   ar
    21     5    22   ar
    22    22    23   ar
    23    23    24    1
    24    23     2   ar
    25    21     9    1
    26    21    15   ar
    27     1    25    1
    28     1    26    1
    29     3    27    1
    30     4    28    1
    31     6    29    1
    32     6    30    1
    33     7    31    1
    34     8    32    1
    35    12    33    1
    36    16    34    1
    37    17    35    1
    38    20    36    1
    39    22    37    1
    40    24    38    1
