@<TRIPOS>MOLECULE
*****
 19 18 0 0 0
SMALL
GASTEIGER

@<TRIPOS>ATOM
      1 C          -0.9180   -0.7142    0.9536 C.3     1  UNL1       -0.0414
      2 N          -0.2335    0.0411   -0.0835 N.4     1  UNL1        0.2410
      3 C          -0.3304    1.4395    0.1808 C.3     1  UNL1       -0.0414
      4 C          -1.0179   -0.2060   -1.3006 C.3     1  UNL1       -0.0414
      5 C           1.0804   -0.4343   -0.3572 C.3     1  UNL1        0.0097
      6 C           2.0481   -0.2119    0.7245 C.2     1  UNL1        0.0864
      7 O           3.3505   -0.6519    0.5227 O.co2   1  UNL1       -0.5444
      8 O           1.8615    0.3449    1.8604 O.co2   1  UNL1       -0.5444
      9 H          -1.7939   -0.0839    1.2462 H       1  UNL1        0.0778
     10 H          -0.3006   -0.9558    1.8207 H       1  UNL1        0.0778
     11 H          -1.3713   -1.6529    0.5265 H       1  UNL1        0.0778
     12 H          -1.3488    1.6231    0.6072 H       1  UNL1        0.0778
     13 H          -0.2791    2.0005   -0.7886 H       1  UNL1        0.0778
     14 H           0.3791    1.8647    0.8824 H       1  UNL1        0.0778
     15 H          -0.8062   -1.2588   -1.5987 H       1  UNL1        0.0778
     16 H          -0.6424    0.4072   -2.1610 H       1  UNL1        0.0778
     17 H          -2.0938   -0.0743   -1.1379 H       1  UNL1        0.0778
     18 H           0.9823   -1.5253   -0.6128 H       1  UNL1        0.0879
     19 H           1.4339    0.0481   -1.2847 H       1  UNL1        0.0879
@<TRIPOS>UNITY_ATOM_ATTR
2 1
charge 1
7 1
charge -1
@<TRIPOS>BOND
     1     1     2    1
     2     2     3    1
     3     2     4    1
     4     2     5    1
     5     5     6    1
     6     6     7   ar
     7     6     8   ar
     8     1     9    1
     9     1    10    1
    10     1    11    1
    11     3    12    1
    12     3    13    1
    13     3    14    1
    14     4    15    1
    15     4    16    1
    16     4    17    1
    17     5    18    1
    18     5    19    1
