@<TRIPOS>MOLECULE
*****
 23 24 0 0 0
SMALL
GASTEIGER

@<TRIPOS>ATOM
      1 O           5.2996   -1.0204   -2.0446 O.co2   1  UNL1       -0.5735
      2 N           4.9079   -0.8410   -0.7399 N.pl3   1  UNL1        0.1186
      3 O           5.8682   -1.1224    0.0275 O.2     1  UNL1        0.0446
      4 C           3.6682   -0.4162   -0.1926 C.ar    1  UNL1        0.4380
      5 C           3.3532   -0.2606    1.1418 C.ar    1  UNL1        0.0595
      6 C           2.0339    0.1677    1.1298 C.ar    1  UNL1       -0.0078
      7 C           1.6346    0.2440   -0.2102 C.ar    1  UNL1        0.1545
      8 O           2.6467   -0.1145   -0.9514 O.2     1  UNL1       -0.3992
      9 C           0.2557    0.6843   -0.4087 C.2     1  UNL1        0.0884
     10 N          -0.6098   -0.2276   -0.2182 N.2     1  UNL1       -0.1802
     11 N          -2.0033   -0.0053   -0.3597 N.am    1  UNL1       -0.1678
     12 C          -2.8966    1.1272   -0.6064 C.3     1  UNL1        0.1159
     13 C          -4.1101    0.7988    0.1850 C.2     1  UNL1        0.2399
     14 O          -4.9657    1.4456    0.8540 O.2     1  UNL1       -0.2736
     15 N          -4.2213   -0.6233    0.0814 N.am    1  UNL1       -0.2373
     16 C          -2.9180   -1.1142   -0.2550 C.2     1  UNL1        0.3284
     17 O          -2.6738   -2.3542   -0.4217 O.2     1  UNL1       -0.2504
     18 H           4.0007   -0.4370    1.9938 H       1  UNL1        0.0722
     19 H           1.5399    0.3666    2.0908 H       1  UNL1        0.0658
     20 H          -0.0985    1.6662   -0.6901 H       1  UNL1        0.0883
     21 H          -2.4501    2.0680   -0.2546 H       1  UNL1        0.0582
     22 H          -3.1959    1.1944   -1.6841 H       1  UNL1        0.0582
     23 H          -5.0656   -1.2261    0.2161 H       1  UNL1        0.1592
@<TRIPOS>UNITY_ATOM_ATTR
1 1
charge -1
2 1
charge 1
@<TRIPOS>BOND
     1     1     2    1
     2     2     3    2
     3     2     4    1
     4     4     5   ar
     5     5     6   ar
     6     6     7   ar
     7     7     8   ar
     8     7     9    1
     9     9    10    2
    10    10    11    1
    11    11    12    1
    12    12    13    1
    13    13    14    2
    14    13    15   am
    15    15    16   am
    16    16    17    2
    17     8     4   ar
    18    16    11   am
    19     5    18    1
    20     6    19    1
    21     9    20    1
    22    12    21    1
    23    12    22    1
    24    15    23    1
