@<TRIPOS>MOLECULE
*****
 54 58 0 0 0
SMALL
GASTEIGER

@<TRIPOS>ATOM
      1 C           2.0072   -2.8335   -0.3979 C.3     1  UNL1       -0.0464
      2 C           0.9913   -1.7471   -0.2639 C.3     1  UNL1        0.0237
      3 C          -0.3623   -2.4012   -0.1605 C.3     1  UNL1       -0.0311
      4 C          -1.1734   -2.2104   -1.4191 C.3     1  UNL1       -0.0126
      5 C          -1.3303   -0.6958   -1.6429 C.3     1  UNL1        0.1159
      6 O          -1.9145   -0.0456   -0.6656 O.3     1  UNL1       -0.4866
      7 C          -2.4981    0.5925    0.2775 C.ar    1  UNL1        0.1316
      8 C          -2.0188    0.7581    1.5793 C.ar    1  UNL1       -0.0012
      9 C          -2.7125    1.4522    2.5022 C.ar    1  UNL1        0.0318
     10 N          -3.8923    2.0262    2.2491 N.ar    1  UNL1       -0.2519
     11 C          -4.3917    1.8959    1.0202 C.ar    1  UNL1        0.1095
     12 C          -5.6292    2.4861    0.7298 C.ar    1  UNL1        0.1493
     13 F          -6.3016    3.1798    1.6915 F       1  UNL1       -0.2032
     14 C          -6.2157    2.3991   -0.5071 C.ar    1  UNL1       -0.0243
     15 C          -5.5431    1.6985   -1.4857 C.ar    1  UNL1       -0.0582
     16 C          -4.3256    1.1074   -1.2304 C.ar    1  UNL1       -0.0489
     17 C          -3.7476    1.2057    0.0259 C.ar    1  UNL1        0.0449
     18 C           0.0331   -0.1957   -2.0348 C.3     1  UNL1        0.0523
     19 N           1.0792   -0.6675   -1.1862 N.am    1  UNL1       -0.2912
     20 C           2.3256    0.0789   -1.2999 C.2     1  UNL1        0.2491
     21 O           2.3268    1.0478   -2.0907 O.2     1  UNL1       -0.2699
     22 C           3.5213   -0.2685   -0.5402 C.ar    1  UNL1        0.0640
     23 C           4.4730   -1.0649   -1.1869 C.ar    1  UNL1       -0.0475
     24 C           5.6257   -1.3713   -0.4956 C.ar    1  UNL1       -0.0609
     25 C           5.8255   -0.8987    0.8048 C.ar    1  UNL1       -0.0597
     26 C           4.8715   -0.1187    1.4141 C.ar    1  UNL1       -0.0338
     27 C           3.6968    0.2002    0.7225 C.ar    1  UNL1        0.0982
     28 N           2.6961    1.0105    1.3269 N.ar    1  UNL1       -0.1496
     29 N           1.6744    1.6610    0.8172 N.ar    1  UNL1       -0.1556
     30 C           0.9729    2.3260    1.7680 C.ar    1  UNL1        0.0697
     31 C           1.6376    2.0430    2.9371 C.ar    1  UNL1        0.0697
     32 N           2.6694    1.2504    2.6526 N.ar    1  UNL1       -0.1556
     33 H           2.3222   -2.9755   -1.4326 H       1  UNL1        0.0248
     34 H           1.5150   -3.8115   -0.1018 H       1  UNL1        0.0248
     35 H           2.8242   -2.7312    0.3501 H       1  UNL1        0.0248
     36 H           1.1675   -1.2889    0.7599 H       1  UNL1        0.0498
     37 H          -0.2616   -3.4931   -0.0001 H       1  UNL1        0.0284
     38 H          -0.9455   -2.0184    0.7018 H       1  UNL1        0.0284
     39 H          -2.1436   -2.6914   -1.2879 H       1  UNL1        0.0302
     40 H          -0.6257   -2.5947   -2.2901 H       1  UNL1        0.0302
     41 H          -1.9084   -0.6843   -2.6479 H       1  UNL1        0.0749
     42 H          -1.0801    0.3072    1.8150 H       1  UNL1        0.0669
     43 H          -2.3514    1.5960    3.5407 H       1  UNL1        0.0831
     44 H          -7.1866    2.8651   -0.7281 H       1  UNL1        0.0647
     45 H          -5.9642    1.5987   -2.4839 H       1  UNL1        0.0619
     46 H          -3.7834    0.5526   -1.9908 H       1  UNL1        0.0625
     47 H           0.2850   -0.5590   -3.0732 H       1  UNL1        0.0501
     48 H          -0.0207    0.9202   -2.0309 H       1  UNL1        0.0501
     49 H           4.2851   -1.4127   -2.1956 H       1  UNL1        0.0626
     50 H           6.3938   -1.9763   -0.9348 H       1  UNL1        0.0618
     51 H           6.7408   -1.1633    1.3116 H       1  UNL1        0.0618
     52 H           4.9896    0.2695    2.4302 H       1  UNL1        0.0639
     53 H           0.0856    2.9373    1.6200 H       1  UNL1        0.0864
     54 H           1.2919    2.4534    3.8976 H       1  UNL1        0.0864
@<TRIPOS>BOND
     1     1     2    1
     2     2     3    1
     3     3     4    1
     4     4     5    1
     5     5     6    1
     6     6     7    1
     7     7     8   ar
     8     8     9   ar
     9     9    10   ar
    10    10    11   ar
    11    11    12   ar
    12    12    13    1
    13    12    14   ar
    14    14    15   ar
    15    15    16   ar
    16    16    17   ar
    17     5    18    1
    18    18    19    1
    19    19    20   am
    20    20    21    2
    21    20    22    1
    22    22    23   ar
    23    23    24   ar
    24    24    25   ar
    25    25    26   ar
    26    26    27   ar
    27    27    28    1
    28    28    29   ar
    29    29    30   ar
    30    30    31   ar
    31    31    32   ar
    32    19     2    1
    33    27    22   ar
    34    32    28   ar
    35    17     7   ar
    36    17    11   ar
    37     1    33    1
    38     1    34    1
    39     1    35    1
    40     2    36    1
    41     3    37    1
    42     3    38    1
    43     4    39    1
    44     4    40    1
    45     5    41    1
    46     8    42    1
    47     9    43    1
    48    14    44    1
    49    15    45    1
    50    16    46    1
    51    18    47    1
    52    18    48    1
    53    23    49    1
    54    24    50    1
    55    25    51    1
    56    26    52    1
    57    30    53    1
    58    31    54    1
