
     RDKit          3D

 51 53  0  0  0  0  0  0  0  0999 V2000
   -5.1465    1.4591   -2.3940 C   0  0  0  0  0  0  0  0  0  0  0  0
   -4.5436    2.4123   -1.5563 O   0  0  0  0  0  0  0  0  0  0  0  0
   -4.9331    2.2476   -0.2457 C   0  0  0  0  0  0  0  0  0  0  0  0
   -4.4972    1.0045    0.4050 C   0  0  2  0  0  0  0  0  0  0  0  0
   -5.0808    0.8633    1.8280 C   0  0  0  0  0  0  0  0  0  0  0  0
   -4.4264   -0.4297    2.2456 C   0  0  0  0  0  0  0  0  0  0  0  0
   -3.0731   -0.3420    1.5868 C   0  0  0  0  0  0  0  0  0  0  0  0
   -3.1221    0.7724    0.6357 N   0  0  0  0  0  0  0  0  0  0  0  0
   -2.2290    0.3126   -0.7295 S   0  0  0  0  0  6  0  0  0  0  0  0
   -2.1150    1.4278   -1.7583 O   0  0  0  0  0  0  0  0  0  0  0  0
   -2.6819   -0.9615   -1.3716 O   0  0  0  0  0  0  0  0  0  0  0  0
   -0.5501    0.0102   -0.2099 C   0  0  0  0  0  0  0  0  0  0  0  0
    0.3605    1.0300   -0.1224 C   0  0  0  0  0  0  0  0  0  0  0  0
    1.6820    0.8180    0.2743 C   0  0  0  0  0  0  0  0  0  0  0  0
    2.9034    2.5112    0.5234 I   0  0  0  0  0  0  0  0  0  0  0  0
    2.1352   -0.4422    0.5952 C   0  0  0  0  0  0  0  0  0  0  0  0
    1.1740   -1.4603    0.4972 C   0  0  0  0  0  0  0  0  0  0  0  0
   -0.1250   -1.2485    0.1081 C   0  0  0  0  0  0  0  0  0  0  0  0
    1.8133   -2.7152    0.9136 C   0  0  0  0  0  0  0  0  0  0  0  0
    1.2828   -3.8510    0.9673 O   0  0  0  0  0  0  0  0  0  0  0  0
    3.1706   -2.4066    1.2526 C   0  0  0  0  0  0  0  0  0  0  0  0
    4.0484   -3.1837    1.6526 O   0  0  0  0  0  0  0  0  0  0  0  0
    3.3595   -0.9888    1.0453 N   0  0  0  0  0  0  0  0  0  0  0  0
    4.6067   -0.3266    1.3168 C   0  0  0  0  0  0  0  0  0  0  0  0
    5.5841   -0.4494    0.2007 C   0  0  0  0  0  0  0  0  0  0  0  0
    5.1672    0.0777   -1.1008 C   0  0  0  0  0  0  0  0  0  0  0  0
    6.2398   -0.1955   -2.1861 C   0  0  0  0  0  0  0  0  0  0  0  0
    5.7538    0.3356   -3.3622 O   0  0  0  0  0  0  0  0  0  0  0  0
   -6.2575    1.5674   -2.3418 H   0  0  0  0  0  0  0  0  0  0  0  0
   -4.7591    1.6470   -3.4147 H   0  0  0  0  0  0  0  0  0  0  0  0
   -4.9040    0.4185   -2.1175 H   0  0  0  0  0  0  0  0  0  0  0  0
   -6.0653    2.2356   -0.2705 H   0  0  0  0  0  0  0  0  0  0  0  0
   -4.6480    3.1236    0.3855 H   0  0  0  0  0  0  0  0  0  0  0  0
   -4.9020    0.0757   -0.1134 H   0  0  0  0  0  0  0  0  0  0  0  0
   -6.1705    0.8271    1.8145 H   0  0  0  0  0  0  0  0  0  0  0  0
   -4.6542    1.6860    2.4280 H   0  0  0  0  0  0  0  0  0  0  0  0
   -4.3571   -0.5343    3.3457 H   0  0  0  0  0  0  0  0  0  0  0  0
   -4.9515   -1.2947    1.7774 H   0  0  0  0  0  0  0  0  0  0  0  0
   -2.3261   -0.0868    2.3627 H   0  0  0  0  0  0  0  0  0  0  0  0
   -2.8003   -1.2829    1.0660 H   0  0  0  0  0  0  0  0  0  0  0  0
    0.0359    2.0279   -0.3706 H   0  0  0  0  0  0  0  0  0  0  0  0
   -0.8165   -2.0813    0.0481 H   0  0  0  0  0  0  0  0  0  0  0  0
    5.0597   -0.8653    2.2203 H   0  0  0  0  0  0  0  0  0  0  0  0
    4.5007    0.7044    1.6585 H   0  0  0  0  0  0  0  0  0  0  0  0
    6.5310    0.1161    0.4944 H   0  0  0  0  0  0  0  0  0  0  0  0
    5.9792   -1.5182    0.1341 H   0  0  0  0  0  0  0  0  0  0  0  0
    5.1814    1.2125   -1.0599 H   0  0  0  0  0  0  0  0  0  0  0  0
    4.1968   -0.2571   -1.4799 H   0  0  0  0  0  0  0  0  0  0  0  0
    6.4336   -1.2649   -2.2761 H   0  0  0  0  0  0  0  0  0  0  0  0
    7.1540    0.3601   -1.9065 H   0  0  0  0  0  0  0  0  0  0  0  0
    5.7821    1.3095   -3.3956 H   0  0  0  0  0  0  0  0  0  0  0  0
  1  2  1  0
  2  3  1  0
  3  4  1  0
  4  5  1  0
  5  6  1  0
  6  7  1  0
  7  8  1  0
  8  9  1  0
  9 10  2  0
  9 11  2  0
  9 12  1  0
 12 13  2  0
 13 14  1  0
 14 15  1  0
 14 16  2  0
 16 17  1  0
 17 18  2  0
 17 19  1  0
 19 20  2  0
 19 21  1  0
 21 22  2  0
 21 23  1  0
 23 24  1  0
 24 25  1  0
 25 26  1  0
 26 27  1  0
 27 28  1  0
  8  4  1  0
 18 12  1  0
 23 16  1  0
  1 29  1  0
  1 30  1  0
  1 31  1  0
  3 32  1  0
  3 33  1  0
  4 34  1  6
  5 35  1  0
  5 36  1  0
  6 37  1  0
  6 38  1  0
  7 39  1  0
  7 40  1  0
 13 41  1  0
 18 42  1  0
 24 43  1  0
 24 44  1  0
 25 45  1  0
 25 46  1  0
 26 47  1  0
 26 48  1  0
 27 49  1  0
 27 50  1  0
 28 51  1  0
M  END
$$$$
