@<TRIPOS>MOLECULE
*****
 51 53 0 0 0
SMALL
GASTEIGER

@<TRIPOS>ATOM
      1 C          -5.1465    1.4591   -2.3940 C.3     1  UNL1        0.0365
      2 O          -4.5436    2.4123   -1.5563 O.3     1  UNL1       -0.3814
      3 C          -4.9331    2.2476   -0.2457 C.3     1  UNL1        0.0645
      4 C          -4.4972    1.0045    0.4050 C.3     1  UNL1        0.0552
      5 C          -5.0808    0.8633    1.8280 C.3     1  UNL1       -0.0323
      6 C          -4.4264   -0.4297    2.2456 C.3     1  UNL1       -0.0370
      7 C          -3.0731   -0.3420    1.5868 C.3     1  UNL1        0.0209
      8 N          -3.1221    0.7724    0.6357 N.3     1  UNL1       -0.1713
      9 S          -2.2290    0.3126   -0.7295 S.O2    1  UNL1        0.0612
     10 O          -2.1150    1.4278   -1.7583 O.2     1  UNL1       -0.1528
     11 O          -2.6819   -0.9615   -1.3716 O.2     1  UNL1       -0.1528
     12 C          -0.5501    0.0102   -0.2099 C.ar    1  UNL1        0.1073
     13 C           0.3605    1.0300   -0.1224 C.ar    1  UNL1       -0.0204
     14 C           1.6820    0.8180    0.2743 C.ar    1  UNL1        0.0373
     15 I           2.9034    2.5112    0.5234 I       1  UNL1       -0.0418
     16 C           2.1352   -0.4422    0.5952 C.ar    1  UNL1        0.0608
     17 C           1.1740   -1.4603    0.4972 C.ar    1  UNL1        0.0512
     18 C          -0.1250   -1.2485    0.1081 C.ar    1  UNL1       -0.0225
     19 C           1.8133   -2.7152    0.9136 C.2     1  UNL1        0.2496
     20 O           1.2828   -3.8510    0.9673 O.2     1  UNL1       -0.2817
     21 C           3.1706   -2.4066    1.2526 C.2     1  UNL1        0.2913
     22 O           4.0484   -3.1837    1.6526 O.2     1  UNL1       -0.2661
     23 N           3.3595   -0.9888    1.0453 N.am    1  UNL1       -0.2631
     24 C           4.6067   -0.3266    1.3168 C.3     1  UNL1        0.0203
     25 C           5.5841   -0.4494    0.2007 C.3     1  UNL1       -0.0347
     26 C           5.1672    0.0777   -1.1008 C.3     1  UNL1       -0.0283
     27 C           6.2398   -0.1955   -2.1861 C.3     1  UNL1        0.0443
     28 O           5.7538    0.3356   -3.3622 O.3     1  UNL1       -0.3950
     29 H          -6.2575    1.5674   -2.3418 H       1  UNL1        0.0523
     30 H          -4.7591    1.6470   -3.4147 H       1  UNL1        0.0523
     31 H          -4.9040    0.4185   -2.1175 H       1  UNL1        0.0523
     32 H          -6.0653    2.2356   -0.2705 H       1  UNL1        0.0576
     33 H          -4.6480    3.1236    0.3855 H       1  UNL1        0.0576
     34 H          -4.9020    0.0757   -0.1134 H       1  UNL1        0.0502
     35 H          -6.1705    0.8271    1.8145 H       1  UNL1        0.0282
     36 H          -4.6542    1.6860    2.4280 H       1  UNL1        0.0282
     37 H          -4.3571   -0.5343    3.3457 H       1  UNL1        0.0279
     38 H          -4.9515   -1.2947    1.7774 H       1  UNL1        0.0279
     39 H          -2.3261   -0.0868    2.3627 H       1  UNL1        0.0444
     40 H          -2.8003   -1.2829    1.0660 H       1  UNL1        0.0444
     41 H           0.0359    2.0279   -0.3706 H       1  UNL1        0.0648
     42 H          -0.8165   -2.0813    0.0481 H       1  UNL1        0.0645
     43 H           5.0597   -0.8653    2.2203 H       1  UNL1        0.0469
     44 H           4.5007    0.7044    1.6585 H       1  UNL1        0.0469
     45 H           6.5310    0.1161    0.4944 H       1  UNL1        0.0281
     46 H           5.9792   -1.5182    0.1341 H       1  UNL1        0.0281
     47 H           5.1814    1.2125   -1.0599 H       1  UNL1        0.0288
     48 H           4.1968   -0.2571   -1.4799 H       1  UNL1        0.0288
     49 H           6.4336   -1.2649   -2.2761 H       1  UNL1        0.0557
     50 H           7.1540    0.3601   -1.9065 H       1  UNL1        0.0557
     51 H           5.7821    1.3095   -3.3956 H       1  UNL1        0.2094
@<TRIPOS>BOND
     1     1     2    1
     2     2     3    1
     3     3     4    1
     4     4     5    1
     5     5     6    1
     6     6     7    1
     7     7     8    1
     8     8     9    1
     9     9    10    2
    10     9    11    2
    11     9    12    1
    12    12    13   ar
    13    13    14   ar
    14    14    15    1
    15    14    16   ar
    16    16    17   ar
    17    17    18   ar
    18    17    19    1
    19    19    20    2
    20    19    21    1
    21    21    22    2
    22    21    23   am
    23    23    24    1
    24    24    25    1
    25    25    26    1
    26    26    27    1
    27    27    28    1
    28     8     4    1
    29    18    12   ar
    30    23    16    1
    31     1    29    1
    32     1    30    1
    33     1    31    1
    34     3    32    1
    35     3    33    1
    36     4    34    1
    37     5    35    1
    38     5    36    1
    39     6    37    1
    40     6    38    1
    41     7    39    1
    42     7    40    1
    43    13    41    1
    44    18    42    1
    45    24    43    1
    46    24    44    1
    47    25    45    1
    48    25    46    1
    49    26    47    1
    50    26    48    1
    51    27    49    1
    52    27    50    1
    53    28    51    1
