@<TRIPOS>MOLECULE
*****
 52 55 0 0 0
SMALL
GASTEIGER

@<TRIPOS>ATOM
      1 C          -4.3646   -1.4008    3.0858 C.3     1  UNL1        0.0365
      2 O          -5.5975   -1.1581    2.5507 O.3     1  UNL1       -0.3814
      3 C          -5.6396   -0.8503    1.2120 C.3     1  UNL1        0.0645
      4 C          -4.9478    0.3334    0.7620 C.3     1  UNL1        0.0552
      5 C          -5.3313    0.8576   -0.5974 C.3     1  UNL1       -0.0323
      6 C          -4.2943    1.9506   -0.8590 C.3     1  UNL1       -0.0370
      7 C          -3.3597    1.8716    0.3348 C.3     1  UNL1        0.0209
      8 N          -3.5229    0.4753    0.8428 N.3     1  UNL1       -0.1713
      9 S          -2.6409   -0.5748   -0.2003 S.O2    1  UNL1        0.0612
     10 O          -2.7256   -1.9987    0.2302 O.2     1  UNL1       -0.1528
     11 O          -3.0520   -0.4154   -1.6519 O.2     1  UNL1       -0.1528
     12 C          -0.9523   -0.1206   -0.1283 C.ar    1  UNL1        0.1063
     13 C          -0.0768   -0.6215    0.8123 C.ar    1  UNL1       -0.0335
     14 C           1.2587   -0.2448    0.8422 C.ar    1  UNL1       -0.0377
     15 C           1.7295    0.6510   -0.0871 C.ar    1  UNL1        0.0481
     16 C           0.8749    1.1725   -1.0455 C.ar    1  UNL1        0.0502
     17 C          -0.4533    0.7747   -1.0467 C.ar    1  UNL1       -0.0226
     18 C           1.6193    2.0928   -1.9037 C.2     1  UNL1        0.2496
     19 O           1.1613    2.7453   -2.8767 O.2     1  UNL1       -0.2817
     20 C           2.9705    2.0949   -1.4064 C.2     1  UNL1        0.2915
     21 O           3.9200    2.7716   -1.8887 O.2     1  UNL1       -0.2661
     22 N           3.0391    1.2017   -0.2810 N.am    1  UNL1       -0.2598
     23 C           4.2531    0.9723    0.4508 C.3     1  UNL1        0.0452
     24 C           5.0177   -0.1594   -0.1306 C.ar    1  UNL1       -0.0295
     25 C           5.9559    0.0412   -1.1210 C.ar    1  UNL1       -0.0536
     26 C           6.6707   -1.0120   -1.6652 C.ar    1  UNL1       -0.0199
     27 C           6.4254   -2.2944   -1.1917 C.ar    1  UNL1        0.1169
     28 O           7.1207   -3.4047   -1.7060 O.3     1  UNL1       -0.5068
     29 C           5.4927   -2.5259   -0.2014 C.ar    1  UNL1       -0.0199
     30 C           4.7902   -1.4400    0.3246 C.ar    1  UNL1       -0.0536
     31 H          -4.4181   -1.6109    4.1893 H       1  UNL1        0.0523
     32 H          -3.8660   -2.2833    2.5878 H       1  UNL1        0.0523
     33 H          -3.7143   -0.5273    2.9426 H       1  UNL1        0.0523
     34 H          -6.7533   -0.7447    0.9782 H       1  UNL1        0.0576
     35 H          -5.3848   -1.7996    0.6729 H       1  UNL1        0.0576
     36 H          -5.3162    1.1903    1.4654 H       1  UNL1        0.0502
     37 H          -6.3600    1.2872   -0.6203 H       1  UNL1        0.0282
     38 H          -5.2956    0.0647   -1.3515 H       1  UNL1        0.0282
     39 H          -3.7897    1.7817   -1.8147 H       1  UNL1        0.0279
     40 H          -4.8235    2.9116   -0.9197 H       1  UNL1        0.0279
     41 H          -3.7307    2.5578    1.1140 H       1  UNL1        0.0444
     42 H          -2.3178    2.0429    0.0495 H       1  UNL1        0.0444
     43 H          -0.4810   -1.3242    1.5283 H       1  UNL1        0.0638
     44 H           1.9376   -0.6591    1.6036 H       1  UNL1        0.0637
     45 H          -1.0827    1.1930   -1.8003 H       1  UNL1        0.0645
     46 H           4.0764    0.8217    1.5392 H       1  UNL1        0.0518
     47 H           4.9189    1.8712    0.3873 H       1  UNL1        0.0518
     48 H           6.1665    1.0467   -1.5110 H       1  UNL1        0.0622
     49 H           7.4099   -0.8707   -2.4427 H       1  UNL1        0.0654
     50 H           8.1000   -3.5501   -1.5076 H       1  UNL1        0.2921
     51 H           5.3189   -3.5346    0.1515 H       1  UNL1        0.0654
     52 H           4.0643   -1.6496    1.1005 H       1  UNL1        0.0622
@<TRIPOS>BOND
     1     1     2    1
     2     2     3    1
     3     3     4    1
     4     4     5    1
     5     5     6    1
     6     6     7    1
     7     7     8    1
     8     8     9    1
     9     9    10    2
    10     9    11    2
    11     9    12    1
    12    12    13   ar
    13    13    14   ar
    14    14    15   ar
    15    15    16   ar
    16    16    17   ar
    17    16    18    1
    18    18    19    2
    19    18    20    1
    20    20    21    2
    21    20    22   am
    22    22    23    1
    23    23    24    1
    24    24    25   ar
    25    25    26   ar
    26    26    27   ar
    27    27    28    1
    28    27    29   ar
    29    29    30   ar
    30     8     4    1
    31    17    12   ar
    32    30    24   ar
    33    22    15    1
    34     1    31    1
    35     1    32    1
    36     1    33    1
    37     3    34    1
    38     3    35    1
    39     4    36    1
    40     5    37    1
    41     5    38    1
    42     6    39    1
    43     6    40    1
    44     7    41    1
    45     7    42    1
    46    13    43    1
    47    14    44    1
    48    17    45    1
    49    23    46    1
    50    23    47    1
    51    25    48    1
    52    26    49    1
    53    28    50    1
    54    29    51    1
    55    30    52    1
