
     RDKit          3D

 66 69  0  0  0  0  0  0  0  0999 V2000
  -11.7899    2.0955   -1.3803 C   0  0  0  0  0  0  0  0  0  0  0  0
  -10.3373    2.2766   -1.2634 C   0  0  0  0  0  0  0  0  0  0  0  0
   -9.1531    2.4055   -1.1594 C   0  0  0  0  0  0  0  0  0  0  0  0
   -7.7049    2.5818   -1.0468 C   0  0  0  0  0  0  0  0  0  0  0  0
   -7.2726    1.7567    0.0410 O   0  0  0  0  0  0  0  0  0  0  0  0
   -5.9329    1.7694    0.3603 C   0  0  0  0  0  0  0  0  0  0  0  0
   -5.0407    2.5433   -0.3341 C   0  0  0  0  0  0  0  0  0  0  0  0
   -3.6954    2.5653   -0.0227 C   0  0  0  0  0  0  0  0  0  0  0  0
   -3.2448    1.7867    1.0143 C   0  0  0  0  0  0  0  0  0  0  0  0
   -1.5647    1.7924    1.4433 S   0  0  0  0  0  6  0  0  0  0  0  0
   -0.9734    3.1485    1.1293 O   0  0  0  0  0  0  0  0  0  0  0  0
   -1.4953    1.6474    2.9424 O   0  0  0  0  0  0  0  0  0  0  0  0
   -0.6251    0.6327    0.6322 N   0  0  0  0  0  0  0  0  0  0  0  0
   -1.0203   -0.7462    0.8851 C   0  0  2  0  0  0  0  0  0  0  0  0
    0.1761   -1.5086    1.4516 C   0  0  0  0  0  0  0  0  0  0  0  0
    1.3177   -1.4529    0.4736 C   0  0  0  0  0  0  0  0  0  0  0  0
    2.2794   -0.4498    0.4455 C   0  0  0  0  0  0  0  0  0  0  0  0
    3.1065   -0.6418   -0.5958 N   0  0  0  0  0  0  0  0  0  0  0  0
    4.1835    0.2341   -0.8906 C   0  0  0  0  0  0  0  0  0  0  0  0
    5.4809   -0.0344   -0.3179 C   0  0  0  0  0  0  0  0  0  0  0  0
    5.8166    0.4363    0.9309 C   0  0  0  0  0  0  0  0  0  0  0  0
    7.0514    0.1976    1.4691 C   0  0  0  0  0  0  0  0  0  0  0  0
    7.9827   -0.5306    0.7468 C   0  0  0  0  0  0  0  0  0  0  0  0
    9.2300   -0.7532    1.3266 O   0  0  0  0  0  0  0  0  0  0  0  0
    9.5628   -0.2638    2.6064 C   0  0  0  0  0  0  0  0  0  0  0  0
    7.6568   -1.0001   -0.4910 C   0  0  0  0  0  0  0  0  0  0  0  0
    6.4125   -0.7543   -1.0228 C   0  0  0  0  0  0  0  0  0  0  0  0
    2.6825   -1.7576   -1.2291 C   0  0  0  0  0  0  0  0  0  0  0  0
    3.2122   -2.3655   -2.3437 C   0  0  0  0  0  0  0  0  0  0  0  0
    2.6356   -3.5212   -2.8346 C   0  0  0  0  0  0  0  0  0  0  0  0
    1.5353   -4.0532   -2.2010 C   0  0  0  0  0  0  0  0  0  0  0  0
    1.0147   -3.4343   -1.0863 C   0  0  0  0  0  0  0  0  0  0  0  0
    1.5683   -2.2837   -0.5807 C   0  0  0  0  0  0  0  0  0  0  0  0
   -1.4396   -1.3534   -0.3779 C   0  0  0  0  0  0  0  0  0  0  0  0
   -1.9953   -2.4797   -0.3462 O   0  0  0  0  0  0  0  0  0  0  0  0
   -1.2530   -0.7485   -1.5983 O   0  0  0  0  0  0  0  0  0  0  0  0
   -4.1487    1.0132    1.7047 C   0  0  0  0  0  0  0  0  0  0  0  0
   -5.4992    0.9622    1.4254 C   0  0  0  0  0  0  0  0  0  0  0  0
  -12.1431    1.1331   -0.9648 H   0  0  0  0  0  0  0  0  0  0  0  0
  -12.2782    2.9229   -0.8033 H   0  0  0  0  0  0  0  0  0  0  0  0
  -12.0314    2.1715   -2.4516 H   0  0  0  0  0  0  0  0  0  0  0  0
   -7.4103    3.6165   -0.7869 H   0  0  0  0  0  0  0  0  0  0  0  0
   -7.1928    2.2445   -1.9966 H   0  0  0  0  0  0  0  0  0  0  0  0
   -5.3718    3.1816   -1.1727 H   0  0  0  0  0  0  0  0  0  0  0  0
   -3.0164    3.2033   -0.6088 H   0  0  0  0  0  0  0  0  0  0  0  0
   -0.6343    0.8100   -0.3732 H   0  0  0  0  0  0  0  0  0  0  0  0
   -1.8797   -0.8116    1.5791 H   0  0  0  0  0  0  0  0  0  0  0  0
    0.4766   -1.1402    2.4344 H   0  0  0  0  0  0  0  0  0  0  0  0
   -0.1543   -2.5628    1.5556 H   0  0  0  0  0  0  0  0  0  0  0  0
    2.3138    0.3569    1.1881 H   0  0  0  0  0  0  0  0  0  0  0  0
    3.8739    1.2838   -0.6085 H   0  0  0  0  0  0  0  0  0  0  0  0
    4.3169    0.3160   -2.0125 H   0  0  0  0  0  0  0  0  0  0  0  0
    5.0769    1.0171    1.5084 H   0  0  0  0  0  0  0  0  0  0  0  0
    7.3182    0.5728    2.4651 H   0  0  0  0  0  0  0  0  0  0  0  0
    9.3364    0.8353    2.5873 H   0  0  0  0  0  0  0  0  0  0  0  0
   10.6376   -0.4423    2.7781 H   0  0  0  0  0  0  0  0  0  0  0  0
    8.9586   -0.7977    3.3727 H   0  0  0  0  0  0  0  0  0  0  0  0
    8.4099   -1.5713   -1.0390 H   0  0  0  0  0  0  0  0  0  0  0  0
    6.2048   -1.1557   -2.0235 H   0  0  0  0  0  0  0  0  0  0  0  0
    4.0740   -1.9100   -2.8050 H   0  0  0  0  0  0  0  0  0  0  0  0
    3.0645   -3.9774   -3.7036 H   0  0  0  0  0  0  0  0  0  0  0  0
    1.0752   -4.9609   -2.5788 H   0  0  0  0  0  0  0  0  0  0  0  0
    0.1754   -3.8644   -0.5828 H   0  0  0  0  0  0  0  0  0  0  0  0
   -1.8659   -0.9167   -2.4054 H   0  0  0  0  0  0  0  0  0  0  0  0
   -3.8412    0.3724    2.5401 H   0  0  0  0  0  0  0  0  0  0  0  0
   -6.2123    0.3607    1.9594 H   0  0  0  0  0  0  0  0  0  0  0  0
  1  2  1  0
  2  3  3  0
  3  4  1  0
  4  5  1  0
  5  6  1  0
  6  7  2  0
  7  8  1  0
  8  9  2  0
  9 10  1  0
 10 11  2  0
 10 12  2  0
 10 13  1  0
 13 14  1  0
 14 15  1  0
 15 16  1  0
 16 17  2  0
 17 18  1  0
 18 19  1  0
 19 20  1  0
 20 21  2  0
 21 22  1  0
 22 23  2  0
 23 24  1  0
 24 25  1  0
 23 26  1  0
 26 27  2  0
 18 28  1  0
 28 29  2  0
 29 30  1  0
 30 31  2  0
 31 32  1  0
 32 33  2  0
 14 34  1  0
 34 35  2  0
 34 36  1  0
  9 37  1  0
 37 38  2  0
 38  6  1  0
 33 16  1  0
 27 20  1  0
 33 28  1  0
  1 39  1  0
  1 40  1  0
  1 41  1  0
  4 42  1  0
  4 43  1  0
  7 44  1  0
  8 45  1  0
 13 46  1  0
 14 47  1  1
 15 48  1  0
 15 49  1  0
 17 50  1  0
 19 51  1  0
 19 52  1  0
 21 53  1  0
 22 54  1  0
 25 55  1  0
 25 56  1  0
 25 57  1  0
 26 58  1  0
 27 59  1  0
 29 60  1  0
 30 61  1  0
 31 62  1  0
 32 63  1  0
 36 64  1  0
 37 65  1  0
 38 66  1  0
M  END
$$$$
