@<TRIPOS>MOLECULE
*****
 66 69 0 0 0
SMALL
GASTEIGER

@<TRIPOS>ATOM
      1 C         -11.7899    2.0955   -1.3803 C.3     1  UNL1       -0.0025
      2 C         -10.3373    2.2766   -1.2634 C.1     1  UNL1       -0.1022
      3 C          -9.1531    2.4055   -1.1594 C.1     1  UNL1       -0.0617
      4 C          -7.7049    2.5818   -1.0468 C.3     1  UNL1        0.1499
      5 O          -7.2726    1.7567    0.0410 O.3     1  UNL1       -0.4795
      6 C          -5.9329    1.7694    0.3603 C.ar    1  UNL1        0.1220
      7 C          -5.0407    2.5433   -0.3341 C.ar    1  UNL1       -0.0180
      8 C          -3.6954    2.5653   -0.0227 C.ar    1  UNL1       -0.0319
      9 C          -3.2448    1.7867    1.0143 C.ar    1  UNL1        0.1055
     10 S          -1.5647    1.7924    1.4433 S.O2    1  UNL1        0.0591
     11 O          -0.9734    3.1485    1.1293 O.2     1  UNL1       -0.1530
     12 O          -1.4953    1.6474    2.9424 O.2     1  UNL1       -0.1530
     13 N          -0.6251    0.6327    0.6322 N.3     1  UNL1       -0.1758
     14 C          -1.0203   -0.7462    0.8851 C.3     1  UNL1        0.1293
     15 C           0.1761   -1.5086    1.4516 C.3     1  UNL1        0.0017
     16 C           1.3177   -1.4529    0.4736 C.ar    1  UNL1       -0.0201
     17 C           2.2794   -0.4498    0.4455 C.ar    1  UNL1        0.0093
     18 N           3.1065   -0.6418   -0.5958 N.ar    1  UNL1       -0.3420
     19 C           4.1835    0.2341   -0.8906 C.3     1  UNL1        0.0483
     20 C           5.4809   -0.0344   -0.3179 C.ar    1  UNL1       -0.0275
     21 C           5.8166    0.4363    0.9309 C.ar    1  UNL1       -0.0534
     22 C           7.0514    0.1976    1.4691 C.ar    1  UNL1       -0.0196
     23 C           7.9827   -0.5306    0.7468 C.ar    1  UNL1        0.1201
     24 O           9.2300   -0.7532    1.3266 O.3     1  UNL1       -0.4951
     25 C           9.5628   -0.2638    2.6064 C.3     1  UNL1        0.0788
     26 C           7.6568   -1.0001   -0.4910 C.ar    1  UNL1       -0.0196
     27 C           6.4125   -0.7543   -1.0228 C.ar    1  UNL1       -0.0534
     28 C           2.6825   -1.7576   -1.2291 C.ar    1  UNL1        0.0496
     29 C           3.2122   -2.3655   -2.3437 C.ar    1  UNL1       -0.0376
     30 C           2.6356   -3.5212   -2.8346 C.ar    1  UNL1       -0.0598
     31 C           1.5353   -4.0532   -2.2010 C.ar    1  UNL1       -0.0611
     32 C           1.0147   -3.4343   -1.0863 C.ar    1  UNL1       -0.0523
     33 C           1.5683   -2.2837   -0.5807 C.ar    1  UNL1        0.0031
     34 C          -1.4396   -1.3534   -0.3779 C.2     1  UNL1        0.3239
     35 O          -1.9953   -2.4797   -0.3462 O.2     1  UNL1       -0.2492
     36 O          -1.2530   -0.7485   -1.5983 O.3     1  UNL1       -0.4795
     37 C          -4.1487    1.0132    1.7047 C.ar    1  UNL1       -0.0319
     38 C          -5.4992    0.9622    1.4254 C.ar    1  UNL1       -0.0180
     39 H         -12.1431    1.1331   -0.9648 H       1  UNL1        0.0362
     40 H         -12.2782    2.9229   -0.8033 H       1  UNL1        0.0362
     41 H         -12.0314    2.1715   -2.4516 H       1  UNL1        0.0362
     42 H          -7.4103    3.6165   -0.7869 H       1  UNL1        0.0837
     43 H          -7.1928    2.2445   -1.9966 H       1  UNL1        0.0837
     44 H          -5.3718    3.1816   -1.1727 H       1  UNL1        0.0655
     45 H          -3.0164    3.2033   -0.6088 H       1  UNL1        0.0638
     46 H          -0.6343    0.8100   -0.3732 H       1  UNL1        0.1489
     47 H          -1.8797   -0.8116    1.5791 H       1  UNL1        0.0596
     48 H           0.4766   -1.1402    2.4344 H       1  UNL1        0.0335
     49 H          -0.1543   -2.5628    1.5556 H       1  UNL1        0.0335
     50 H           2.3138    0.3569    1.1881 H       1  UNL1        0.0812
     51 H           3.8739    1.2838   -0.6085 H       1  UNL1        0.0541
     52 H           4.3169    0.3160   -2.0125 H       1  UNL1        0.0541
     53 H           5.0769    1.0171    1.5084 H       1  UNL1        0.0622
     54 H           7.3182    0.5728    2.4651 H       1  UNL1        0.0654
     55 H           9.3364    0.8353    2.5873 H       1  UNL1        0.0660
     56 H          10.6376   -0.4423    2.7781 H       1  UNL1        0.0660
     57 H           8.9586   -0.7977    3.3727 H       1  UNL1        0.0660
     58 H           8.4099   -1.5713   -1.0390 H       1  UNL1        0.0654
     59 H           6.2048   -1.1557   -2.0235 H       1  UNL1        0.0622
     60 H           4.0740   -1.9100   -2.8050 H       1  UNL1        0.0638
     61 H           3.0645   -3.9774   -3.7036 H       1  UNL1        0.0618
     62 H           1.0752   -4.9609   -2.5788 H       1  UNL1        0.0618
     63 H           0.1754   -3.8644   -0.5828 H       1  UNL1        0.0624
     64 H          -1.8659   -0.9167   -2.4054 H       1  UNL1        0.2951
     65 H          -3.8412    0.3724    2.5401 H       1  UNL1        0.0638
     66 H          -6.2123    0.3607    1.9594 H       1  UNL1        0.0655
@<TRIPOS>BOND
     1     1     2    1
     2     2     3    3
     3     3     4    1
     4     4     5    1
     5     5     6    1
     6     6     7   ar
     7     7     8   ar
     8     8     9   ar
     9     9    10    1
    10    10    11    2
    11    10    12    2
    12    10    13    1
    13    13    14    1
    14    14    15    1
    15    15    16    1
    16    16    17   ar
    17    17    18   ar
    18    18    19    1
    19    19    20    1
    20    20    21   ar
    21    21    22   ar
    22    22    23   ar
    23    23    24    1
    24    24    25    1
    25    23    26   ar
    26    26    27   ar
    27    18    28   ar
    28    28    29   ar
    29    29    30   ar
    30    30    31   ar
    31    31    32   ar
    32    32    33   ar
    33    14    34    1
    34    34    35    2
    35    34    36    1
    36     9    37   ar
    37    37    38   ar
    38    38     6   ar
    39    33    16   ar
    40    27    20   ar
    41    33    28   ar
    42     1    39    1
    43     1    40    1
    44     1    41    1
    45     4    42    1
    46     4    43    1
    47     7    44    1
    48     8    45    1
    49    13    46    1
    50    14    47    1
    51    15    48    1
    52    15    49    1
    53    17    50    1
    54    19    51    1
    55    19    52    1
    56    21    53    1
    57    22    54    1
    58    25    55    1
    59    25    56    1
    60    25    57    1
    61    26    58    1
    62    27    59    1
    63    29    60    1
    64    30    61    1
    65    31    62    1
    66    32    63    1
    67    36    64    1
    68    37    65    1
    69    38    66    1
