@<TRIPOS>MOLECULE
*****
 79 84 0 0 0
SMALL
GASTEIGER

@<TRIPOS>ATOM
      1 C           8.7554    2.9690   -0.5876 C.3     1  UNL1        0.0124
      2 C           9.1509    1.5725   -0.8303 C.2     1  UNL1        0.2130
      3 O          10.0897    1.3383   -1.6316 O.2     1  UNL1       -0.2759
      4 N           8.5176    0.4987   -0.2000 N.am    1  UNL1       -0.2926
      5 C           7.4255    0.5346    0.7564 C.3     1  UNL1        0.0421
      6 C           7.7061   -0.5995    1.7028 C.3     1  UNL1       -0.0311
      7 C           8.9280   -1.3189    1.1271 C.3     1  UNL1       -0.0311
      8 C           8.7779   -0.9376   -0.3405 C.3     1  UNL1        0.0421
      9 C           7.5997   -1.6585   -0.8915 C.3     1  UNL1        0.0337
     10 N           6.3452   -0.9916   -0.7587 N.am    1  UNL1       -0.2940
     11 C           5.2336   -1.6030   -1.4437 C.2     1  UNL1        0.2482
     12 O           5.4113   -2.6565   -2.1185 O.2     1  UNL1       -0.2699
     13 C           3.9301   -0.9726   -1.3268 C.ar    1  UNL1        0.0551
     14 C           3.6630    0.2670   -1.8295 C.ar    1  UNL1       -0.0449
     15 C           2.3844    0.8000   -1.6691 C.ar    1  UNL1       -0.0208
     16 C           1.3858    0.0985   -1.0149 C.ar    1  UNL1        0.1250
     17 N           0.0674    0.6349   -0.8352 N.pl3   1  UNL1       -0.2685
     18 C          -0.8800   -0.2101   -0.1833 C.ar    1  UNL1        0.2224
     19 N          -0.5514   -1.4376    0.2538 N.ar    1  UNL1       -0.2219
     20 C          -1.4728   -2.2210    0.8420 C.ar    1  UNL1        0.0419
     21 C          -2.7829   -1.7754    1.0089 C.ar    1  UNL1        0.0378
     22 C          -3.9184   -2.3232    1.5408 C.ar    1  UNL1       -0.0209
     23 C          -4.8928   -1.3772    1.3954 C.ar    1  UNL1        0.1070
     24 C          -6.2865   -1.6035    1.8344 C.2     1  UNL1        0.2627
     25 O          -6.6824   -1.0348    2.8733 O.2     1  UNL1       -0.2684
     26 N          -7.1489   -2.4458    1.0875 N.am    1  UNL1       -0.3024
     27 C          -8.5020   -2.6397    1.5384 C.3     1  UNL1        0.0032
     28 C          -6.7033   -3.1156   -0.1111 C.3     1  UNL1        0.0032
     29 N          -4.4309   -0.2558    0.7981 N.ar    1  UNL1       -0.3180
     30 C          -5.1762    0.9478    0.5036 C.3     1  UNL1        0.0366
     31 C          -4.2033    2.0366    0.0883 C.3     1  UNL1       -0.0320
     32 C          -4.9014    3.3816    0.0209 C.3     1  UNL1       -0.0512
     33 C          -5.7687    3.4307   -1.2249 C.3     1  UNL1       -0.0530
     34 C          -7.1667    3.0337   -0.8897 C.3     1  UNL1       -0.0530
     35 C          -7.3606    1.6049   -0.5139 C.3     1  UNL1       -0.0512
     36 C          -6.1160    0.7482   -0.6632 C.3     1  UNL1       -0.0320
     37 C          -3.1134   -0.5217    0.5621 C.ar    1  UNL1        0.1466
     38 N          -2.1402    0.2121   -0.0185 N.ar    1  UNL1       -0.1962
     39 N           1.7233   -1.1126   -0.5489 N.ar    1  UNL1       -0.2394
     40 C           2.9295   -1.6721   -0.6723 C.ar    1  UNL1        0.0418
     41 C           6.1622    0.2179   -0.0039 C.3     1  UNL1        0.0337
     42 H           9.3353    3.6835   -1.2187 H       1  UNL1        0.0323
     43 H           8.9016    3.2744    0.4727 H       1  UNL1        0.0323
     44 H           7.6562    3.0618   -0.7864 H       1  UNL1        0.0323
     45 H           7.3668    1.5167    1.2730 H       1  UNL1        0.0516
     46 H           7.8945   -0.2262    2.7187 H       1  UNL1        0.0284
     47 H           6.8655   -1.3186    1.7453 H       1  UNL1        0.0284
     48 H           9.8454   -0.8357    1.5049 H       1  UNL1        0.0284
     49 H           8.8919   -2.3996    1.2789 H       1  UNL1        0.0284
     50 H           9.6777   -1.1357   -0.9301 H       1  UNL1        0.0516
     51 H           7.7635   -2.0095   -1.9377 H       1  UNL1        0.0483
     52 H           7.4978   -2.6244   -0.3090 H       1  UNL1        0.0483
     53 H           4.4087    0.8648   -2.3688 H       1  UNL1        0.0627
     54 H           2.1464    1.7815   -2.0552 H       1  UNL1        0.0652
     55 H          -0.1468    1.5796   -1.1691 H       1  UNL1        0.1564
     56 H          -1.2361   -3.2082    1.2010 H       1  UNL1        0.0838
     57 H          -3.9709   -3.3199    1.9767 H       1  UNL1        0.0647
     58 H          -9.0194   -3.4629    0.9894 H       1  UNL1        0.0428
     59 H          -8.6110   -2.7267    2.6295 H       1  UNL1        0.0428
     60 H          -9.0549   -1.7053    1.2162 H       1  UNL1        0.0428
     61 H          -6.9077   -4.2029   -0.0926 H       1  UNL1        0.0428
     62 H          -7.1606   -2.6703   -1.0304 H       1  UNL1        0.0428
     63 H          -5.6052   -3.0157   -0.2615 H       1  UNL1        0.0428
     64 H          -5.7369    1.3056    1.4126 H       1  UNL1        0.0528
     65 H          -3.8428    1.8164   -0.9400 H       1  UNL1        0.0285
     66 H          -3.4069    2.1019    0.8304 H       1  UNL1        0.0285
     67 H          -5.4851    3.5005    0.9478 H       1  UNL1        0.0266
     68 H          -4.1097    4.1520   -0.0784 H       1  UNL1        0.0266
     69 H          -5.3351    2.8917   -2.0651 H       1  UNL1        0.0265
     70 H          -5.8184    4.5118   -1.5521 H       1  UNL1        0.0265
     71 H          -7.8440    3.3344   -1.7440 H       1  UNL1        0.0265
     72 H          -7.5133    3.6978   -0.0470 H       1  UNL1        0.0265
     73 H          -8.2236    1.2017   -1.0793 H       1  UNL1        0.0266
     74 H          -7.6540    1.5355    0.5621 H       1  UNL1        0.0266
     75 H          -6.4526   -0.2959   -0.6864 H       1  UNL1        0.0285
     76 H          -5.5575    0.9338   -1.5859 H       1  UNL1        0.0285
     77 H           3.1289   -2.6731   -0.2615 H       1  UNL1        0.0838
     78 H           6.0489    1.0785   -0.7312 H       1  UNL1        0.0483
     79 H           5.2757    0.1643    0.6649 H       1  UNL1        0.0483
@<TRIPOS>BOND
     1     1     2    1
     2     2     3    2
     3     2     4   am
     4     4     5    1
     5     5     6    1
     6     6     7    1
     7     7     8    1
     8     8     9    1
     9     9    10    1
    10    10    11   am
    11    11    12    2
    12    11    13    1
    13    13    14   ar
    14    14    15   ar
    15    15    16   ar
    16    16    17    1
    17    17    18    1
    18    18    19   ar
    19    19    20   ar
    20    20    21   ar
    21    21    22   ar
    22    22    23   ar
    23    23    24    1
    24    24    25    2
    25    24    26   am
    26    26    27    1
    27    26    28    1
    28    23    29   ar
    29    29    30    1
    30    30    31    1
    31    31    32    1
    32    32    33    1
    33    33    34    1
    34    34    35    1
    35    35    36    1
    36    29    37   ar
    37    37    38   ar
    38    16    39   ar
    39    39    40   ar
    40    10    41    1
    41     8     4    1
    42    40    13   ar
    43    41     5    1
    44    38    18   ar
    45    37    21   ar
    46    36    30    1
    47     1    42    1
    48     1    43    1
    49     1    44    1
    50     5    45    1
    51     6    46    1
    52     6    47    1
    53     7    48    1
    54     7    49    1
    55     8    50    1
    56     9    51    1
    57     9    52    1
    58    14    53    1
    59    15    54    1
    60    17    55    1
    61    20    56    1
    62    22    57    1
    63    27    58    1
    64    27    59    1
    65    27    60    1
    66    28    61    1
    67    28    62    1
    68    28    63    1
    69    30    64    1
    70    31    65    1
    71    31    66    1
    72    32    67    1
    73    32    68    1
    74    33    69    1
    75    33    70    1
    76    34    71    1
    77    34    72    1
    78    35    73    1
    79    35    74    1
    80    36    75    1
    81    36    76    1
    82    40    77    1
    83    41    78    1
    84    41    79    1
