
     RDKit          3D

 79 84  0  0  0  0  0  0  0  0999 V2000
    8.7554    2.9690   -0.5876 C   0  0  0  0  0  0  0  0  0  0  0  0
    9.1509    1.5725   -0.8303 C   0  0  0  0  0  0  0  0  0  0  0  0
   10.0897    1.3383   -1.6316 O   0  0  0  0  0  0  0  0  0  0  0  0
    8.5176    0.4987   -0.2000 N   0  0  0  0  0  0  0  0  0  0  0  0
    7.4255    0.5346    0.7564 C   0  0  0  0  0  0  0  0  0  0  0  0
    7.7061   -0.5995    1.7028 C   0  0  0  0  0  0  0  0  0  0  0  0
    8.9280   -1.3189    1.1271 C   0  0  0  0  0  0  0  0  0  0  0  0
    8.7779   -0.9376   -0.3405 C   0  0  0  0  0  0  0  0  0  0  0  0
    7.5997   -1.6585   -0.8915 C   0  0  0  0  0  0  0  0  0  0  0  0
    6.3452   -0.9916   -0.7587 N   0  0  0  0  0  0  0  0  0  0  0  0
    5.2336   -1.6030   -1.4437 C   0  0  0  0  0  0  0  0  0  0  0  0
    5.4113   -2.6565   -2.1185 O   0  0  0  0  0  0  0  0  0  0  0  0
    3.9301   -0.9726   -1.3268 C   0  0  0  0  0  0  0  0  0  0  0  0
    3.6630    0.2670   -1.8295 C   0  0  0  0  0  0  0  0  0  0  0  0
    2.3844    0.8000   -1.6691 C   0  0  0  0  0  0  0  0  0  0  0  0
    1.3858    0.0985   -1.0149 C   0  0  0  0  0  0  0  0  0  0  0  0
    0.0674    0.6349   -0.8352 N   0  0  0  0  0  0  0  0  0  0  0  0
   -0.8800   -0.2101   -0.1833 C   0  0  0  0  0  0  0  0  0  0  0  0
   -0.5514   -1.4376    0.2538 N   0  0  0  0  0  0  0  0  0  0  0  0
   -1.4728   -2.2210    0.8420 C   0  0  0  0  0  0  0  0  0  0  0  0
   -2.7829   -1.7754    1.0089 C   0  0  0  0  0  0  0  0  0  0  0  0
   -3.9184   -2.3232    1.5408 C   0  0  0  0  0  0  0  0  0  0  0  0
   -4.8928   -1.3772    1.3954 C   0  0  0  0  0  0  0  0  0  0  0  0
   -6.2865   -1.6035    1.8344 C   0  0  0  0  0  0  0  0  0  0  0  0
   -6.6824   -1.0348    2.8733 O   0  0  0  0  0  0  0  0  0  0  0  0
   -7.1489   -2.4458    1.0875 N   0  0  0  0  0  0  0  0  0  0  0  0
   -8.5020   -2.6397    1.5384 C   0  0  0  0  0  0  0  0  0  0  0  0
   -6.7033   -3.1156   -0.1111 C   0  0  0  0  0  0  0  0  0  0  0  0
   -4.4309   -0.2558    0.7981 N   0  0  0  0  0  0  0  0  0  0  0  0
   -5.1762    0.9478    0.5036 C   0  0  0  0  0  0  0  0  0  0  0  0
   -4.2033    2.0366    0.0883 C   0  0  0  0  0  0  0  0  0  0  0  0
   -4.9014    3.3816    0.0209 C   0  0  0  0  0  0  0  0  0  0  0  0
   -5.7687    3.4307   -1.2249 C   0  0  0  0  0  0  0  0  0  0  0  0
   -7.1667    3.0337   -0.8897 C   0  0  0  0  0  0  0  0  0  0  0  0
   -7.3606    1.6049   -0.5139 C   0  0  0  0  0  0  0  0  0  0  0  0
   -6.1160    0.7482   -0.6632 C   0  0  0  0  0  0  0  0  0  0  0  0
   -3.1134   -0.5217    0.5621 C   0  0  0  0  0  0  0  0  0  0  0  0
   -2.1402    0.2121   -0.0185 N   0  0  0  0  0  0  0  0  0  0  0  0
    1.7233   -1.1126   -0.5489 N   0  0  0  0  0  0  0  0  0  0  0  0
    2.9295   -1.6721   -0.6723 C   0  0  0  0  0  0  0  0  0  0  0  0
    6.1622    0.2179   -0.0039 C   0  0  0  0  0  0  0  0  0  0  0  0
    9.3353    3.6835   -1.2187 H   0  0  0  0  0  0  0  0  0  0  0  0
    8.9016    3.2744    0.4727 H   0  0  0  0  0  0  0  0  0  0  0  0
    7.6562    3.0618   -0.7864 H   0  0  0  0  0  0  0  0  0  0  0  0
    7.3668    1.5167    1.2730 H   0  0  0  0  0  0  0  0  0  0  0  0
    7.8945   -0.2262    2.7187 H   0  0  0  0  0  0  0  0  0  0  0  0
    6.8655   -1.3186    1.7453 H   0  0  0  0  0  0  0  0  0  0  0  0
    9.8454   -0.8357    1.5049 H   0  0  0  0  0  0  0  0  0  0  0  0
    8.8919   -2.3996    1.2789 H   0  0  0  0  0  0  0  0  0  0  0  0
    9.6777   -1.1357   -0.9301 H   0  0  0  0  0  0  0  0  0  0  0  0
    7.7635   -2.0095   -1.9377 H   0  0  0  0  0  0  0  0  0  0  0  0
    7.4978   -2.6244   -0.3090 H   0  0  0  0  0  0  0  0  0  0  0  0
    4.4087    0.8648   -2.3688 H   0  0  0  0  0  0  0  0  0  0  0  0
    2.1464    1.7815   -2.0552 H   0  0  0  0  0  0  0  0  0  0  0  0
   -0.1468    1.5796   -1.1691 H   0  0  0  0  0  0  0  0  0  0  0  0
   -1.2361   -3.2082    1.2010 H   0  0  0  0  0  0  0  0  0  0  0  0
   -3.9709   -3.3199    1.9767 H   0  0  0  0  0  0  0  0  0  0  0  0
   -9.0194   -3.4629    0.9894 H   0  0  0  0  0  0  0  0  0  0  0  0
   -8.6110   -2.7267    2.6295 H   0  0  0  0  0  0  0  0  0  0  0  0
   -9.0549   -1.7053    1.2162 H   0  0  0  0  0  0  0  0  0  0  0  0
   -6.9077   -4.2029   -0.0926 H   0  0  0  0  0  0  0  0  0  0  0  0
   -7.1606   -2.6703   -1.0304 H   0  0  0  0  0  0  0  0  0  0  0  0
   -5.6052   -3.0157   -0.2615 H   0  0  0  0  0  0  0  0  0  0  0  0
   -5.7369    1.3056    1.4126 H   0  0  0  0  0  0  0  0  0  0  0  0
   -3.8428    1.8164   -0.9400 H   0  0  0  0  0  0  0  0  0  0  0  0
   -3.4069    2.1019    0.8304 H   0  0  0  0  0  0  0  0  0  0  0  0
   -5.4851    3.5005    0.9478 H   0  0  0  0  0  0  0  0  0  0  0  0
   -4.1097    4.1520   -0.0784 H   0  0  0  0  0  0  0  0  0  0  0  0
   -5.3351    2.8917   -2.0651 H   0  0  0  0  0  0  0  0  0  0  0  0
   -5.8184    4.5118   -1.5521 H   0  0  0  0  0  0  0  0  0  0  0  0
   -7.8440    3.3344   -1.7440 H   0  0  0  0  0  0  0  0  0  0  0  0
   -7.5133    3.6978   -0.0470 H   0  0  0  0  0  0  0  0  0  0  0  0
   -8.2236    1.2017   -1.0793 H   0  0  0  0  0  0  0  0  0  0  0  0
   -7.6540    1.5355    0.5621 H   0  0  0  0  0  0  0  0  0  0  0  0
   -6.4526   -0.2959   -0.6864 H   0  0  0  0  0  0  0  0  0  0  0  0
   -5.5575    0.9338   -1.5859 H   0  0  0  0  0  0  0  0  0  0  0  0
    3.1289   -2.6731   -0.2615 H   0  0  0  0  0  0  0  0  0  0  0  0
    6.0489    1.0785   -0.7312 H   0  0  0  0  0  0  0  0  0  0  0  0
    5.2757    0.1643    0.6649 H   0  0  0  0  0  0  0  0  0  0  0  0
  1  2  1  0
  2  3  2  0
  2  4  1  0
  4  5  1  0
  5  6  1  0
  6  7  1  0
  7  8  1  0
  8  9  1  0
  9 10  1  0
 10 11  1  0
 11 12  2  0
 11 13  1  0
 13 14  2  0
 14 15  1  0
 15 16  2  0
 16 17  1  0
 17 18  1  0
 18 19  2  0
 19 20  1  0
 20 21  2  0
 21 22  1  0
 22 23  2  0
 23 24  1  0
 24 25  2  0
 24 26  1  0
 26 27  1  0
 26 28  1  0
 23 29  1  0
 29 30  1  0
 30 31  1  0
 31 32  1  0
 32 33  1  0
 33 34  1  0
 34 35  1  0
 35 36  1  0
 29 37  1  0
 37 38  2  0
 16 39  1  0
 39 40  2  0
 10 41  1  0
  8  4  1  0
 40 13  1  0
 41  5  1  0
 38 18  1  0
 37 21  1  0
 36 30  1  0
  1 42  1  0
  1 43  1  0
  1 44  1  0
  5 45  1  0
  6 46  1  0
  6 47  1  0
  7 48  1  0
  7 49  1  0
  8 50  1  0
  9 51  1  0
  9 52  1  0
 14 53  1  0
 15 54  1  0
 17 55  1  0
 20 56  1  0
 22 57  1  0
 27 58  1  0
 27 59  1  0
 27 60  1  0
 28 61  1  0
 28 62  1  0
 28 63  1  0
 30 64  1  0
 31 65  1  0
 31 66  1  0
 32 67  1  0
 32 68  1  0
 33 69  1  0
 33 70  1  0
 34 71  1  0
 34 72  1  0
 35 73  1  0
 35 74  1  0
 36 75  1  0
 36 76  1  0
 40 77  1  0
 41 78  1  0
 41 79  1  0
M  END
$$$$
