
     RDKit          3D

 50 53  0  0  0  0  0  0  0  0999 V2000
   -4.1041    1.2625   -2.0944 C   0  0  0  0  0  0  0  0  0  0  0  0
   -3.6274   -0.1177   -1.7403 C   0  0  1  0  0  0  0  0  0  0  0  0
   -2.2054   -0.1932   -1.3227 C   0  0  0  0  0  0  0  0  0  0  0  0
   -1.9419    0.0239    0.0859 N   0  0  0  0  0  0  0  0  0  0  0  0
   -3.1714    0.1943    0.7907 C   0  0  0  0  0  0  0  0  0  0  0  0
   -4.0290   -1.0121    0.4484 C   0  0  1  0  0  0  0  0  0  0  0  0
   -5.0551   -1.1741    1.5166 C   0  0  0  0  0  0  0  0  0  0  0  0
   -4.5705   -0.7430   -0.8649 N   0  0  0  0  0  0  0  0  0  0  0  0
   -0.6194    0.0451    0.5514 C   0  0  0  0  0  0  0  0  0  0  0  0
   -0.2660    0.2331    1.8692 C   0  0  0  0  0  0  0  0  0  0  0  0
   -1.1820    0.4084    2.8296 F   0  0  0  0  0  0  0  0  0  0  0  0
    1.0276    0.2619    2.3460 C   0  0  0  0  0  0  0  0  0  0  0  0
    1.3430    0.4605    3.7246 N   0  0  0  0  0  0  0  0  0  0  0  0
    2.0889    0.0920    1.4610 C   0  0  0  0  0  0  0  0  0  0  0  0
    3.3702    0.1236    1.9670 C   0  0  0  0  0  0  0  0  0  0  0  0
    3.5880    0.3013    3.1866 O   0  0  0  0  0  0  0  0  0  0  0  0
    4.4180   -0.0467    1.0903 C   0  0  0  0  0  0  0  0  0  0  0  0
    4.0795   -0.2354   -0.2314 C   0  0  0  0  0  0  0  0  0  0  0  0
    2.8196   -0.2655   -0.7246 N   0  0  0  0  0  0  0  0  0  0  0  0
    2.5587   -0.4654   -2.1357 C   0  0  0  0  0  0  0  0  0  0  0  0
    2.3881    0.7239   -3.0029 C   0  0  0  0  0  0  0  0  0  0  0  0
    3.6662   -0.0284   -3.0749 C   0  0  0  0  0  0  0  0  0  0  0  0
    1.7572   -0.1003    0.1182 C   0  0  0  0  0  0  0  0  0  0  0  0
    0.4408   -0.1184   -0.2915 C   0  0  0  0  0  0  0  0  0  0  0  0
    0.3422   -0.3182   -1.6132 F   0  0  0  0  0  0  0  0  0  0  0  0
    5.7995   -0.0254    1.5535 C   0  0  0  0  0  0  0  0  0  0  0  0
    6.0499    0.1705    2.9023 O   0  0  0  0  0  0  0  0  0  0  0  0
    6.7622   -0.1805    0.7571 O   0  0  0  0  0  0  0  0  0  0  0  0
   -4.3056    1.3950   -3.1787 H   0  0  0  0  0  0  0  0  0  0  0  0
   -5.0512    1.5556   -1.5750 H   0  0  0  0  0  0  0  0  0  0  0  0
   -3.3527    2.0461   -1.8480 H   0  0  0  0  0  0  0  0  0  0  0  0
   -3.6896   -0.7119   -2.7029 H   0  0  0  0  0  0  0  0  0  0  0  0
   -1.7221   -1.1452   -1.6725 H   0  0  0  0  0  0  0  0  0  0  0  0
   -1.6799    0.6279   -1.8691 H   0  0  0  0  0  0  0  0  0  0  0  0
   -3.6717    1.0970    0.3208 H   0  0  0  0  0  0  0  0  0  0  0  0
   -3.1310    0.3961    1.8527 H   0  0  0  0  0  0  0  0  0  0  0  0
   -3.4476   -1.9535    0.3666 H   0  0  0  0  0  0  0  0  0  0  0  0
   -5.8662   -1.8681    1.2222 H   0  0  0  0  0  0  0  0  0  0  0  0
   -5.4497   -0.1822    1.8846 H   0  0  0  0  0  0  0  0  0  0  0  0
   -4.5581   -1.6299    2.3986 H   0  0  0  0  0  0  0  0  0  0  0  0
   -5.4226   -0.1509   -0.7527 H   0  0  0  0  0  0  0  0  0  0  0  0
    1.5946   -0.4974    4.1096 H   0  0  0  0  0  0  0  0  0  0  0  0
    1.3984    1.2218    4.4318 H   0  0  0  0  0  0  0  0  0  0  0  0
    4.9407   -0.3680   -0.8771 H   0  0  0  0  0  0  0  0  0  0  0  0
    2.1434   -1.4717   -2.4377 H   0  0  0  0  0  0  0  0  0  0  0  0
    2.4290    1.6943   -2.4710 H   0  0  0  0  0  0  0  0  0  0  0  0
    1.7054    0.7330   -3.8574 H   0  0  0  0  0  0  0  0  0  0  0  0
    4.6055    0.3795   -2.7070 H   0  0  0  0  0  0  0  0  0  0  0  0
    3.8071   -0.5740   -4.0459 H   0  0  0  0  0  0  0  0  0  0  0  0
    6.9963    0.1298    3.3063 H   0  0  0  0  0  0  0  0  0  0  0  0
  1  2  1  0
  2  3  1  0
  3  4  1  0
  4  5  1  0
  5  6  1  0
  6  7  1  0
  6  8  1  0
  4  9  1  0
  9 10  2  0
 10 11  1  0
 10 12  1  0
 12 13  1  0
 12 14  2  0
 14 15  1  0
 15 16  2  0
 15 17  1  0
 17 18  2  0
 18 19  1  0
 19 20  1  0
 20 21  1  0
 21 22  1  0
 19 23  1  0
 23 24  2  0
 24 25  1  0
 17 26  1  0
 26 27  1  0
 26 28  2  0
  8  2  1  0
 24  9  1  0
 23 14  1  0
 22 20  1  0
  1 29  1  0
  1 30  1  0
  1 31  1  0
  2 32  1  6
  3 33  1  0
  3 34  1  0
  5 35  1  0
  5 36  1  0
  6 37  1  6
  7 38  1  0
  7 39  1  0
  7 40  1  0
  8 41  1  0
 13 42  1  0
 13 43  1  0
 18 44  1  0
 20 45  1  0
 21 46  1  0
 21 47  1  0
 22 48  1  0
 22 49  1  0
 27 50  1  0
M  END
$$$$
