@<TRIPOS>MOLECULE
*****
 50 53 0 0 0
SMALL
GASTEIGER

@<TRIPOS>ATOM
      1 C          -4.1041    1.2625   -2.0944 C.3     1  UNL1       -0.0482
      2 C          -3.6274   -0.1177   -1.7403 C.3     1  UNL1        0.0208
      3 C          -2.2054   -0.1932   -1.3227 C.3     1  UNL1        0.0275
      4 N          -1.9419    0.0239    0.0859 N.pl3   1  UNL1       -0.3224
      5 C          -3.1714    0.1943    0.7907 C.3     1  UNL1        0.0275
      6 C          -4.0290   -1.0121    0.4484 C.3     1  UNL1        0.0208
      7 C          -5.0551   -1.1741    1.5166 C.3     1  UNL1       -0.0482
      8 N          -4.5705   -0.7430   -0.8649 N.3     1  UNL1       -0.3081
      9 C          -0.6194    0.0451    0.5514 C.ar    1  UNL1        0.1050
     10 C          -0.2660    0.2331    1.8692 C.ar    1  UNL1        0.1684
     11 F          -1.1820    0.4084    2.8296 F       1  UNL1       -0.2015
     12 C           1.0276    0.2619    2.3460 C.ar    1  UNL1        0.0752
     13 N           1.3430    0.4605    3.7246 N.pl3   1  UNL1       -0.3551
     14 C           2.0889    0.0920    1.4610 C.ar    1  UNL1        0.0723
     15 C           3.3702    0.1236    1.9670 C.ar    1  UNL1        0.2053
     16 O           3.5880    0.3013    3.1866 O.2     1  UNL1       -0.2862
     17 C           4.4180   -0.0467    1.0903 C.ar    1  UNL1        0.1221
     18 C           4.0795   -0.2354   -0.2314 C.ar    1  UNL1        0.0232
     19 N           2.8196   -0.2655   -0.7246 N.ar    1  UNL1       -0.3403
     20 C           2.5587   -0.4654   -2.1357 C.3     1  UNL1        0.0348
     21 C           2.3881    0.7239   -3.0029 C.3     1  UNL1       -0.0302
     22 C           3.6662   -0.0284   -3.0749 C.3     1  UNL1       -0.0302
     23 C           1.7572   -0.1003    0.1182 C.ar    1  UNL1        0.0925
     24 C           0.4408   -0.1184   -0.2915 C.ar    1  UNL1        0.1713
     25 F           0.3422   -0.3182   -1.6132 F       1  UNL1       -0.2013
     26 C           5.7995   -0.0254    1.5535 C.2     1  UNL1        0.3420
     27 O           6.0499    0.1705    2.9023 O.3     1  UNL1       -0.4770
     28 O           6.7622   -0.1805    0.7571 O.2     1  UNL1       -0.2449
     29 H          -4.3056    1.3950   -3.1787 H       1  UNL1        0.0245
     30 H          -5.0512    1.5556   -1.5750 H       1  UNL1        0.0245
     31 H          -3.3527    2.0461   -1.8480 H       1  UNL1        0.0245
     32 H          -3.6896   -0.7119   -2.7029 H       1  UNL1        0.0473
     33 H          -1.7221   -1.1452   -1.6725 H       1  UNL1        0.0479
     34 H          -1.6799    0.6279   -1.8691 H       1  UNL1        0.0479
     35 H          -3.6717    1.0970    0.3208 H       1  UNL1        0.0479
     36 H          -3.1310    0.3961    1.8527 H       1  UNL1        0.0479
     37 H          -3.4476   -1.9535    0.3666 H       1  UNL1        0.0473
     38 H          -5.8662   -1.8681    1.2222 H       1  UNL1        0.0245
     39 H          -5.4497   -0.1822    1.8846 H       1  UNL1        0.0245
     40 H          -4.5581   -1.6299    2.3986 H       1  UNL1        0.0245
     41 H          -5.4226   -0.1509   -0.7527 H       1  UNL1        0.1225
     42 H           1.5946   -0.4974    4.1096 H       1  UNL1        0.1424
     43 H           1.3984    1.2218    4.4318 H       1  UNL1        0.1424
     44 H           4.9407   -0.3680   -0.8771 H       1  UNL1        0.0819
     45 H           2.1434   -1.4717   -2.4377 H       1  UNL1        0.0528
     46 H           2.4290    1.6943   -2.4710 H       1  UNL1        0.0286
     47 H           1.7054    0.7330   -3.8574 H       1  UNL1        0.0286
     48 H           4.6055    0.3795   -2.7070 H       1  UNL1        0.0286
     49 H           3.8071   -0.5740   -4.0459 H       1  UNL1        0.0286
     50 H           6.9963    0.1298    3.3063 H       1  UNL1        0.2954
@<TRIPOS>BOND
     1     1     2    1
     2     2     3    1
     3     3     4    1
     4     4     5    1
     5     5     6    1
     6     6     7    1
     7     6     8    1
     8     4     9    1
     9     9    10   ar
    10    10    11    1
    11    10    12   ar
    12    12    13    1
    13    12    14   ar
    14    14    15   ar
    15    15    16    2
    16    15    17   ar
    17    17    18   ar
    18    18    19   ar
    19    19    20    1
    20    20    21    1
    21    21    22    1
    22    19    23   ar
    23    23    24   ar
    24    24    25    1
    25    17    26    1
    26    26    27    1
    27    26    28    2
    28     8     2    1
    29    24     9   ar
    30    23    14   ar
    31    22    20    1
    32     1    29    1
    33     1    30    1
    34     1    31    1
    35     2    32    1
    36     3    33    1
    37     3    34    1
    38     5    35    1
    39     5    36    1
    40     6    37    1
    41     7    38    1
    42     7    39    1
    43     7    40    1
    44     8    41    1
    45    13    42    1
    46    13    43    1
    47    18    44    1
    48    20    45    1
    49    21    46    1
    50    21    47    1
    51    22    48    1
    52    22    49    1
    53    27    50    1
