
     RDKit          3D

 43 46  0  0  0  0  0  0  0  0999 V2000
    8.6097    3.1268   -1.2501 N   0  0  0  0  0  0  0  0  0  0  0  0
    7.6988    2.4627   -0.9887 C   0  0  0  0  0  0  0  0  0  0  0  0
    6.5678    1.6139   -0.6667 C   0  0  0  0  0  0  0  0  0  0  0  0
    6.7422    0.3124   -0.2461 C   0  0  0  0  0  0  0  0  0  0  0  0
    5.6481   -0.4730    0.0537 C   0  0  0  0  0  0  0  0  0  0  0  0
    4.3733    0.0306   -0.0628 C   0  0  0  0  0  0  0  0  0  0  0  0
    3.2065   -0.8212    0.2616 C   0  0  0  0  0  0  0  0  0  0  0  0
    3.4073   -1.9928    0.6385 O   0  0  0  0  0  0  0  0  0  0  0  0
    1.8997   -0.3360    0.1523 N   0  0  0  0  0  0  0  0  0  0  0  0
    0.6966   -1.0150    0.4212 C   0  0  0  0  0  0  0  0  0  0  0  0
    0.6689   -2.3107    0.8466 C   0  0  0  0  0  0  0  0  0  0  0  0
   -0.5739   -2.9079    1.0898 C   0  0  0  0  0  0  0  0  0  0  0  0
   -0.5787   -4.2064    1.5152 F   0  0  0  0  0  0  0  0  0  0  0  0
   -1.7533   -2.2122    0.9073 C   0  0  0  0  0  0  0  0  0  0  0  0
   -2.8873   -2.9073    1.1464 F   0  0  0  0  0  0  0  0  0  0  0  0
   -1.7504   -0.9088    0.4815 C   0  0  0  0  0  0  0  0  0  0  0  0
   -2.9864   -0.1212    0.3038 C   0  0  1  0  0  0  0  0  0  0  0  0
   -3.6004    0.1170    1.6636 C   0  0  0  0  0  0  0  0  0  0  0  0
   -2.6349    0.8190    2.4001 F   0  0  0  0  0  0  0  0  0  0  0  0
   -3.8582   -1.0354    2.3188 F   0  0  0  0  0  0  0  0  0  0  0  0
   -2.6293    1.2283   -0.2056 N   0  0  0  0  0  0  0  0  0  0  0  0
   -3.6180    1.9205   -0.6546 C   0  0  0  0  0  0  0  0  0  0  0  0
   -3.3248    3.2236   -1.1541 N   0  0  0  0  0  0  0  0  0  0  0  0
   -4.8748    1.3536   -0.6185 O   0  0  0  0  0  0  0  0  0  0  0  0
   -5.0642    0.0475   -1.1102 C   0  0  2  0  0  0  0  0  0  0  0  0
   -5.2523   -1.1207   -0.2638 C   0  0  0  0  0  0  0  0  0  0  0  0
   -3.8763   -0.7670   -0.6886 C   0  0  2  0  0  0  0  0  0  0  0  0
   -0.5253   -0.3397    0.2475 C   0  0  0  0  0  0  0  0  0  0  0  0
    4.2165    1.2953   -0.4719 N   0  0  0  0  0  0  0  0  0  0  0  0
    5.2828    2.0879   -0.7730 C   0  0  0  0  0  0  0  0  0  0  0  0
    7.7612   -0.0768   -0.1574 H   0  0  0  0  0  0  0  0  0  0  0  0
    5.8021   -1.4951    0.3833 H   0  0  0  0  0  0  0  0  0  0  0  0
    1.8281    0.6773   -0.1776 H   0  0  0  0  0  0  0  0  0  0  0  0
    1.5675   -2.9285    1.0144 H   0  0  0  0  0  0  0  0  0  0  0  0
   -4.4620    0.8152    1.6174 H   0  0  0  0  0  0  0  0  0  0  0  0
   -2.4208    3.4060   -1.6542 H   0  0  0  0  0  0  0  0  0  0  0  0
   -3.9711    4.0230   -1.0486 H   0  0  0  0  0  0  0  0  0  0  0  0
   -5.3901    0.0211   -2.1828 H   0  0  0  0  0  0  0  0  0  0  0  0
   -5.5545   -1.0893    0.7879 H   0  0  0  0  0  0  0  0  0  0  0  0
   -5.6813   -2.0240   -0.7899 H   0  0  0  0  0  0  0  0  0  0  0  0
   -3.3839   -1.3038   -1.5247 H   0  0  0  0  0  0  0  0  0  0  0  0
   -0.4815    0.7032   -0.0957 H   0  0  0  0  0  0  0  0  0  0  0  0
    5.1566    3.1079   -1.1030 H   0  0  0  0  0  0  0  0  0  0  0  0
  1  2  3  0
  2  3  1  0
  3  4  2  0
  4  5  1  0
  5  6  2  0
  6  7  1  0
  7  8  2  0
  7  9  1  0
  9 10  1  0
 10 11  2  0
 11 12  1  0
 12 13  1  0
 12 14  2  0
 14 15  1  0
 14 16  1  0
 16 17  1  0
 17 18  1  1
 18 19  1  0
 18 20  1  0
 17 21  1  0
 21 22  2  0
 22 23  1  0
 22 24  1  0
 24 25  1  0
 25 26  1  0
 26 27  1  0
 16 28  2  0
  6 29  1  0
 29 30  2  0
 30  3  1  0
 28 10  1  0
 27 17  1  0
 27 25  1  0
  4 31  1  0
  5 32  1  0
  9 33  1  0
 11 34  1  0
 18 35  1  0
 23 36  1  0
 23 37  1  0
 25 38  1  6
 26 39  1  0
 26 40  1  0
 27 41  1  6
 28 42  1  0
 30 43  1  0
M  END
$$$$
