@<TRIPOS>MOLECULE
*****
 43 46 0 0 0
SMALL
GASTEIGER

@<TRIPOS>ATOM
      1 N           8.6097    3.1268   -1.2501 N.1     1  UNL1       -0.1908
      2 C           7.6988    2.4627   -0.9887 C.1     1  UNL1        0.1007
      3 C           6.5678    1.6139   -0.6667 C.ar    1  UNL1        0.0699
      4 C           6.7422    0.3124   -0.2461 C.ar    1  UNL1       -0.0407
      5 C           5.6481   -0.4730    0.0537 C.ar    1  UNL1       -0.0300
      6 C           4.3733    0.0306   -0.0628 C.ar    1  UNL1        0.1257
      7 C           3.2065   -0.8212    0.2616 C.2     1  UNL1        0.2666
      8 O           3.4073   -1.9928    0.6385 O.2     1  UNL1       -0.2682
      9 N           1.8997   -0.3360    0.1523 N.am    1  UNL1       -0.2802
     10 C           0.6966   -1.0150    0.4212 C.ar    1  UNL1        0.0369
     11 C           0.6689   -2.3107    0.8466 C.ar    1  UNL1       -0.0023
     12 C          -0.5739   -2.9079    1.0898 C.ar    1  UNL1        0.1605
     13 F          -0.5787   -4.2064    1.5152 F       1  UNL1       -0.2024
     14 C          -1.7533   -2.2122    0.9073 C.ar    1  UNL1        0.1642
     15 F          -2.8873   -2.9073    1.1464 F       1  UNL1       -0.2021
     16 C          -1.7504   -0.9088    0.4815 C.ar    1  UNL1        0.0256
     17 C          -2.9864   -0.1212    0.3038 C.3     1  UNL1        0.1604
     18 C          -3.6004    0.1170    1.6636 C.3     1  UNL1        0.2686
     19 F          -2.6349    0.8190    2.4001 F       1  UNL1       -0.2062
     20 F          -3.8582   -1.0354    2.3188 F       1  UNL1       -0.2062
     21 N          -2.6293    1.2283   -0.2056 N.2     1  UNL1       -0.2194
     22 C          -3.6180    1.9205   -0.6546 C.2     1  UNL1        0.2764
     23 N          -3.3248    3.2236   -1.1541 N.pl3   1  UNL1       -0.3134
     24 O          -4.8748    1.3536   -0.6185 O.2     1  UNL1       -0.4622
     25 C          -5.0642    0.0475   -1.1102 C.3     1  UNL1        0.1091
     26 C          -5.2523   -1.1207   -0.2638 C.3     1  UNL1       -0.0064
     27 C          -3.8763   -0.7670   -0.6886 C.3     1  UNL1        0.0344
     28 C          -0.5253   -0.3397    0.2475 C.ar    1  UNL1       -0.0319
     29 N           4.2165    1.2953   -0.4719 N.ar    1  UNL1       -0.2491
     30 C           5.2828    2.0879   -0.7730 C.ar    1  UNL1        0.0458
     31 H           7.7612   -0.0768   -0.1574 H       1  UNL1        0.0631
     32 H           5.8021   -1.4951    0.3833 H       1  UNL1        0.0641
     33 H           1.8281    0.6773   -0.1776 H       1  UNL1        0.1552
     34 H           1.5675   -2.9285    1.0144 H       1  UNL1        0.0666
     35 H          -4.4620    0.8152    1.6174 H       1  UNL1        0.1047
     36 H          -2.4208    3.4060   -1.6542 H       1  UNL1        0.1466
     37 H          -3.9711    4.0230   -1.0486 H       1  UNL1        0.1466
     38 H          -5.3901    0.0211   -2.1828 H       1  UNL1        0.0737
     39 H          -5.5545   -1.0893    0.7879 H       1  UNL1        0.0306
     40 H          -5.6813   -2.0240   -0.7899 H       1  UNL1        0.0306
     41 H          -3.3839   -1.3038   -1.5247 H       1  UNL1        0.0366
     42 H          -0.4815    0.7032   -0.0957 H       1  UNL1        0.0640
     43 H           5.1566    3.1079   -1.1030 H       1  UNL1        0.0843
@<TRIPOS>BOND
     1     1     2    3
     2     2     3    1
     3     3     4   ar
     4     4     5   ar
     5     5     6   ar
     6     6     7    1
     7     7     8    2
     8     7     9   am
     9     9    10    1
    10    10    11   ar
    11    11    12   ar
    12    12    13    1
    13    12    14   ar
    14    14    15    1
    15    14    16   ar
    16    16    17    1
    17    17    18    1
    18    18    19    1
    19    18    20    1
    20    17    21    1
    21    21    22    2
    22    22    23    1
    23    22    24    1
    24    24    25    1
    25    25    26    1
    26    26    27    1
    27    16    28   ar
    28     6    29   ar
    29    29    30   ar
    30    30     3   ar
    31    28    10   ar
    32    27    17    1
    33    27    25    1
    34     4    31    1
    35     5    32    1
    36     9    33    1
    37    11    34    1
    38    18    35    1
    39    23    36    1
    40    23    37    1
    41    25    38    1
    42    26    39    1
    43    26    40    1
    44    27    41    1
    45    28    42    1
    46    30    43    1
