
     RDKit          3D

 21 22  0  0  0  0  0  0  0  0999 V2000
   -3.4700    0.2331   -0.6270 C   0  0  0  0  0  0  0  0  0  0  0  0
   -1.9986    0.4862   -0.4185 C   0  0  0  0  0  0  0  0  0  0  0  0
   -1.6287    1.7190   -0.3633 N   0  0  0  0  0  0  0  0  0  0  0  0
    0.0384    2.0511   -0.1270 S   0  0  0  0  0  0  0  0  0  0  0  0
    0.2858    2.9301    1.0741 O   0  0  0  0  0  0  0  0  0  0  0  0
    0.5397    2.8216   -1.3355 O   0  0  0  0  0  0  0  0  0  0  0  0
    0.8796    0.5288   -0.0118 C   0  0  0  0  0  0  0  0  0  0  0  0
    0.2144   -0.6755   -0.1088 C   0  0  0  0  0  0  0  0  0  0  0  0
   -1.1943   -0.6679   -0.3077 N   0  0  0  0  0  0  0  0  0  0  0  0
    0.9582   -1.8347   -0.0065 C   0  0  0  0  0  0  0  0  0  0  0  0
    2.3246   -1.7748    0.1867 C   0  0  0  0  0  0  0  0  0  0  0  0
    3.0034   -0.5668    0.2855 C   0  0  0  0  0  0  0  0  0  0  0  0
    4.7362   -0.6040    0.5303 Cl  0  0  0  0  0  0  0  0  0  0  0  0
    2.2299    0.5954    0.1791 C   0  0  0  0  0  0  0  0  0  0  0  0
   -4.0170    1.1587   -0.8459 H   0  0  0  0  0  0  0  0  0  0  0  0
   -3.5936   -0.5268   -1.4280 H   0  0  0  0  0  0  0  0  0  0  0  0
   -3.8155   -0.2364    0.3130 H   0  0  0  0  0  0  0  0  0  0  0  0
   -1.5991   -1.6283   -0.3673 H   0  0  0  0  0  0  0  0  0  0  0  0
    0.4518   -2.8002   -0.0804 H   0  0  0  0  0  0  0  0  0  0  0  0
    2.8368   -2.7221    0.2567 H   0  0  0  0  0  0  0  0  0  0  0  0
    2.8179    1.5137    0.2644 H   0  0  0  0  0  0  0  0  0  0  0  0
  1  2  1  0
  2  3  2  0
  3  4  1  0
  4  5  2  0
  4  6  2  0
  4  7  1  0
  7  8  2  0
  8  9  1  0
  8 10  1  0
 10 11  2  0
 11 12  1  0
 12 13  1  0
 12 14  2  0
  9  2  1  0
 14  7  1  0
  1 15  1  0
  1 16  1  0
  1 17  1  0
  9 18  1  0
 10 19  1  0
 11 20  1  0
 14 21  1  0
M  END
$$$$
