@<TRIPOS>MOLECULE
*****
 39 40 0 0 0
SMALL
GASTEIGER

@<TRIPOS>ATOM
      1 C           0.6989   -2.9778   -2.0560 C.3     1  UNL1       -0.0155
      2 N           1.1139   -2.0546   -1.0503 N.3     1  UNL1       -0.3149
      3 C           0.9727   -0.6488   -1.4772 C.3     1  UNL1        0.0245
      4 C           1.4437    0.1371   -0.3159 C.ar    1  UNL1        0.0093
      5 C           2.7439    0.6368   -0.3858 C.ar    1  UNL1       -0.0417
      6 C           3.2395    1.2998    0.7039 C.ar    1  UNL1        0.0370
      7 C           4.6169    1.8237    0.6166 C.2     1  UNL1        0.2415
      8 N           5.1221    2.5141    1.7619 N.am    1  UNL1       -0.3253
      9 O           5.2994    1.6620   -0.4224 O.2     1  UNL1       -0.2704
     10 C           2.4925    1.4786    1.8449 C.ar    1  UNL1       -0.0462
     11 C           1.2278    0.9724    1.8616 C.ar    1  UNL1       -0.0183
     12 C           0.6600    0.2837    0.7766 C.ar    1  UNL1        0.1330
     13 O          -0.6053   -0.1873    0.8832 O.3     1  UNL1       -0.4520
     14 C          -1.6966    0.2840    0.2165 C.ar    1  UNL1        0.1699
     15 C          -1.6851    1.3895   -0.6124 C.ar    1  UNL1       -0.0143
     16 C          -2.7933    1.8461   -1.2729 C.ar    1  UNL1       -0.0397
     17 C          -3.9702    1.1800   -1.1081 C.ar    1  UNL1        0.0447
     18 CL         -5.3827    1.7635   -1.9511 Cl      1  UNL1       -0.0834
     19 C          -4.0070    0.0654   -0.2798 C.ar    1  UNL1        0.0020
     20 C          -2.9051   -0.4081    0.3917 C.ar    1  UNL1        0.1635
     21 O          -2.9160   -1.5034    1.2128 O.3     1  UNL1       -0.4914
     22 C          -4.0103   -2.3101    1.5060 C.3     1  UNL1        0.0790
     23 H           1.6015   -3.3427   -2.5994 H       1  UNL1        0.0388
     24 H           0.0002   -2.5419   -2.7975 H       1  UNL1        0.0388
     25 H           0.2424   -3.8563   -1.5530 H       1  UNL1        0.0388
     26 H           0.6717   -2.1844   -0.1255 H       1  UNL1        0.1219
     27 H          -0.0347   -0.4033   -1.7353 H       1  UNL1        0.0475
     28 H           1.6150   -0.4860   -2.3742 H       1  UNL1        0.0475
     29 H           3.3595    0.5087   -1.2804 H       1  UNL1        0.0629
     30 H           5.5804    3.4424    1.6423 H       1  UNL1        0.1453
     31 H           5.0029    2.0429    2.6769 H       1  UNL1        0.1453
     32 H           2.9421    2.0106    2.6724 H       1  UNL1        0.0626
     33 H           0.6140    1.0949    2.7411 H       1  UNL1        0.0654
     34 H          -0.7127    1.9026   -0.7205 H       1  UNL1        0.0656
     35 H          -2.6808    2.7285   -1.9046 H       1  UNL1        0.0633
     36 H          -4.9494   -0.4473   -0.1632 H       1  UNL1        0.0670
     37 H          -3.6524   -3.3814    1.4685 H       1  UNL1        0.0660
     38 H          -4.8194   -2.2749    0.7279 H       1  UNL1        0.0660
     39 H          -4.4396   -2.0590    2.4806 H       1  UNL1        0.0660
@<TRIPOS>BOND
     1     1     2    1
     2     2     3    1
     3     3     4    1
     4     4     5   ar
     5     5     6   ar
     6     6     7    1
     7     7     8   am
     8     7     9    2
     9     6    10   ar
    10    10    11   ar
    11    11    12   ar
    12    12    13    1
    13    13    14    1
    14    14    15   ar
    15    15    16   ar
    16    16    17   ar
    17    17    18    1
    18    17    19   ar
    19    19    20   ar
    20    20    21    1
    21    21    22    1
    22    12     4   ar
    23    20    14   ar
    24     1    23    1
    25     1    24    1
    26     1    25    1
    27     2    26    1
    28     3    27    1
    29     3    28    1
    30     5    29    1
    31     8    30    1
    32     8    31    1
    33    10    32    1
    34    11    33    1
    35    15    34    1
    36    16    35    1
    37    19    36    1
    38    22    37    1
    39    22    38    1
    40    22    39    1
