
     RDKit          3D

 39 40  0  0  0  0  0  0  0  0999 V2000
    0.6989   -2.9778   -2.0560 C   0  0  0  0  0  0  0  0  0  0  0  0
    1.1139   -2.0546   -1.0503 N   0  0  0  0  0  0  0  0  0  0  0  0
    0.9727   -0.6488   -1.4772 C   0  0  0  0  0  0  0  0  0  0  0  0
    1.4437    0.1371   -0.3159 C   0  0  0  0  0  0  0  0  0  0  0  0
    2.7439    0.6368   -0.3858 C   0  0  0  0  0  0  0  0  0  0  0  0
    3.2395    1.2998    0.7039 C   0  0  0  0  0  0  0  0  0  0  0  0
    4.6169    1.8237    0.6166 C   0  0  0  0  0  0  0  0  0  0  0  0
    5.1221    2.5141    1.7619 N   0  0  0  0  0  0  0  0  0  0  0  0
    5.2994    1.6620   -0.4224 O   0  0  0  0  0  0  0  0  0  0  0  0
    2.4925    1.4786    1.8449 C   0  0  0  0  0  0  0  0  0  0  0  0
    1.2278    0.9724    1.8616 C   0  0  0  0  0  0  0  0  0  0  0  0
    0.6600    0.2837    0.7766 C   0  0  0  0  0  0  0  0  0  0  0  0
   -0.6053   -0.1873    0.8832 O   0  0  0  0  0  0  0  0  0  0  0  0
   -1.6966    0.2840    0.2165 C   0  0  0  0  0  0  0  0  0  0  0  0
   -1.6851    1.3895   -0.6124 C   0  0  0  0  0  0  0  0  0  0  0  0
   -2.7933    1.8461   -1.2729 C   0  0  0  0  0  0  0  0  0  0  0  0
   -3.9702    1.1800   -1.1081 C   0  0  0  0  0  0  0  0  0  0  0  0
   -5.3827    1.7635   -1.9511 Cl  0  0  0  0  0  0  0  0  0  0  0  0
   -4.0070    0.0654   -0.2798 C   0  0  0  0  0  0  0  0  0  0  0  0
   -2.9051   -0.4081    0.3917 C   0  0  0  0  0  0  0  0  0  0  0  0
   -2.9160   -1.5034    1.2128 O   0  0  0  0  0  0  0  0  0  0  0  0
   -4.0103   -2.3101    1.5060 C   0  0  0  0  0  0  0  0  0  0  0  0
    1.6015   -3.3427   -2.5994 H   0  0  0  0  0  0  0  0  0  0  0  0
    0.0002   -2.5419   -2.7975 H   0  0  0  0  0  0  0  0  0  0  0  0
    0.2424   -3.8563   -1.5530 H   0  0  0  0  0  0  0  0  0  0  0  0
    0.6717   -2.1844   -0.1255 H   0  0  0  0  0  0  0  0  0  0  0  0
   -0.0347   -0.4033   -1.7353 H   0  0  0  0  0  0  0  0  0  0  0  0
    1.6150   -0.4860   -2.3742 H   0  0  0  0  0  0  0  0  0  0  0  0
    3.3595    0.5087   -1.2804 H   0  0  0  0  0  0  0  0  0  0  0  0
    5.5804    3.4424    1.6423 H   0  0  0  0  0  0  0  0  0  0  0  0
    5.0029    2.0429    2.6769 H   0  0  0  0  0  0  0  0  0  0  0  0
    2.9421    2.0106    2.6724 H   0  0  0  0  0  0  0  0  0  0  0  0
    0.6140    1.0949    2.7411 H   0  0  0  0  0  0  0  0  0  0  0  0
   -0.7127    1.9026   -0.7205 H   0  0  0  0  0  0  0  0  0  0  0  0
   -2.6808    2.7285   -1.9046 H   0  0  0  0  0  0  0  0  0  0  0  0
   -4.9494   -0.4473   -0.1632 H   0  0  0  0  0  0  0  0  0  0  0  0
   -3.6524   -3.3814    1.4685 H   0  0  0  0  0  0  0  0  0  0  0  0
   -4.8194   -2.2749    0.7279 H   0  0  0  0  0  0  0  0  0  0  0  0
   -4.4396   -2.0590    2.4806 H   0  0  0  0  0  0  0  0  0  0  0  0
  1  2  1  0
  2  3  1  0
  3  4  1  0
  4  5  2  0
  5  6  1  0
  6  7  1  0
  7  8  1  0
  7  9  2  0
  6 10  2  0
 10 11  1  0
 11 12  2  0
 12 13  1  0
 13 14  1  0
 14 15  2  0
 15 16  1  0
 16 17  2  0
 17 18  1  0
 17 19  1  0
 19 20  2  0
 20 21  1  0
 21 22  1  0
 12  4  1  0
 20 14  1  0
  1 23  1  0
  1 24  1  0
  1 25  1  0
  2 26  1  0
  3 27  1  0
  3 28  1  0
  5 29  1  0
  8 30  1  0
  8 31  1  0
 10 32  1  0
 11 33  1  0
 15 34  1  0
 16 35  1  0
 19 36  1  0
 22 37  1  0
 22 38  1  0
 22 39  1  0
M  END
$$$$
