@<TRIPOS>MOLECULE
*****
 62 61 0 0 0
SMALL
GASTEIGER

@<TRIPOS>ATOM
      1 C          -9.4997    0.2190   -1.6506 C.3     1  UNL1       -0.0653
      2 C          -8.8881   -1.1540   -1.5056 C.3     1  UNL1       -0.0559
      3 C          -7.5417   -1.0947   -0.8107 C.3     1  UNL1       -0.0533
      4 C          -7.6369   -0.5155    0.5621 C.3     1  UNL1       -0.0531
      5 C          -6.2453   -0.4963    1.1877 C.3     1  UNL1       -0.0530
      6 C          -5.2544    0.3117    0.4348 C.3     1  UNL1       -0.0510
      7 C          -3.8873    0.3017    1.1516 C.3     1  UNL1       -0.0295
      8 C          -3.3093   -1.0581    1.2938 C.3     1  UNL1        0.0478
      9 O          -2.1333   -1.2157    1.8812 O.3     1  UNL1       -0.3775
     10 C          -0.9650   -0.8703    1.3842 C.3     1  UNL1        0.0710
     11 C          -0.7379    0.5321    0.9881 C.3     1  UNL1        0.0711
     12 O           0.5795    0.7520    0.5157 O.3     1  UNL1       -0.3752
     13 C           0.9039    0.0015   -0.5846 C.3     1  UNL1        0.0711
     14 C           2.3574    0.4034   -0.9344 C.3     1  UNL1        0.0711
     15 O           3.0949    0.0930    0.1631 O.3     1  UNL1       -0.3752
     16 C           4.4658    0.3399    0.0950 C.3     1  UNL1        0.0711
     17 C           4.7308    1.7808   -0.1166 C.3     1  UNL1        0.0711
     18 O           5.9336    2.2910   -0.2024 O.3     1  UNL1       -0.3752
     19 C           6.9362    2.1491   -1.0222 C.3     1  UNL1        0.0711
     20 C           7.5342    0.7654   -1.1034 C.3     1  UNL1        0.0711
     21 O           7.9824    0.3846    0.1379 O.3     1  UNL1       -0.3752
     22 C           8.5463   -0.8584    0.2290 C.3     1  UNL1        0.0708
     23 C           9.7592   -0.9885   -0.6657 C.3     1  UNL1        0.0676
     24 O          10.7306   -0.0437   -0.3063 O.3     1  UNL1       -0.3927
     25 H         -10.3622    0.3100   -0.9882 H       1  UNL1        0.0230
     26 H          -9.8418    0.4080   -2.6976 H       1  UNL1        0.0230
     27 H          -8.7408    1.0304   -1.4624 H       1  UNL1        0.0230
     28 H          -9.5410   -1.8758   -1.0062 H       1  UNL1        0.0263
     29 H          -8.6883   -1.5271   -2.5366 H       1  UNL1        0.0263
     30 H          -7.2152   -2.1525   -0.7022 H       1  UNL1        0.0265
     31 H          -6.8183   -0.5982   -1.4581 H       1  UNL1        0.0265
     32 H          -8.2425   -1.1487    1.2422 H       1  UNL1        0.0265
     33 H          -8.0830    0.4966    0.5851 H       1  UNL1        0.0265
     34 H          -6.2604   -0.2261    2.2569 H       1  UNL1        0.0265
     35 H          -5.8874   -1.5693    1.1470 H       1  UNL1        0.0265
     36 H          -5.5247    1.3817    0.3357 H       1  UNL1        0.0266
     37 H          -5.0671   -0.0896   -0.5868 H       1  UNL1        0.0266
     38 H          -3.3159    1.0697    0.6387 H       1  UNL1        0.0287
     39 H          -4.0750    0.7089    2.1929 H       1  UNL1        0.0287
     40 H          -3.3913   -1.5830    0.2848 H       1  UNL1        0.0560
     41 H          -4.0747   -1.6894    1.8957 H       1  UNL1        0.0560
     42 H          -0.8071   -1.5299    0.4373 H       1  UNL1        0.0583
     43 H          -0.0907   -1.1624    2.0696 H       1  UNL1        0.0583
     44 H          -1.3195    0.7505    0.0290 H       1  UNL1        0.0583
     45 H          -0.9207    1.2422    1.7880 H       1  UNL1        0.0583
     46 H           0.2328    0.1464   -1.4451 H       1  UNL1        0.0583
     47 H           0.9897   -1.1051   -0.3697 H       1  UNL1        0.0583
     48 H           2.6161   -0.1953   -1.8415 H       1  UNL1        0.0583
     49 H           2.3079    1.4430   -1.2509 H       1  UNL1        0.0583
     50 H           4.8781   -0.3747   -0.6102 H       1  UNL1        0.0583
     51 H           4.8473    0.0639    1.1210 H       1  UNL1        0.0583
     52 H           4.1000    2.1957   -0.9744 H       1  UNL1        0.0583
     53 H           4.2046    2.3005    0.7695 H       1  UNL1        0.0583
     54 H           6.7785    2.5607   -2.0700 H       1  UNL1        0.0583
     55 H           7.7962    2.8335   -0.6747 H       1  UNL1        0.0583
     56 H           8.3959    0.7907   -1.8487 H       1  UNL1        0.0583
     57 H           6.8621    0.0115   -1.5105 H       1  UNL1        0.0583
     58 H           8.9132   -0.9826    1.2873 H       1  UNL1        0.0583
     59 H           7.8299   -1.6777    0.0507 H       1  UNL1        0.0583
     60 H           9.4746   -0.9107   -1.7342 H       1  UNL1        0.0580
     61 H          10.2528   -1.9752   -0.4841 H       1  UNL1        0.0580
     62 H          10.3319    0.5991    0.3199 H       1  UNL1        0.2095
@<TRIPOS>BOND
     1     1     2    1
     2     2     3    1
     3     3     4    1
     4     4     5    1
     5     5     6    1
     6     6     7    1
     7     7     8    1
     8     8     9    1
     9     9    10    1
    10    10    11    1
    11    11    12    1
    12    12    13    1
    13    13    14    1
    14    14    15    1
    15    15    16    1
    16    16    17    1
    17    17    18    1
    18    18    19    1
    19    19    20    1
    20    20    21    1
    21    21    22    1
    22    22    23    1
    23    23    24    1
    24     1    25    1
    25     1    26    1
    26     1    27    1
    27     2    28    1
    28     2    29    1
    29     3    30    1
    30     3    31    1
    31     4    32    1
    32     4    33    1
    33     5    34    1
    34     5    35    1
    35     6    36    1
    36     6    37    1
    37     7    38    1
    38     7    39    1
    39     8    40    1
    40     8    41    1
    41    10    42    1
    42    10    43    1
    43    11    44    1
    44    11    45    1
    45    13    46    1
    46    13    47    1
    47    14    48    1
    48    14    49    1
    49    16    50    1
    50    16    51    1
    51    17    52    1
    52    17    53    1
    53    19    54    1
    54    19    55    1
    55    20    56    1
    56    20    57    1
    57    22    58    1
    58    22    59    1
    59    23    60    1
    60    23    61    1
    61    24    62    1
