@<TRIPOS>MOLECULE
*****
 53 55 0 0 0
SMALL
GASTEIGER

@<TRIPOS>ATOM
      1 C           4.8209    1.8920   -0.6963 C.3     1  UNL1       -0.0121
      2 N           4.5327    0.6320   -0.1466 N.3     1  UNL1       -0.2923
      3 C           3.4487   -0.1163   -0.6405 C.3     1  UNL1        0.0334
      4 C           2.1497    0.5690   -0.2745 C.3     1  UNL1        0.1023
      5 O           1.0411   -0.1628   -0.7582 O.3     1  UNL1       -0.4904
      6 C          -0.2522    0.2973   -0.5501 C.ar    1  UNL1        0.1241
      7 C          -0.4048    1.5028    0.1440 C.ar    1  UNL1       -0.0191
      8 C          -1.6751    1.9756    0.3558 C.ar    1  UNL1       -0.0506
      9 C          -2.8008    1.2816   -0.1042 C.ar    1  UNL1       -0.0174
     10 C          -4.1185    1.8324    0.1453 C.ar    1  UNL1       -0.0179
     11 C          -5.2051    1.0302    0.3166 C.ar    1  UNL1       -0.0540
     12 C          -6.4517    1.5760    0.5557 C.ar    1  UNL1       -0.0612
     13 C          -6.6365    2.9392    0.6296 C.ar    1  UNL1       -0.0617
     14 C          -5.5331    3.7465    0.4557 C.ar    1  UNL1       -0.0612
     15 C          -4.2928    3.1991    0.2169 C.ar    1  UNL1       -0.0540
     16 C          -2.6272    0.0993   -0.7822 C.ar    1  UNL1       -0.0471
     17 C          -1.3359   -0.3786   -0.9956 C.ar    1  UNL1       -0.0008
     18 C          -1.1951   -1.6660   -1.7157 C.3     1  UNL1        0.0011
     19 C          -0.8922   -2.7269   -0.7009 C.ar    1  UNL1       -0.0429
     20 C          -1.9513   -3.2208    0.0570 C.ar    1  UNL1       -0.0583
     21 C          -1.7702   -4.2034    1.0140 C.ar    1  UNL1       -0.0615
     22 C          -0.4948   -4.6754    1.1883 C.ar    1  UNL1       -0.0617
     23 C           0.5735   -4.2078    0.4549 C.ar    1  UNL1       -0.0615
     24 C           0.3715   -3.2191   -0.5036 C.ar    1  UNL1       -0.0583
     25 C           5.1890    0.2213    1.0298 C.3     1  UNL1        0.0966
     26 C           6.6552   -0.0290    0.8266 C.2     1  UNL1        0.3189
     27 O           7.4273   -0.3987    1.7234 O.2     1  UNL1       -0.2496
     28 O           7.1447    0.1747   -0.4512 O.3     1  UNL1       -0.4797
     29 H           3.9295    2.4512   -0.9661 H       1  UNL1        0.0391
     30 H           5.5863    1.8735   -1.5093 H       1  UNL1        0.0391
     31 H           5.3180    2.5006    0.1211 H       1  UNL1        0.0391
     32 H           3.4416   -0.2355   -1.7532 H       1  UNL1        0.0460
     33 H           3.3957   -1.1598   -0.2277 H       1  UNL1        0.0460
     34 H           2.0953    0.7007    0.8456 H       1  UNL1        0.0709
     35 H           2.1289    1.5643   -0.7671 H       1  UNL1        0.0709
     36 H           0.4862    2.0051    0.4784 H       1  UNL1        0.0654
     37 H          -1.7830    2.9108    0.8953 H       1  UNL1        0.0625
     38 H          -5.1243   -0.0493    0.2738 H       1  UNL1        0.0624
     39 H          -7.3395    0.9575    0.6946 H       1  UNL1        0.0618
     40 H          -7.6058    3.4016    0.8138 H       1  UNL1        0.0618
     41 H          -5.6454    4.8149    0.5045 H       1  UNL1        0.0618
     42 H          -3.4369    3.8687    0.0796 H       1  UNL1        0.0624
     43 H          -3.5150   -0.4186   -1.1250 H       1  UNL1        0.0628
     44 H          -0.3363   -1.6455   -2.4456 H       1  UNL1        0.0363
     45 H          -2.1223   -1.9629   -2.2143 H       1  UNL1        0.0363
     46 H          -2.9288   -2.8326   -0.1087 H       1  UNL1        0.0620
     47 H          -2.6201   -4.5515    1.5728 H       1  UNL1        0.0618
     48 H          -0.3275   -5.4437    1.9309 H       1  UNL1        0.0618
     49 H           1.5679   -4.5979    0.6054 H       1  UNL1        0.0618
     50 H           1.1996   -2.8400   -1.0955 H       1  UNL1        0.0620
     51 H           4.6923   -0.6631    1.4718 H       1  UNL1        0.0541
     52 H           5.1137    1.0293    1.7956 H       1  UNL1        0.0541
     53 H           8.1132    0.3579   -0.6651 H       1  UNL1        0.2951
@<TRIPOS>BOND
     1     1     2    1
     2     2     3    1
     3     3     4    1
     4     4     5    1
     5     5     6    1
     6     6     7   ar
     7     7     8   ar
     8     8     9   ar
     9     9    10    1
    10    10    11   ar
    11    11    12   ar
    12    12    13   ar
    13    13    14   ar
    14    14    15   ar
    15     9    16   ar
    16    16    17   ar
    17    17    18    1
    18    18    19    1
    19    19    20   ar
    20    20    21   ar
    21    21    22   ar
    22    22    23   ar
    23    23    24   ar
    24     2    25    1
    25    25    26    1
    26    26    27    2
    27    26    28    1
    28    17     6   ar
    29    24    19   ar
    30    15    10   ar
    31     1    29    1
    32     1    30    1
    33     1    31    1
    34     3    32    1
    35     3    33    1
    36     4    34    1
    37     4    35    1
    38     7    36    1
    39     8    37    1
    40    11    38    1
    41    12    39    1
    42    13    40    1
    43    14    41    1
    44    15    42    1
    45    16    43    1
    46    18    44    1
    47    18    45    1
    48    20    46    1
    49    21    47    1
    50    22    48    1
    51    23    49    1
    52    24    50    1
    53    25    51    1
    54    25    52    1
    55    28    53    1
