
     RDKit          3D

 53 55  0  0  0  0  0  0  0  0999 V2000
    4.8209    1.8920   -0.6963 C   0  0  0  0  0  0  0  0  0  0  0  0
    4.5327    0.6320   -0.1466 N   0  0  0  0  0  0  0  0  0  0  0  0
    3.4487   -0.1163   -0.6405 C   0  0  0  0  0  0  0  0  0  0  0  0
    2.1497    0.5690   -0.2745 C   0  0  0  0  0  0  0  0  0  0  0  0
    1.0411   -0.1628   -0.7582 O   0  0  0  0  0  0  0  0  0  0  0  0
   -0.2522    0.2973   -0.5501 C   0  0  0  0  0  0  0  0  0  0  0  0
   -0.4048    1.5028    0.1440 C   0  0  0  0  0  0  0  0  0  0  0  0
   -1.6751    1.9756    0.3558 C   0  0  0  0  0  0  0  0  0  0  0  0
   -2.8008    1.2816   -0.1042 C   0  0  0  0  0  0  0  0  0  0  0  0
   -4.1185    1.8324    0.1453 C   0  0  0  0  0  0  0  0  0  0  0  0
   -5.2051    1.0302    0.3166 C   0  0  0  0  0  0  0  0  0  0  0  0
   -6.4517    1.5760    0.5557 C   0  0  0  0  0  0  0  0  0  0  0  0
   -6.6365    2.9392    0.6296 C   0  0  0  0  0  0  0  0  0  0  0  0
   -5.5331    3.7465    0.4557 C   0  0  0  0  0  0  0  0  0  0  0  0
   -4.2928    3.1991    0.2169 C   0  0  0  0  0  0  0  0  0  0  0  0
   -2.6272    0.0993   -0.7822 C   0  0  0  0  0  0  0  0  0  0  0  0
   -1.3359   -0.3786   -0.9956 C   0  0  0  0  0  0  0  0  0  0  0  0
   -1.1951   -1.6660   -1.7157 C   0  0  0  0  0  0  0  0  0  0  0  0
   -0.8922   -2.7269   -0.7009 C   0  0  0  0  0  0  0  0  0  0  0  0
   -1.9513   -3.2208    0.0570 C   0  0  0  0  0  0  0  0  0  0  0  0
   -1.7702   -4.2034    1.0140 C   0  0  0  0  0  0  0  0  0  0  0  0
   -0.4948   -4.6754    1.1883 C   0  0  0  0  0  0  0  0  0  0  0  0
    0.5735   -4.2078    0.4549 C   0  0  0  0  0  0  0  0  0  0  0  0
    0.3715   -3.2191   -0.5036 C   0  0  0  0  0  0  0  0  0  0  0  0
    5.1890    0.2213    1.0298 C   0  0  0  0  0  0  0  0  0  0  0  0
    6.6552   -0.0290    0.8266 C   0  0  0  0  0  0  0  0  0  0  0  0
    7.4273   -0.3987    1.7234 O   0  0  0  0  0  0  0  0  0  0  0  0
    7.1447    0.1747   -0.4512 O   0  0  0  0  0  0  0  0  0  0  0  0
    3.9295    2.4512   -0.9661 H   0  0  0  0  0  0  0  0  0  0  0  0
    5.5863    1.8735   -1.5093 H   0  0  0  0  0  0  0  0  0  0  0  0
    5.3180    2.5006    0.1211 H   0  0  0  0  0  0  0  0  0  0  0  0
    3.4416   -0.2355   -1.7532 H   0  0  0  0  0  0  0  0  0  0  0  0
    3.3957   -1.1598   -0.2277 H   0  0  0  0  0  0  0  0  0  0  0  0
    2.0953    0.7007    0.8456 H   0  0  0  0  0  0  0  0  0  0  0  0
    2.1289    1.5643   -0.7671 H   0  0  0  0  0  0  0  0  0  0  0  0
    0.4862    2.0051    0.4784 H   0  0  0  0  0  0  0  0  0  0  0  0
   -1.7830    2.9108    0.8953 H   0  0  0  0  0  0  0  0  0  0  0  0
   -5.1243   -0.0493    0.2738 H   0  0  0  0  0  0  0  0  0  0  0  0
   -7.3395    0.9575    0.6946 H   0  0  0  0  0  0  0  0  0  0  0  0
   -7.6058    3.4016    0.8138 H   0  0  0  0  0  0  0  0  0  0  0  0
   -5.6454    4.8149    0.5045 H   0  0  0  0  0  0  0  0  0  0  0  0
   -3.4369    3.8687    0.0796 H   0  0  0  0  0  0  0  0  0  0  0  0
   -3.5150   -0.4186   -1.1250 H   0  0  0  0  0  0  0  0  0  0  0  0
   -0.3363   -1.6455   -2.4456 H   0  0  0  0  0  0  0  0  0  0  0  0
   -2.1223   -1.9629   -2.2143 H   0  0  0  0  0  0  0  0  0  0  0  0
   -2.9288   -2.8326   -0.1087 H   0  0  0  0  0  0  0  0  0  0  0  0
   -2.6201   -4.5515    1.5728 H   0  0  0  0  0  0  0  0  0  0  0  0
   -0.3275   -5.4437    1.9309 H   0  0  0  0  0  0  0  0  0  0  0  0
    1.5679   -4.5979    0.6054 H   0  0  0  0  0  0  0  0  0  0  0  0
    1.1996   -2.8400   -1.0955 H   0  0  0  0  0  0  0  0  0  0  0  0
    4.6923   -0.6631    1.4718 H   0  0  0  0  0  0  0  0  0  0  0  0
    5.1137    1.0293    1.7956 H   0  0  0  0  0  0  0  0  0  0  0  0
    8.1132    0.3579   -0.6651 H   0  0  0  0  0  0  0  0  0  0  0  0
  1  2  1  0
  2  3  1  0
  3  4  1  0
  4  5  1  0
  5  6  1  0
  6  7  2  0
  7  8  1  0
  8  9  2  0
  9 10  1  0
 10 11  2  0
 11 12  1  0
 12 13  2  0
 13 14  1  0
 14 15  2  0
  9 16  1  0
 16 17  2  0
 17 18  1  0
 18 19  1  0
 19 20  2  0
 20 21  1  0
 21 22  2  0
 22 23  1  0
 23 24  2  0
  2 25  1  0
 25 26  1  0
 26 27  2  0
 26 28  1  0
 17  6  1  0
 24 19  1  0
 15 10  1  0
  1 29  1  0
  1 30  1  0
  1 31  1  0
  3 32  1  0
  3 33  1  0
  4 34  1  0
  4 35  1  0
  7 36  1  0
  8 37  1  0
 11 38  1  0
 12 39  1  0
 13 40  1  0
 14 41  1  0
 15 42  1  0
 16 43  1  0
 18 44  1  0
 18 45  1  0
 20 46  1  0
 21 47  1  0
 22 48  1  0
 23 49  1  0
 24 50  1  0
 25 51  1  0
 25 52  1  0
 28 53  1  0
M  END
$$$$
