@<TRIPOS>MOLECULE
*****
 37 40 0 0 0
SMALL
GASTEIGER

@<TRIPOS>ATOM
      1 O          -0.3614   -1.3196   -0.1899 O.2     1  UNL1       -0.2751
      2 C          -0.0859   -0.3326    0.5190 C.2     1  UNL1        0.2219
      3 C          -1.0795    0.4023    1.3391 C.3     1  UNL1        0.0500
      4 C          -2.4369   -0.1672    1.2080 C.ar    1  UNL1       -0.0295
      5 C          -3.0180   -0.9473    2.1915 C.ar    1  UNL1       -0.0574
      6 C          -4.2843   -1.4581    2.0345 C.ar    1  UNL1       -0.0594
      7 C          -4.9855   -1.1884    0.8782 C.ar    1  UNL1       -0.0357
      8 C          -4.4299   -0.4027   -0.1394 C.ar    1  UNL1        0.0712
      9 N          -5.1451   -0.1588   -1.2595 N.ar    1  UNL1       -0.2550
     10 C          -4.6584    0.5880   -2.2658 C.ar    1  UNL1        0.0283
     11 C          -3.3897    1.1042   -2.1170 C.ar    1  UNL1       -0.0430
     12 C          -2.6430    0.8670   -0.9812 C.ar    1  UNL1       -0.0509
     13 C          -3.1530    0.0910    0.0607 C.ar    1  UNL1        0.0040
     14 N           1.2659    0.1288    0.5516 N.am    1  UNL1       -0.2791
     15 C           2.2297   -0.5755   -0.2361 C.ar    1  UNL1        0.0836
     16 S           1.8533   -2.0168   -1.2393 S.2     1  UNL1       -0.0801
     17 C           3.5306   -2.2796   -1.8764 C.ar    1  UNL1       -0.0078
     18 C           4.2034   -1.2456   -1.2617 C.ar    1  UNL1        0.0374
     19 BR          6.1171   -1.1418   -1.6810 Br      1  UNL1       -0.0490
     20 C           3.5880   -0.3890   -0.4473 C.ar    1  UNL1        0.0614
     21 C           4.2225    0.7643    0.2624 C.ar    1  UNL1        0.1648
     22 N           3.6266    1.6375    1.0785 N.ar    1  UNL1       -0.1295
     23 N           4.4932    2.5257    1.5264 N.ar    1  UNL1       -0.1377
     24 C           5.6760    2.2395    1.0030 C.ar    1  UNL1        0.1175
     25 N           5.4901    1.1299    0.2106 N.ar    1  UNL1       -0.3276
     26 H          -1.0537    1.4591    1.0587 H       1  UNL1        0.0407
     27 H          -0.7178    0.2974    2.4008 H       1  UNL1        0.0407
     28 H          -2.4661   -1.1566    3.0955 H       1  UNL1        0.0621
     29 H          -4.7417   -2.0657    2.7981 H       1  UNL1        0.0618
     30 H          -5.9832   -1.5802    0.7343 H       1  UNL1        0.0639
     31 H          -5.2293    0.7909   -3.1753 H       1  UNL1        0.0830
     32 H          -3.0045    1.7058   -2.9330 H       1  UNL1        0.0633
     33 H          -1.6377    1.2834   -0.8785 H       1  UNL1        0.0625
     34 H           1.5076    0.9475    1.1358 H       1  UNL1        0.1553
     35 H           3.7977   -3.0431   -2.5293 H       1  UNL1        0.0705
     36 H           6.5950    2.7558    1.1557 H       1  UNL1        0.1046
     37 H           6.3076    0.7505   -0.2890 H       1  UNL1        0.1683
@<TRIPOS>BOND
     1     1     2    2
     2     2     3    1
     3     3     4    1
     4     4     5   ar
     5     5     6   ar
     6     6     7   ar
     7     7     8   ar
     8     8     9   ar
     9     9    10   ar
    10    10    11   ar
    11    11    12   ar
    12    12    13   ar
    13     2    14   am
    14    14    15    1
    15    15    16   ar
    16    16    17   ar
    17    17    18   ar
    18    18    19    1
    19    18    20   ar
    20    20    21    1
    21    21    22   ar
    22    22    23   ar
    23    23    24   ar
    24    24    25   ar
    25    13     4   ar
    26    20    15   ar
    27    25    21   ar
    28    13     8   ar
    29     3    26    1
    30     3    27    1
    31     5    28    1
    32     6    29    1
    33     7    30    1
    34    10    31    1
    35    11    32    1
    36    12    33    1
    37    14    34    1
    38    17    35    1
    39    24    36    1
    40    25    37    1
