@<TRIPOS>MOLECULE
*****
 18 19 0 0 0
SMALL
GASTEIGER

@<TRIPOS>ATOM
      1 BR          0.0602    1.6658    2.4851 Br      1  UNL1       -0.0496
      2 C          -0.8633    0.8532    1.0166 C.ar    1  UNL1        0.0271
      3 C          -2.2242    1.0022    0.8474 C.ar    1  UNL1       -0.0471
      4 C          -2.8962    0.4160   -0.2136 C.ar    1  UNL1       -0.0607
      5 C          -2.1295   -0.3234   -1.0892 C.ar    1  UNL1       -0.0611
      6 C          -0.7687   -0.4784   -0.9289 C.ar    1  UNL1       -0.0514
      7 C          -0.1059    0.1110    0.1342 C.ar    1  UNL1        0.0176
      8 C           1.3358   -0.0490    0.3102 C.ar    1  UNL1        0.1134
      9 C           2.1576   -0.7734   -0.5274 C.ar    1  UNL1        0.0502
     10 N           3.4194   -0.7086   -0.0701 N.ar    1  UNL1       -0.2643
     11 N           3.3721    0.0410    1.0269 N.ar    1  UNL1       -0.0678
     12 N           2.1244    0.4383    1.2581 N.ar    1  UNL1       -0.1297
     13 H          -2.8112    1.5931    1.5546 H       1  UNL1        0.0629
     14 H          -3.9641    0.5406   -0.3352 H       1  UNL1        0.0618
     15 H          -2.6370   -0.7856   -1.9194 H       1  UNL1        0.0618
     16 H          -0.1660   -1.0653   -1.6257 H       1  UNL1        0.0624
     17 H           1.8452   -1.3105   -1.4126 H       1  UNL1        0.0846
     18 H           4.2515   -1.1671   -0.5108 H       1  UNL1        0.1900
@<TRIPOS>BOND
     1     1     2    1
     2     2     3   ar
     3     3     4   ar
     4     4     5   ar
     5     5     6   ar
     6     6     7   ar
     7     7     8    1
     8     8     9   ar
     9     9    10   ar
    10    10    11   ar
    11    11    12   ar
    12     7     2   ar
    13    12     8   ar
    14     3    13    1
    15     4    14    1
    16     5    15    1
    17     6    16    1
    18     9    17    1
    19    10    18    1
