
     RDKit          3D

 18 19  0  0  0  0  0  0  0  0999 V2000
    0.0602    1.6658    2.4851 Br  0  0  0  0  0  0  0  0  0  0  0  0
   -0.8633    0.8532    1.0166 C   0  0  0  0  0  0  0  0  0  0  0  0
   -2.2242    1.0022    0.8474 C   0  0  0  0  0  0  0  0  0  0  0  0
   -2.8962    0.4160   -0.2136 C   0  0  0  0  0  0  0  0  0  0  0  0
   -2.1295   -0.3234   -1.0892 C   0  0  0  0  0  0  0  0  0  0  0  0
   -0.7687   -0.4784   -0.9289 C   0  0  0  0  0  0  0  0  0  0  0  0
   -0.1059    0.1110    0.1342 C   0  0  0  0  0  0  0  0  0  0  0  0
    1.3358   -0.0490    0.3102 C   0  0  0  0  0  0  0  0  0  0  0  0
    2.1576   -0.7734   -0.5274 C   0  0  0  0  0  0  0  0  0  0  0  0
    3.4194   -0.7086   -0.0701 N   0  0  0  0  0  0  0  0  0  0  0  0
    3.3721    0.0410    1.0269 N   0  0  0  0  0  0  0  0  0  0  0  0
    2.1244    0.4383    1.2581 N   0  0  0  0  0  0  0  0  0  0  0  0
   -2.8112    1.5931    1.5546 H   0  0  0  0  0  0  0  0  0  0  0  0
   -3.9641    0.5406   -0.3352 H   0  0  0  0  0  0  0  0  0  0  0  0
   -2.6370   -0.7856   -1.9194 H   0  0  0  0  0  0  0  0  0  0  0  0
   -0.1660   -1.0653   -1.6257 H   0  0  0  0  0  0  0  0  0  0  0  0
    1.8452   -1.3105   -1.4126 H   0  0  0  0  0  0  0  0  0  0  0  0
    4.2515   -1.1671   -0.5108 H   0  0  0  0  0  0  0  0  0  0  0  0
  1  2  1  0
  2  3  2  0
  3  4  1  0
  4  5  2  0
  5  6  1  0
  6  7  2  0
  7  8  1  0
  8  9  2  0
  9 10  1  0
 10 11  1  0
 11 12  2  0
  7  2  1  0
 12  8  1  0
  3 13  1  0
  4 14  1  0
  5 15  1  0
  6 16  1  0
  9 17  1  0
 10 18  1  0
M  END
$$$$
