@<TRIPOS>MOLECULE
*****
 52 55 0 0 0
SMALL
GASTEIGER

@<TRIPOS>ATOM
      1 C          -4.6578    0.3482   -0.5545 C.3     1  UNL1       -0.0068
      2 C          -6.0893   -0.0367   -0.7759 C.3     1  UNL1       -0.0591
      3 C          -4.4564    1.7513   -0.0669 C.3     1  UNL1       -0.0471
      4 C          -5.1753    1.9687    1.2298 C.3     1  UNL1       -0.0526
      5 C          -5.4920    0.7024    1.9588 C.3     1  UNL1       -0.0497
      6 C          -4.4141   -0.3240    1.8422 C.3     1  UNL1       -0.0155
      7 C          -3.9455   -0.5795    0.4257 C.3     1  UNL1        0.1029
      8 O          -2.5782   -0.2942    0.3715 O.3     1  UNL1       -0.4849
      9 C          -1.6515   -1.2037   -0.0609 C.ar    1  UNL1        0.1628
     10 C          -0.3366   -0.7231   -0.0390 C.ar    1  UNL1        0.1677
     11 O          -0.0690    0.5697    0.3942 O.3     1  UNL1       -0.5029
     12 C           0.7543   -1.4678   -0.4311 C.ar    1  UNL1        0.0434
     13 C           0.4888   -2.7672   -0.8669 C.ar    1  UNL1       -0.0489
     14 C          -0.7744   -3.3046   -0.9151 C.ar    1  UNL1       -0.0575
     15 C          -1.8077   -2.4938   -0.5060 C.ar    1  UNL1       -0.0162
     16 C           2.1435   -1.0358   -0.4351 C.ar    1  UNL1        0.0511
     17 C           2.6797    0.1742   -0.0622 C.ar    1  UNL1       -0.0285
     18 C           4.0518    0.2011   -0.2096 C.ar    1  UNL1        0.0012
     19 C           5.0322    1.1521    0.0195 C.ar    1  UNL1       -0.0349
     20 C           6.3296    0.7785   -0.2632 C.ar    1  UNL1        0.1004
     21 C           7.3476    1.8067   -0.0107 C.2     1  UNL1        0.3109
     22 N           7.0378    3.1977   -0.1302 N.pl3   1  UNL1       -0.2466
     23 N           8.5873    1.7484    0.3296 N.2     1  UNL1       -0.0993
     24 C           6.6591   -0.4697   -0.7489 C.ar    1  UNL1        0.1402
     25 F           7.9682   -0.6959   -0.9799 F       1  UNL1       -0.2045
     26 C           5.6504   -1.3882   -0.9631 C.ar    1  UNL1       -0.0017
     27 C           4.3323   -1.0594   -0.6941 C.ar    1  UNL1        0.0497
     28 N           3.2148   -1.7850   -0.8266 N.ar    1  UNL1       -0.3540
     29 H          -4.1264    0.2657   -1.5297 H       1  UNL1        0.0334
     30 H          -6.2800   -0.3181   -1.8530 H       1  UNL1        0.0234
     31 H          -6.8105    0.7642   -0.5679 H       1  UNL1        0.0234
     32 H          -6.3156   -0.9982   -0.2283 H       1  UNL1        0.0234
     33 H          -3.3717    1.8761    0.1086 H       1  UNL1        0.0269
     34 H          -4.7421    2.5091   -0.8250 H       1  UNL1        0.0269
     35 H          -4.5638    2.6706    1.8539 H       1  UNL1        0.0265
     36 H          -6.1104    2.5408    0.9781 H       1  UNL1        0.0265
     37 H          -5.5225    0.9831    3.0531 H       1  UNL1        0.0266
     38 H          -6.5255    0.3116    1.7718 H       1  UNL1        0.0266
     39 H          -3.5818   -0.0274    2.5056 H       1  UNL1        0.0301
     40 H          -4.7841   -1.2934    2.2324 H       1  UNL1        0.0301
     41 H          -4.1558   -1.5924    0.0869 H       1  UNL1        0.0735
     42 H          -0.2031    1.3888   -0.1661 H       1  UNL1        0.2923
     43 H           1.2849   -3.4468   -1.2019 H       1  UNL1        0.0625
     44 H          -0.9591   -4.2979   -1.2504 H       1  UNL1        0.0619
     45 H          -2.7944   -2.8802   -0.5316 H       1  UNL1        0.0655
     46 H           2.1637    1.0453    0.3096 H       1  UNL1        0.0645
     47 H           4.7358    2.1148    0.3989 H       1  UNL1        0.0633
     48 H           7.1176    4.0738   -0.6764 H       1  UNL1        0.2884
     49 H           6.4836    3.8114    0.5325 H       1  UNL1        0.2884
     50 H           9.1050    0.8695    0.4931 H       1  UNL1        0.3633
     51 H           5.9212   -2.3637   -1.3442 H       1  UNL1        0.0667
     52 H           3.2054   -2.7772   -1.1817 H       1  UNL1        0.1659
@<TRIPOS>BOND
     1     1     2    1
     2     1     3    1
     3     3     4    1
     4     4     5    1
     5     5     6    1
     6     6     7    1
     7     7     8    1
     8     8     9    1
     9     9    10   ar
    10    10    11    1
    11    10    12   ar
    12    12    13   ar
    13    13    14   ar
    14    14    15   ar
    15    12    16    1
    16    16    17   ar
    17    17    18   ar
    18    18    19   ar
    19    19    20   ar
    20    20    21    1
    21    21    22    1
    22    21    23    2
    23    20    24   ar
    24    24    25    1
    25    24    26   ar
    26    26    27   ar
    27    27    28   ar
    28     7     1    1
    29    15     9   ar
    30    28    16   ar
    31    27    18   ar
    32     1    29    1
    33     2    30    1
    34     2    31    1
    35     2    32    1
    36     3    33    1
    37     3    34    1
    38     4    35    1
    39     4    36    1
    40     5    37    1
    41     5    38    1
    42     6    39    1
    43     6    40    1
    44     7    41    1
    45    11    42    1
    46    13    43    1
    47    14    44    1
    48    15    45    1
    49    17    46    1
    50    19    47    1
    51    22    48    1
    52    22    49    1
    53    23    50    1
    54    26    51    1
    55    28    52    1
