
     RDKit          3D

 55 59  0  0  0  0  0  0  0  0999 V2000
   -6.9275    2.0360    1.7624 C   0  0  0  0  0  0  0  0  0  0  0  0
   -5.5924    1.4196    1.5548 C   0  0  0  0  0  0  0  0  0  0  0  0
   -4.5957    1.4256    2.5233 C   0  0  0  0  0  0  0  0  0  0  0  0
   -3.3668    0.8426    2.2947 C   0  0  0  0  0  0  0  0  0  0  0  0
   -3.0859    0.2346    1.0982 C   0  0  0  0  0  0  0  0  0  0  0  0
   -1.8041   -0.3829    0.8365 C   0  0  0  0  0  0  0  0  0  0  0  0
   -1.6272   -1.5952    1.1156 O   0  0  0  0  0  0  0  0  0  0  0  0
   -0.7101    0.3213    0.2689 N   0  0  0  0  0  0  0  0  0  0  0  0
   -0.7828    1.7226   -0.0979 C   0  0  0  0  0  0  0  0  0  0  0  0
   -0.0765    2.0235   -1.3863 C   0  0  0  0  0  0  0  0  0  0  0  0
    0.5901    0.9469   -1.9283 O   0  0  0  0  0  0  0  0  0  0  0  0
    1.4358    0.4460   -0.9113 C   0  0  0  0  0  0  0  0  0  0  0  0
    0.5582   -0.3353    0.0219 C   0  0  1  0  0  0  0  0  0  0  0  0
    1.2508   -0.7587    1.2874 C   0  0  0  0  0  0  0  0  0  0  0  0
    2.5293   -1.4137    0.8922 C   0  0  0  0  0  0  0  0  0  0  0  0
    2.6073   -2.7763    0.6492 C   0  0  0  0  0  0  0  0  0  0  0  0
    3.8006   -3.3789    0.2819 C   0  0  0  0  0  0  0  0  0  0  0  0
    3.8954   -4.7153    0.0395 F   0  0  0  0  0  0  0  0  0  0  0  0
    4.9534   -2.6340    0.1467 C   0  0  0  0  0  0  0  0  0  0  0  0
    4.8922   -1.2774    0.3849 C   0  0  0  0  0  0  0  0  0  0  0  0
    6.0639   -0.4827    0.2537 N   0  0  0  0  0  0  0  0  0  0  0  0
    7.2948   -0.7691    0.6651 N   0  0  0  0  0  0  0  0  0  0  0  0
    8.1298    0.2501    0.3499 C   0  0  0  0  0  0  0  0  0  0  0  0
    7.3594    1.1840   -0.2771 C   0  0  0  0  0  0  0  0  0  0  0  0
    6.1030    0.7037   -0.3187 N   0  0  0  0  0  0  0  0  0  0  0  0
    3.6972   -0.6870    0.7506 C   0  0  0  0  0  0  0  0  0  0  0  0
   -4.0521    0.2054    0.1031 C   0  0  0  0  0  0  0  0  0  0  0  0
   -3.7801   -0.4243   -1.1538 N   0  0  0  0  0  0  0  0  0  0  0  0
   -4.2956   -0.0239   -2.3014 N   0  0  0  0  0  0  0  0  0  0  0  0
   -3.8644   -0.8011   -3.3092 C   0  0  0  0  0  0  0  0  0  0  0  0
   -3.0286   -1.7428   -2.7501 C   0  0  0  0  0  0  0  0  0  0  0  0
   -3.0148   -1.4644   -1.4326 N   0  0  0  0  0  0  0  0  0  0  0  0
   -5.2712    0.8003    0.3698 C   0  0  0  0  0  0  0  0  0  0  0  0
   -7.4098    2.1323    0.7678 H   0  0  0  0  0  0  0  0  0  0  0  0
   -7.5261    1.3153    2.3468 H   0  0  0  0  0  0  0  0  0  0  0  0
   -6.8559    3.0269    2.2505 H   0  0  0  0  0  0  0  0  0  0  0  0
   -4.8129    1.9021    3.4639 H   0  0  0  0  0  0  0  0  0  0  0  0
   -2.5961    0.8618    3.0788 H   0  0  0  0  0  0  0  0  0  0  0  0
   -1.8227    2.0909   -0.1860 H   0  0  0  0  0  0  0  0  0  0  0  0
   -0.2147    2.2716    0.7089 H   0  0  0  0  0  0  0  0  0  0  0  0
    0.6666    2.8567   -1.2883 H   0  0  0  0  0  0  0  0  0  0  0  0
   -0.7928    2.3851   -2.1813 H   0  0  0  0  0  0  0  0  0  0  0  0
    1.9102    1.3095   -0.3985 H   0  0  0  0  0  0  0  0  0  0  0  0
    2.1794   -0.2333   -1.3642 H   0  0  0  0  0  0  0  0  0  0  0  0
    0.2956   -1.2910   -0.5218 H   0  0  0  0  0  0  0  0  0  0  0  0
    1.5245    0.1135    1.9124 H   0  0  0  0  0  0  0  0  0  0  0  0
    0.6514   -1.5138    1.8046 H   0  0  0  0  0  0  0  0  0  0  0  0
    1.7171   -3.3804    0.7488 H   0  0  0  0  0  0  0  0  0  0  0  0
    5.9025   -3.1004   -0.1433 H   0  0  0  0  0  0  0  0  0  0  0  0
    9.1839    0.3604    0.5281 H   0  0  0  0  0  0  0  0  0  0  0  0
    7.6318    2.1422   -0.6864 H   0  0  0  0  0  0  0  0  0  0  0  0
    3.6821    0.3879    0.9319 H   0  0  0  0  0  0  0  0  0  0  0  0
   -4.0829   -0.7593   -4.3643 H   0  0  0  0  0  0  0  0  0  0  0  0
   -2.4898   -2.5477   -3.2692 H   0  0  0  0  0  0  0  0  0  0  0  0
   -6.0269    0.7708   -0.4249 H   0  0  0  0  0  0  0  0  0  0  0  0
  1  2  1  0
  2  3  2  0
  3  4  1  0
  4  5  2  0
  5  6  1  0
  6  7  2  0
  6  8  1  0
  8  9  1  0
  9 10  1  0
 10 11  1  0
 11 12  1  0
 12 13  1  0
 13 14  1  0
 14 15  1  0
 15 16  2  0
 16 17  1  0
 17 18  1  0
 17 19  2  0
 19 20  1  0
 20 21  1  0
 21 22  1  0
 22 23  2  0
 23 24  1  0
 24 25  2  0
 20 26  2  0
  5 27  1  0
 27 28  1  0
 28 29  1  0
 29 30  2  0
 30 31  1  0
 31 32  2  0
 27 33  2  0
 33  2  1  0
 13  8  1  0
 26 15  1  0
 32 28  1  0
 25 21  1  0
  1 34  1  0
  1 35  1  0
  1 36  1  0
  3 37  1  0
  4 38  1  0
  9 39  1  0
  9 40  1  0
 10 41  1  0
 10 42  1  0
 12 43  1  0
 12 44  1  0
 13 45  1  6
 14 46  1  0
 14 47  1  0
 16 48  1  0
 19 49  1  0
 23 50  1  0
 24 51  1  0
 26 52  1  0
 30 53  1  0
 31 54  1  0
 33 55  1  0
M  END
$$$$
