@<TRIPOS>MOLECULE
*****
 55 59 0 0 0
SMALL
GASTEIGER

@<TRIPOS>ATOM
      1 C          -6.9275    2.0360    1.7624 C.3     1  UNL1       -0.0396
      2 C          -5.5924    1.4196    1.5548 C.ar    1  UNL1       -0.0483
      3 C          -4.5957    1.4256    2.5233 C.ar    1  UNL1       -0.0580
      4 C          -3.3668    0.8426    2.2947 C.ar    1  UNL1       -0.0473
      5 C          -3.0859    0.2346    1.0982 C.ar    1  UNL1        0.0640
      6 C          -1.8041   -0.3829    0.8365 C.2     1  UNL1        0.2491
      7 O          -1.6272   -1.5952    1.1156 O.2     1  UNL1       -0.2699
      8 N          -0.7101    0.3213    0.2689 N.am    1  UNL1       -0.2897
      9 C          -0.7828    1.7226   -0.0979 C.3     1  UNL1        0.0388
     10 C          -0.0765    2.0235   -1.3863 C.3     1  UNL1        0.0635
     11 O           0.5901    0.9469   -1.9283 O.3     1  UNL1       -0.3764
     12 C           1.4358    0.4460   -0.9113 C.3     1  UNL1        0.0666
     13 C           0.5582   -0.3353    0.0219 C.3     1  UNL1        0.0537
     14 C           1.2508   -0.7587    1.2874 C.3     1  UNL1       -0.0067
     15 C           2.5293   -1.4137    0.8922 C.ar    1  UNL1       -0.0408
     16 C           2.6073   -2.7763    0.6492 C.ar    1  UNL1       -0.0231
     17 C           3.8006   -3.3789    0.2819 C.ar    1  UNL1        0.1257
     18 F           3.8954   -4.7153    0.0395 F       1  UNL1       -0.2054
     19 C           4.9534   -2.6340    0.1467 C.ar    1  UNL1        0.0007
     20 C           4.8922   -1.2774    0.3849 C.ar    1  UNL1        0.0891
     21 N           6.0639   -0.4827    0.2537 N.ar    1  UNL1       -0.1502
     22 N           7.2948   -0.7691    0.6651 N.ar    1  UNL1       -0.1556
     23 C           8.1298    0.2501    0.3499 C.ar    1  UNL1        0.0697
     24 C           7.3594    1.1840   -0.2771 C.ar    1  UNL1        0.0697
     25 N           6.1030    0.7037   -0.3187 N.ar    1  UNL1       -0.1556
     26 C           3.6972   -0.6870    0.7506 C.ar    1  UNL1       -0.0311
     27 C          -4.0521    0.2054    0.1031 C.ar    1  UNL1        0.0985
     28 N          -3.7801   -0.4243   -1.1538 N.ar    1  UNL1       -0.1496
     29 N          -4.2956   -0.0239   -2.3014 N.ar    1  UNL1       -0.1556
     30 C          -3.8644   -0.8011   -3.3092 C.ar    1  UNL1        0.0697
     31 C          -3.0286   -1.7428   -2.7501 C.ar    1  UNL1        0.0697
     32 N          -3.0148   -1.4644   -1.4326 N.ar    1  UNL1       -0.1556
     33 C          -5.2712    0.8003    0.3698 C.ar    1  UNL1       -0.0309
     34 H          -7.4098    2.1323    0.7678 H       1  UNL1        0.0278
     35 H          -7.5261    1.3153    2.3468 H       1  UNL1        0.0278
     36 H          -6.8559    3.0269    2.2505 H       1  UNL1        0.0278
     37 H          -4.8129    1.9021    3.4639 H       1  UNL1        0.0620
     38 H          -2.5961    0.8618    3.0788 H       1  UNL1        0.0626
     39 H          -1.8227    2.0909   -0.1860 H       1  UNL1        0.0487
     40 H          -0.2147    2.2716    0.7089 H       1  UNL1        0.0487
     41 H           0.6666    2.8567   -1.2883 H       1  UNL1        0.0575
     42 H          -0.7928    2.3851   -2.1813 H       1  UNL1        0.0575
     43 H           1.9102    1.3095   -0.3985 H       1  UNL1        0.0578
     44 H           2.1794   -0.2333   -1.3642 H       1  UNL1        0.0578
     45 H           0.2956   -1.2910   -0.5218 H       1  UNL1        0.0526
     46 H           1.5245    0.1135    1.9124 H       1  UNL1        0.0332
     47 H           0.6514   -1.5138    1.8046 H       1  UNL1        0.0332
     48 H           1.7171   -3.3804    0.7488 H       1  UNL1        0.0649
     49 H           5.9025   -3.1004   -0.1433 H       1  UNL1        0.0668
     50 H           9.1839    0.3604    0.5281 H       1  UNL1        0.0864
     51 H           7.6318    2.1422   -0.6864 H       1  UNL1        0.0864
     52 H           3.6821    0.3879    0.9319 H       1  UNL1        0.0642
     53 H          -4.0829   -0.7593   -4.3643 H       1  UNL1        0.0864
     54 H          -2.4898   -2.5477   -3.2692 H       1  UNL1        0.0864
     55 H          -6.0269    0.7708   -0.4249 H       1  UNL1        0.0642
@<TRIPOS>BOND
     1     1     2    1
     2     2     3   ar
     3     3     4   ar
     4     4     5   ar
     5     5     6    1
     6     6     7    2
     7     6     8   am
     8     8     9    1
     9     9    10    1
    10    10    11    1
    11    11    12    1
    12    12    13    1
    13    13    14    1
    14    14    15    1
    15    15    16   ar
    16    16    17   ar
    17    17    18    1
    18    17    19   ar
    19    19    20   ar
    20    20    21    1
    21    21    22   ar
    22    22    23   ar
    23    23    24   ar
    24    24    25   ar
    25    20    26   ar
    26     5    27   ar
    27    27    28    1
    28    28    29   ar
    29    29    30   ar
    30    30    31   ar
    31    31    32   ar
    32    27    33   ar
    33    33     2   ar
    34    13     8    1
    35    26    15   ar
    36    32    28   ar
    37    25    21   ar
    38     1    34    1
    39     1    35    1
    40     1    36    1
    41     3    37    1
    42     4    38    1
    43     9    39    1
    44     9    40    1
    45    10    41    1
    46    10    42    1
    47    12    43    1
    48    12    44    1
    49    13    45    1
    50    14    46    1
    51    14    47    1
    52    16    48    1
    53    19    49    1
    54    23    50    1
    55    24    51    1
    56    26    52    1
    57    30    53    1
    58    31    54    1
    59    33    55    1
