@<TRIPOS>MOLECULE
*****
 57 61 0 0 0
SMALL
GASTEIGER

@<TRIPOS>ATOM
      1 C          -3.9152   -0.1807   -3.1003 C.3     1  UNL1       -0.0274
      2 C          -3.9198    0.0390   -1.5821 C.3     1  UNL1        0.1037
      3 O          -2.6962   -0.1414   -1.1137 O.3     1  UNL1       -0.4725
      4 C          -1.8545   -0.8020   -0.3416 C.ar    1  UNL1        0.2265
      5 N          -0.5312   -0.4236   -0.3150 N.ar    1  UNL1       -0.2122
      6 C           0.4013   -1.0182    0.4255 C.ar    1  UNL1        0.0783
      7 C           1.8006   -0.5416    0.3891 C.ar    1  UNL1        0.0188
      8 C           2.8009   -1.1100    1.1257 C.ar    1  UNL1       -0.0479
      9 C           4.0978   -0.5830    1.0201 C.ar    1  UNL1       -0.0211
     10 C           4.3975    0.4840    0.2025 C.ar    1  UNL1        0.1214
     11 N           5.7028    0.9967    0.1113 N.pl3   1  UNL1       -0.3108
     12 C           6.8314    0.4959    0.8344 C.3     1  UNL1        0.0370
     13 C           7.8848    1.6055    0.8386 C.3     1  UNL1        0.0634
     14 O           8.2807    1.9832   -0.4197 O.3     1  UNL1       -0.3767
     15 C           7.3290    1.8033   -1.4107 C.3     1  UNL1        0.0634
     16 C           5.9667    2.1320   -0.7842 C.3     1  UNL1        0.0370
     17 N           3.3912    1.0180   -0.5068 N.ar    1  UNL1       -0.2397
     18 C           2.1341    0.5309   -0.4244 C.ar    1  UNL1        0.0389
     19 C           0.0521   -2.0784    1.2235 C.ar    1  UNL1       -0.0077
     20 C          -1.2721   -2.5243    1.2533 C.ar    1  UNL1        0.0999
     21 N          -1.8725   -3.5254    1.9360 N.ar    1  UNL1       -0.1712
     22 N          -3.1375   -3.5311    1.6119 N.ar    1  UNL1       -0.2732
     23 C          -4.2104   -4.4086    2.0680 C.3     1  UNL1        0.0302
     24 C          -3.3792   -2.5348    0.7143 C.ar    1  UNL1        0.0380
     25 C          -2.1851   -1.8753    0.4722 C.ar    1  UNL1        0.0812
     26 C          -4.3772    1.4710   -1.2855 C.3     1  UNL1        0.0196
     27 C          -5.7467    1.7572   -1.7959 C.3     1  UNL1        0.0182
     28 N          -6.4738    2.3485   -0.6906 N.am    1  UNL1       -0.3149
     29 C          -5.6991    2.4003    0.4887 C.2     1  UNL1        0.2135
     30 O          -5.9650    2.9053    1.6088 O.2     1  UNL1       -0.2758
     31 C          -4.4187    1.7193    0.2019 C.3     1  UNL1        0.0315
     32 H          -3.1990   -1.0164   -3.2663 H       1  UNL1        0.0265
     33 H          -3.4864    0.7003   -3.6241 H       1  UNL1        0.0265
     34 H          -4.8884   -0.4982   -3.4757 H       1  UNL1        0.0265
     35 H          -4.7289   -0.6334   -1.2233 H       1  UNL1        0.0734
     36 H           2.6099   -1.9467    1.7783 H       1  UNL1        0.0626
     37 H           4.8937   -1.0155    1.5897 H       1  UNL1        0.0652
     38 H           6.6077    0.2686    1.8966 H       1  UNL1        0.0487
     39 H           7.2304   -0.4424    0.3949 H       1  UNL1        0.0487
     40 H           7.3753    2.4818    1.3226 H       1  UNL1        0.0575
     41 H           8.7284    1.3429    1.4995 H       1  UNL1        0.0575
     42 H           7.3369    0.8086   -1.8657 H       1  UNL1        0.0575
     43 H           7.5579    2.5421   -2.2180 H       1  UNL1        0.0575
     44 H           5.2148    2.2058   -1.5857 H       1  UNL1        0.0487
     45 H           6.1152    3.0511   -0.2114 H       1  UNL1        0.0487
     46 H           1.3105    0.9661   -1.0033 H       1  UNL1        0.0837
     47 H           0.7718   -2.6033    1.8504 H       1  UNL1        0.0661
     48 H          -4.7575   -3.9132    2.9088 H       1  UNL1        0.0473
     49 H          -4.9739   -4.5639    1.2749 H       1  UNL1        0.0473
     50 H          -3.7930   -5.3772    2.3651 H       1  UNL1        0.0473
     51 H          -4.3198   -2.2861    0.2613 H       1  UNL1        0.0834
     52 H          -3.6730    2.2052   -1.7271 H       1  UNL1        0.0356
     53 H          -6.2667    0.8761   -2.2204 H       1  UNL1        0.0466
     54 H          -5.7477    2.5242   -2.6169 H       1  UNL1        0.0466
     55 H          -7.4475    2.6908   -0.7646 H       1  UNL1        0.1487
     56 H          -4.2843    0.7993    0.7975 H       1  UNL1        0.0363
     57 H          -3.6032    2.4216    0.5250 H       1  UNL1        0.0363
@<TRIPOS>BOND
     1     1     2    1
     2     2     3    1
     3     3     4    1
     4     4     5   ar
     5     5     6   ar
     6     6     7    1
     7     7     8   ar
     8     8     9   ar
     9     9    10   ar
    10    10    11    1
    11    11    12    1
    12    12    13    1
    13    13    14    1
    14    14    15    1
    15    15    16    1
    16    10    17   ar
    17    17    18   ar
    18     6    19   ar
    19    19    20   ar
    20    20    21   ar
    21    21    22   ar
    22    22    23    1
    23    22    24   ar
    24    24    25   ar
    25     2    26    1
    26    26    27    1
    27    27    28    1
    28    28    29   am
    29    29    30    2
    30    29    31    1
    31    25     4   ar
    32    31    26    1
    33    18     7   ar
    34    25    20   ar
    35    16    11    1
    36     1    32    1
    37     1    33    1
    38     1    34    1
    39     2    35    1
    40     8    36    1
    41     9    37    1
    42    12    38    1
    43    12    39    1
    44    13    40    1
    45    13    41    1
    46    15    42    1
    47    15    43    1
    48    16    44    1
    49    16    45    1
    50    18    46    1
    51    19    47    1
    52    23    48    1
    53    23    49    1
    54    23    50    1
    55    24    51    1
    56    26    52    1
    57    27    53    1
    58    27    54    1
    59    28    55    1
    60    31    56    1
    61    31    57    1
