
     RDKit          3D

 57 61  0  0  0  0  0  0  0  0999 V2000
   -3.9152   -0.1807   -3.1003 C   0  0  0  0  0  0  0  0  0  0  0  0
   -3.9198    0.0390   -1.5821 C   0  0  1  0  0  0  0  0  0  0  0  0
   -2.6962   -0.1414   -1.1137 O   0  0  0  0  0  0  0  0  0  0  0  0
   -1.8545   -0.8020   -0.3416 C   0  0  0  0  0  0  0  0  0  0  0  0
   -0.5312   -0.4236   -0.3150 N   0  0  0  0  0  0  0  0  0  0  0  0
    0.4013   -1.0182    0.4255 C   0  0  0  0  0  0  0  0  0  0  0  0
    1.8006   -0.5416    0.3891 C   0  0  0  0  0  0  0  0  0  0  0  0
    2.8009   -1.1100    1.1257 C   0  0  0  0  0  0  0  0  0  0  0  0
    4.0978   -0.5830    1.0201 C   0  0  0  0  0  0  0  0  0  0  0  0
    4.3975    0.4840    0.2025 C   0  0  0  0  0  0  0  0  0  0  0  0
    5.7028    0.9967    0.1113 N   0  0  0  0  0  0  0  0  0  0  0  0
    6.8314    0.4959    0.8344 C   0  0  0  0  0  0  0  0  0  0  0  0
    7.8848    1.6055    0.8386 C   0  0  0  0  0  0  0  0  0  0  0  0
    8.2807    1.9832   -0.4197 O   0  0  0  0  0  0  0  0  0  0  0  0
    7.3290    1.8033   -1.4107 C   0  0  0  0  0  0  0  0  0  0  0  0
    5.9667    2.1320   -0.7842 C   0  0  0  0  0  0  0  0  0  0  0  0
    3.3912    1.0180   -0.5068 N   0  0  0  0  0  0  0  0  0  0  0  0
    2.1341    0.5309   -0.4244 C   0  0  0  0  0  0  0  0  0  0  0  0
    0.0521   -2.0784    1.2235 C   0  0  0  0  0  0  0  0  0  0  0  0
   -1.2721   -2.5243    1.2533 C   0  0  0  0  0  0  0  0  0  0  0  0
   -1.8725   -3.5254    1.9360 N   0  0  0  0  0  0  0  0  0  0  0  0
   -3.1375   -3.5311    1.6119 N   0  0  0  0  0  0  0  0  0  0  0  0
   -4.2104   -4.4086    2.0680 C   0  0  0  0  0  0  0  0  0  0  0  0
   -3.3792   -2.5348    0.7143 C   0  0  0  0  0  0  0  0  0  0  0  0
   -2.1851   -1.8753    0.4722 C   0  0  0  0  0  0  0  0  0  0  0  0
   -4.3772    1.4710   -1.2855 C   0  0  1  0  0  0  0  0  0  0  0  0
   -5.7467    1.7572   -1.7959 C   0  0  0  0  0  0  0  0  0  0  0  0
   -6.4738    2.3485   -0.6906 N   0  0  0  0  0  0  0  0  0  0  0  0
   -5.6991    2.4003    0.4887 C   0  0  0  0  0  0  0  0  0  0  0  0
   -5.9650    2.9053    1.6088 O   0  0  0  0  0  0  0  0  0  0  0  0
   -4.4187    1.7193    0.2019 C   0  0  0  0  0  0  0  0  0  0  0  0
   -3.1990   -1.0164   -3.2663 H   0  0  0  0  0  0  0  0  0  0  0  0
   -3.4864    0.7003   -3.6241 H   0  0  0  0  0  0  0  0  0  0  0  0
   -4.8884   -0.4982   -3.4757 H   0  0  0  0  0  0  0  0  0  0  0  0
   -4.7289   -0.6334   -1.2233 H   0  0  0  0  0  0  0  0  0  0  0  0
    2.6099   -1.9467    1.7783 H   0  0  0  0  0  0  0  0  0  0  0  0
    4.8937   -1.0155    1.5897 H   0  0  0  0  0  0  0  0  0  0  0  0
    6.6077    0.2686    1.8966 H   0  0  0  0  0  0  0  0  0  0  0  0
    7.2304   -0.4424    0.3949 H   0  0  0  0  0  0  0  0  0  0  0  0
    7.3753    2.4818    1.3226 H   0  0  0  0  0  0  0  0  0  0  0  0
    8.7284    1.3429    1.4995 H   0  0  0  0  0  0  0  0  0  0  0  0
    7.3369    0.8086   -1.8657 H   0  0  0  0  0  0  0  0  0  0  0  0
    7.5579    2.5421   -2.2180 H   0  0  0  0  0  0  0  0  0  0  0  0
    5.2148    2.2058   -1.5857 H   0  0  0  0  0  0  0  0  0  0  0  0
    6.1152    3.0511   -0.2114 H   0  0  0  0  0  0  0  0  0  0  0  0
    1.3105    0.9661   -1.0033 H   0  0  0  0  0  0  0  0  0  0  0  0
    0.7718   -2.6033    1.8504 H   0  0  0  0  0  0  0  0  0  0  0  0
   -4.7575   -3.9132    2.9088 H   0  0  0  0  0  0  0  0  0  0  0  0
   -4.9739   -4.5639    1.2749 H   0  0  0  0  0  0  0  0  0  0  0  0
   -3.7930   -5.3772    2.3651 H   0  0  0  0  0  0  0  0  0  0  0  0
   -4.3198   -2.2861    0.2613 H   0  0  0  0  0  0  0  0  0  0  0  0
   -3.6730    2.2052   -1.7271 H   0  0  0  0  0  0  0  0  0  0  0  0
   -6.2667    0.8761   -2.2204 H   0  0  0  0  0  0  0  0  0  0  0  0
   -5.7477    2.5242   -2.6169 H   0  0  0  0  0  0  0  0  0  0  0  0
   -7.4475    2.6908   -0.7646 H   0  0  0  0  0  0  0  0  0  0  0  0
   -4.2843    0.7993    0.7975 H   0  0  0  0  0  0  0  0  0  0  0  0
   -3.6032    2.4216    0.5250 H   0  0  0  0  0  0  0  0  0  0  0  0
  1  2  1  0
  2  3  1  0
  3  4  1  0
  4  5  2  0
  5  6  1  0
  6  7  1  0
  7  8  2  0
  8  9  1  0
  9 10  2  0
 10 11  1  0
 11 12  1  0
 12 13  1  0
 13 14  1  0
 14 15  1  0
 15 16  1  0
 10 17  1  0
 17 18  2  0
  6 19  2  0
 19 20  1  0
 20 21  2  0
 21 22  1  0
 22 23  1  0
 22 24  1  0
 24 25  2  0
  2 26  1  0
 26 27  1  0
 27 28  1  0
 28 29  1  0
 29 30  2  0
 29 31  1  0
 25  4  1  0
 31 26  1  0
 18  7  1  0
 25 20  1  0
 16 11  1  0
  1 32  1  0
  1 33  1  0
  1 34  1  0
  2 35  1  1
  8 36  1  0
  9 37  1  0
 12 38  1  0
 12 39  1  0
 13 40  1  0
 13 41  1  0
 15 42  1  0
 15 43  1  0
 16 44  1  0
 16 45  1  0
 18 46  1  0
 19 47  1  0
 23 48  1  0
 23 49  1  0
 23 50  1  0
 24 51  1  0
 26 52  1  6
 27 53  1  0
 27 54  1  0
 28 55  1  0
 31 56  1  0
 31 57  1  0
M  END
$$$$
