@<TRIPOS>MOLECULE
*****
 72 76 0 0 0
SMALL
GASTEIGER

@<TRIPOS>ATOM
      1 C          -6.5834    3.5564    0.2784 C.3     1  UNL1       -0.0219
      2 C          -6.7693    2.0963   -0.0537 C.ar    1  UNL1        0.0485
      3 N          -7.9874    1.5721    0.0551 N.ar    1  UNL1       -0.2371
      4 C          -8.2363    0.2899   -0.2182 C.ar    1  UNL1        0.1199
      5 N          -9.5610   -0.2649   -0.0967 N.pl3   1  UNL1       -0.3430
      6 C          -7.1738   -0.4754   -0.6198 C.ar    1  UNL1        0.0200
      7 C          -5.8704    0.0318   -0.7489 C.ar    1  UNL1        0.1301
      8 C          -5.6391    1.3608   -0.4619 C.ar    1  UNL1        0.0324
      9 C          -4.3749    2.0740   -0.5660 C.3     1  UNL1        0.0423
     10 N          -3.3562    1.6036    0.4155 N.am    1  UNL1       -0.3070
     11 C          -2.0277    1.9745    0.3171 C.2     1  UNL1        0.2473
     12 O          -1.9970    2.7959   -0.7279 O.2     1  UNL1       -0.2701
     13 C          -0.7301    1.7388    0.9695 C.ar    1  UNL1        0.0741
     14 C           0.2363    2.7703    1.0796 C.ar    1  UNL1        0.0615
     15 N           1.2843    2.1950    1.6098 N.ar    1  UNL1       -0.1786
     16 N           1.0500    0.8746    1.8433 N.ar    1  UNL1       -0.2662
     17 C          -0.1793    0.5638    1.4658 C.ar    1  UNL1        0.0380
     18 C           2.1775    0.0963    2.3875 C.3     1  UNL1        0.0699
     19 C           3.2816    0.1283    1.3633 C.ar    1  UNL1        0.0155
     20 C           3.8633    1.3356    1.0610 C.ar    1  UNL1       -0.0530
     21 C           4.8687    1.4836    0.1330 C.ar    1  UNL1       -0.0563
     22 C           5.3404    0.3910   -0.5443 C.ar    1  UNL1       -0.0227
     23 C           6.4404    0.5241   -1.5671 C.3     1  UNL1        0.0666
     24 N           7.7459    0.3729   -0.9604 N.ar    1  UNL1       -0.2671
     25 C           8.4440    1.3981   -0.4663 C.ar    1  UNL1        0.0258
     26 C           9.6217    0.9072    0.0268 C.ar    1  UNL1       -0.0242
     27 C           9.5875   -0.4492   -0.1976 C.ar    1  UNL1        0.0494
     28 N           8.4265   -0.7277   -0.8006 N.ar    1  UNL1       -0.1794
     29 C           4.7738   -0.8259   -0.2562 C.ar    1  UNL1       -0.0147
     30 C           3.7438   -1.0197    0.6863 C.ar    1  UNL1        0.1257
     31 O           3.2909   -2.2343    0.8747 O.3     1  UNL1       -0.4916
     32 C           2.7526   -3.3998    1.0865 C.3     1  UNL1        0.0899
     33 C           1.5139   -3.7953    0.2207 C.3     1  UNL1       -0.0152
     34 C           0.5304   -2.6862    0.5619 C.3     1  UNL1       -0.0317
     35 C          -0.8204   -2.8533   -0.0507 C.2     1  UNL1       -0.0877
     36 C          -1.5570   -2.1784   -0.8501 C.2     1  UNL1       -0.0847
     37 C          -2.9361   -2.3333   -1.4722 C.3     1  UNL1       -0.0004
     38 C          -3.6324   -1.0594   -0.8738 C.3     1  UNL1        0.0930
     39 O          -4.9535   -0.9187   -1.1631 O.3     1  UNL1       -0.4912
     40 H          -5.8341    3.5776    1.0944 H       1  UNL1        0.0293
     41 H          -7.5139    3.9596    0.6963 H       1  UNL1        0.0293
     42 H          -6.3221    4.1489   -0.5996 H       1  UNL1        0.0293
     43 H         -10.0073   -0.5809   -0.9789 H       1  UNL1        0.1437
     44 H         -10.0618   -0.3565    0.7937 H       1  UNL1        0.1437
     45 H          -7.4253   -1.5155   -0.8364 H       1  UNL1        0.0689
     46 H          -4.5482    3.1580   -0.4295 H       1  UNL1        0.0513
     47 H          -3.9048    1.9785   -1.5619 H       1  UNL1        0.0513
     48 H          -3.7944    1.0247    1.1170 H       1  UNL1        0.1493
     49 H           0.1367    3.8275    0.7880 H       1  UNL1        0.0855
     50 H          -0.7111   -0.4533    1.5489 H       1  UNL1        0.0834
     51 H           2.6351    0.6813    3.2727 H       1  UNL1        0.0560
     52 H           2.0161   -0.8553    2.8131 H       1  UNL1        0.0560
     53 H           3.5373    2.2518    1.5895 H       1  UNL1        0.0622
     54 H           5.3098    2.4468   -0.0874 H       1  UNL1        0.0621
     55 H           6.2389   -0.2358   -2.3395 H       1  UNL1        0.0558
     56 H           6.4149    1.5071   -2.0759 H       1  UNL1        0.0558
     57 H           8.1523    2.4476   -0.4462 H       1  UNL1        0.0826
     58 H          10.3873    1.5131    0.4892 H       1  UNL1        0.0648
     59 H          10.3747   -1.1400    0.0764 H       1  UNL1        0.0848
     60 H           5.2180   -1.6388   -0.8475 H       1  UNL1        0.0657
     61 H           3.4847   -4.2255    0.7778 H       1  UNL1        0.0696
     62 H           2.5280   -3.7056    2.1484 H       1  UNL1        0.0696
     63 H           1.1644   -4.7954    0.4723 H       1  UNL1        0.0301
     64 H           1.8151   -3.6802   -0.8379 H       1  UNL1        0.0301
     65 H           0.4169   -2.7917    1.7154 H       1  UNL1        0.0308
     66 H           1.0821   -1.7681    0.4894 H       1  UNL1        0.0308
     67 H          -1.1012   -3.8890    0.4062 H       1  UNL1        0.0569
     68 H          -1.2679   -1.1701   -1.3545 H       1  UNL1        0.0570
     69 H          -3.5835   -3.1174   -1.2605 H       1  UNL1        0.0340
     70 H          -2.8819   -2.2175   -2.5940 H       1  UNL1        0.0340
     71 H          -3.0939   -0.1970   -1.3842 H       1  UNL1        0.0699
     72 H          -3.4488   -1.1022    0.2128 H       1  UNL1        0.0699
@<TRIPOS>BOND
     1     1     2    1
     2     2     3   ar
     3     3     4   ar
     4     4     5    1
     5     4     6   ar
     6     6     7   ar
     7     7     8   ar
     8     8     9    1
     9     9    10    1
    10    10    11   am
    11    11    12    2
    12    11    13    1
    13    13    14   ar
    14    14    15   ar
    15    15    16   ar
    16    16    17   ar
    17    16    18    1
    18    18    19    1
    19    19    20   ar
    20    20    21   ar
    21    21    22   ar
    22    22    23    1
    23    23    24    1
    24    24    25   ar
    25    25    26   ar
    26    26    27   ar
    27    27    28   ar
    28    22    29   ar
    29    29    30   ar
    30    30    31    1
    31    31    32    1
    32    32    33    1
    33    33    34    1
    34    34    35    1
    35    35    36    2
    36    36    37    1
    37    37    38    1
    38    38    39    1
    39     8     2   ar
    40    17    13   ar
    41    30    19   ar
    42    39     7    1
    43    28    24   ar
    44     1    40    1
    45     1    41    1
    46     1    42    1
    47     5    43    1
    48     5    44    1
    49     6    45    1
    50     9    46    1
    51     9    47    1
    52    10    48    1
    53    14    49    1
    54    17    50    1
    55    18    51    1
    56    18    52    1
    57    20    53    1
    58    21    54    1
    59    23    55    1
    60    23    56    1
    61    25    57    1
    62    26    58    1
    63    27    59    1
    64    29    60    1
    65    32    61    1
    66    32    62    1
    67    33    63    1
    68    33    64    1
    69    34    65    1
    70    34    66    1
    71    35    67    1
    72    36    68    1
    73    37    69    1
    74    37    70    1
    75    38    71    1
    76    38    72    1
