@<TRIPOS>MOLECULE
*****
 61 65 0 0 0
SMALL
GASTEIGER

@<TRIPOS>ATOM
      1 C           2.9722   -1.0827    3.3303 C.3     1  UNL1       -0.0391
      2 C           3.7982   -0.6437    2.1792 C.ar    1  UNL1       -0.0427
      3 C           5.1863   -0.6121    2.2999 C.ar    1  UNL1       -0.0575
      4 C           6.0219   -0.2198    1.2860 C.ar    1  UNL1       -0.0494
      5 C           5.5147    0.1687    0.0772 C.ar    1  UNL1        0.0373
      6 C           4.1291    0.1353   -0.0380 C.ar    1  UNL1       -0.0417
      7 C           3.2578   -0.2607    0.9814 C.ar    1  UNL1       -0.0142
      8 C           1.8332   -0.2655    0.7779 C.ar    1  UNL1       -0.0169
      9 C           1.4685   -0.8275   -0.4397 C.ar    1  UNL1       -0.0434
     10 C           0.1279   -0.9161   -0.8061 C.ar    1  UNL1        0.0192
     11 C          -0.8158   -0.4303    0.0753 C.ar    1  UNL1        0.0761
     12 C          -0.4925    0.1339    1.2919 C.ar    1  UNL1       -0.0350
     13 C           0.8461    0.2031    1.6177 C.ar    1  UNL1       -0.0520
     14 N          -2.1470   -0.4855   -0.2203 N.ar    1  UNL1       -0.2145
     15 C          -2.5714   -1.0164   -1.3815 C.ar    1  UNL1        0.2157
     16 N          -3.9837   -1.0508   -1.6450 N.pl3   1  UNL1       -0.3122
     17 C          -4.8428   -0.4968   -0.6114 C.3     1  UNL1        0.0246
     18 C          -6.2707   -0.6350   -1.0922 C.3     1  UNL1        0.0146
     19 N          -7.2275   -0.1040   -0.1197 N.3     1  UNL1       -0.2965
     20 C          -8.5464   -0.3084   -0.7243 C.3     1  UNL1        0.0225
     21 C          -9.6586    0.1456    0.1848 C.3     1  UNL1        0.0604
     22 O          -9.0981    0.9343    1.1856 O.3     1  UNL1       -0.3772
     23 C          -8.2878    1.9379    0.6247 C.3     1  UNL1        0.0604
     24 C          -7.0683    1.3547   -0.0466 C.3     1  UNL1        0.0225
     25 N          -1.6595   -1.4936   -2.2493 N.ar    1  UNL1       -0.2223
     26 C          -0.3305   -1.4558   -1.9900 C.ar    1  UNL1        0.0404
     27 C           6.3027    0.5969   -1.0486 C.2     1  UNL1        0.2443
     28 O           5.8150    0.9463   -2.1403 O.2     1  UNL1       -0.2702
     29 N           7.7220    0.6480   -0.9803 N.am    1  UNL1       -0.3085
     30 C           8.5694    1.0776   -2.1010 C.3     1  UNL1        0.0235
     31 C           9.9200    1.5872   -1.8433 C.3     1  UNL1       -0.0328
     32 C           9.7765    0.1848   -2.3238 C.3     1  UNL1       -0.0328
     33 H           2.8098   -0.2798    4.0819 H       1  UNL1        0.0278
     34 H           2.0202   -1.5792    3.0248 H       1  UNL1        0.0278
     35 H           3.5995   -1.8520    3.8674 H       1  UNL1        0.0278
     36 H           5.6123   -0.9214    3.2656 H       1  UNL1        0.0621
     37 H           7.0884   -0.2150    1.4355 H       1  UNL1        0.0625
     38 H           3.6715    0.4390   -0.9922 H       1  UNL1        0.0631
     39 H           2.1395   -1.2282   -1.1813 H       1  UNL1        0.0631
     40 H          -1.2361    0.5134    1.9796 H       1  UNL1        0.0639
     41 H           1.2044    0.6261    2.5455 H       1  UNL1        0.0624
     42 H          -4.2982   -1.4689   -2.5561 H       1  UNL1        0.1489
     43 H          -4.6191    0.5701   -0.4188 H       1  UNL1        0.0475
     44 H          -4.7101   -1.0812    0.3216 H       1  UNL1        0.0475
     45 H          -6.4443   -0.1185   -2.0447 H       1  UNL1        0.0442
     46 H          -6.4889   -1.7138   -1.2032 H       1  UNL1        0.0442
     47 H          -8.6115   -1.4185   -0.9110 H       1  UNL1        0.0449
     48 H          -8.5429    0.2369   -1.6805 H       1  UNL1        0.0449
     49 H         -10.4401    0.7012   -0.3732 H       1  UNL1        0.0572
     50 H         -10.0647   -0.7577    0.7107 H       1  UNL1        0.0572
     51 H          -8.0462    2.6369    1.4521 H       1  UNL1        0.0572
     52 H          -8.9081    2.5026   -0.1149 H       1  UNL1        0.0572
     53 H          -6.9870    1.7044   -1.1092 H       1  UNL1        0.0449
     54 H          -6.1270    1.6537    0.4410 H       1  UNL1        0.0449
     55 H           0.3976   -1.8364   -2.6823 H       1  UNL1        0.0837
     56 H           8.2540    0.3843   -0.1312 H       1  UNL1        0.1493
     57 H           7.9627    1.3505   -2.9877 H       1  UNL1        0.0498
     58 H          10.2321    1.7279   -0.7824 H       1  UNL1        0.0284
     59 H          10.2895    2.3604   -2.5482 H       1  UNL1        0.0284
     60 H          10.0075   -0.6134   -1.6007 H       1  UNL1        0.0284
     61 H           9.9740   -0.0729   -3.3687 H       1  UNL1        0.0284
@<TRIPOS>BOND
     1     1     2    1
     2     2     3   ar
     3     3     4   ar
     4     4     5   ar
     5     5     6   ar
     6     6     7   ar
     7     7     8    1
     8     8     9   ar
     9     9    10   ar
    10    10    11   ar
    11    11    12   ar
    12    12    13   ar
    13    11    14   ar
    14    14    15   ar
    15    15    16    1
    16    16    17    1
    17    17    18    1
    18    18    19    1
    19    19    20    1
    20    20    21    1
    21    21    22    1
    22    22    23    1
    23    23    24    1
    24    15    25   ar
    25    25    26   ar
    26     5    27    1
    27    27    28    2
    28    27    29   am
    29    29    30    1
    30    30    31    1
    31    31    32    1
    32     7     2   ar
    33    13     8   ar
    34    24    19    1
    35    32    30    1
    36    26    10   ar
    37     1    33    1
    38     1    34    1
    39     1    35    1
    40     3    36    1
    41     4    37    1
    42     6    38    1
    43     9    39    1
    44    12    40    1
    45    13    41    1
    46    16    42    1
    47    17    43    1
    48    17    44    1
    49    18    45    1
    50    18    46    1
    51    20    47    1
    52    20    48    1
    53    21    49    1
    54    21    50    1
    55    23    51    1
    56    23    52    1
    57    24    53    1
    58    24    54    1
    59    26    55    1
    60    29    56    1
    61    30    57    1
    62    31    58    1
    63    31    59    1
    64    32    60    1
    65    32    61    1
