@<TRIPOS>MOLECULE
*****
 30 31 0 0 0
SMALL
GASTEIGER

@<TRIPOS>ATOM
      1 C           0.1205    2.6240   -0.5463 C.3     1  UNL1       -0.0598
      2 C           0.6539    1.9312    0.6623 C.3     1  UNL1       -0.0124
      3 C           1.2946    0.6123    0.3465 C.ar    1  UNL1        0.0556
      4 N           2.6288    0.4575    0.3198 N.ar    1  UNL1       -0.2190
      5 C           3.2299   -0.7248    0.0373 C.ar    1  UNL1        0.2145
      6 N           4.6427   -0.8372    0.0215 N.pl3   1  UNL1       -0.3274
      7 N           2.4574   -1.8005   -0.2304 N.ar    1  UNL1       -0.1995
      8 C           1.1377   -1.7339   -0.2249 C.ar    1  UNL1        0.1293
      9 N           0.2645   -2.8181   -0.4950 N.pl3   1  UNL1       -0.3425
     10 C           0.5313   -0.5025    0.0694 C.ar    1  UNL1        0.0430
     11 C          -0.9022   -0.3505    0.0934 C.ar    1  UNL1       -0.0128
     12 C          -1.5737   -0.0091   -1.0542 C.ar    1  UNL1       -0.0528
     13 C          -2.9666    0.1448   -1.0504 C.ar    1  UNL1       -0.0472
     14 C          -3.6679   -0.0485    0.1167 C.ar    1  UNL1        0.0179
     15 BR         -5.5711    0.1533    0.1578 Br      1  UNL1       -0.0503
     16 C          -2.9777   -0.3885    1.2491 C.ar    1  UNL1       -0.0472
     17 C          -1.5902   -0.5451    1.2597 C.ar    1  UNL1       -0.0528
     18 H          -0.9854    2.7733   -0.5071 H       1  UNL1        0.0233
     19 H           0.5628    3.6333   -0.6078 H       1  UNL1        0.0233
     20 H           0.4417    2.0801   -1.4586 H       1  UNL1        0.0233
     21 H          -0.1578    1.7951    1.4146 H       1  UNL1        0.0326
     22 H           1.4016    2.5876    1.1503 H       1  UNL1        0.0326
     23 H           5.2413   -0.0542   -0.3007 H       1  UNL1        0.1452
     24 H           5.1065   -1.7116    0.3344 H       1  UNL1        0.1452
     25 H           0.5131   -3.4904   -1.2460 H       1  UNL1        0.1437
     26 H          -0.6211   -2.9782    0.0244 H       1  UNL1        0.1437
     27 H          -1.0956    0.1609   -2.0144 H       1  UNL1        0.0624
     28 H          -3.5230    0.4116   -1.9323 H       1  UNL1        0.0629
     29 H          -3.4866   -0.5535    2.2046 H       1  UNL1        0.0629
     30 H          -1.1094   -0.8185    2.2062 H       1  UNL1        0.0624
@<TRIPOS>BOND
     1     1     2    1
     2     2     3    1
     3     3     4   ar
     4     4     5   ar
     5     5     6    1
     6     5     7   ar
     7     7     8   ar
     8     8     9    1
     9     8    10   ar
    10    10    11    1
    11    11    12   ar
    12    12    13   ar
    13    13    14   ar
    14    14    15    1
    15    14    16   ar
    16    16    17   ar
    17    10     3   ar
    18    17    11   ar
    19     1    18    1
    20     1    19    1
    21     1    20    1
    22     2    21    1
    23     2    22    1
    24     6    23    1
    25     6    24    1
    26     9    25    1
    27     9    26    1
    28    12    27    1
    29    13    28    1
    30    16    29    1
    31    17    30    1
