
     RDKit          3D

 30 31  0  0  0  0  0  0  0  0999 V2000
    0.1205    2.6240   -0.5463 C   0  0  0  0  0  0  0  0  0  0  0  0
    0.6539    1.9312    0.6623 C   0  0  0  0  0  0  0  0  0  0  0  0
    1.2946    0.6123    0.3465 C   0  0  0  0  0  0  0  0  0  0  0  0
    2.6288    0.4575    0.3198 N   0  0  0  0  0  0  0  0  0  0  0  0
    3.2299   -0.7248    0.0373 C   0  0  0  0  0  0  0  0  0  0  0  0
    4.6427   -0.8372    0.0215 N   0  0  0  0  0  0  0  0  0  0  0  0
    2.4574   -1.8005   -0.2304 N   0  0  0  0  0  0  0  0  0  0  0  0
    1.1377   -1.7339   -0.2249 C   0  0  0  0  0  0  0  0  0  0  0  0
    0.2645   -2.8181   -0.4950 N   0  0  0  0  0  0  0  0  0  0  0  0
    0.5313   -0.5025    0.0694 C   0  0  0  0  0  0  0  0  0  0  0  0
   -0.9022   -0.3505    0.0934 C   0  0  0  0  0  0  0  0  0  0  0  0
   -1.5737   -0.0091   -1.0542 C   0  0  0  0  0  0  0  0  0  0  0  0
   -2.9666    0.1448   -1.0504 C   0  0  0  0  0  0  0  0  0  0  0  0
   -3.6679   -0.0485    0.1167 C   0  0  0  0  0  0  0  0  0  0  0  0
   -5.5711    0.1533    0.1578 Br  0  0  0  0  0  0  0  0  0  0  0  0
   -2.9777   -0.3885    1.2491 C   0  0  0  0  0  0  0  0  0  0  0  0
   -1.5902   -0.5451    1.2597 C   0  0  0  0  0  0  0  0  0  0  0  0
   -0.9854    2.7733   -0.5071 H   0  0  0  0  0  0  0  0  0  0  0  0
    0.5628    3.6333   -0.6078 H   0  0  0  0  0  0  0  0  0  0  0  0
    0.4417    2.0801   -1.4586 H   0  0  0  0  0  0  0  0  0  0  0  0
   -0.1578    1.7951    1.4146 H   0  0  0  0  0  0  0  0  0  0  0  0
    1.4016    2.5876    1.1503 H   0  0  0  0  0  0  0  0  0  0  0  0
    5.2413   -0.0542   -0.3007 H   0  0  0  0  0  0  0  0  0  0  0  0
    5.1065   -1.7116    0.3344 H   0  0  0  0  0  0  0  0  0  0  0  0
    0.5131   -3.4904   -1.2460 H   0  0  0  0  0  0  0  0  0  0  0  0
   -0.6211   -2.9782    0.0244 H   0  0  0  0  0  0  0  0  0  0  0  0
   -1.0956    0.1609   -2.0144 H   0  0  0  0  0  0  0  0  0  0  0  0
   -3.5230    0.4116   -1.9323 H   0  0  0  0  0  0  0  0  0  0  0  0
   -3.4866   -0.5535    2.2046 H   0  0  0  0  0  0  0  0  0  0  0  0
   -1.1094   -0.8185    2.2062 H   0  0  0  0  0  0  0  0  0  0  0  0
  1  2  1  0
  2  3  1  0
  3  4  2  0
  4  5  1  0
  5  6  1  0
  5  7  2  0
  7  8  1  0
  8  9  1  0
  8 10  2  0
 10 11  1  0
 11 12  2  0
 12 13  1  0
 13 14  2  0
 14 15  1  0
 14 16  1  0
 16 17  2  0
 10  3  1  0
 17 11  1  0
  1 18  1  0
  1 19  1  0
  1 20  1  0
  2 21  1  0
  2 22  1  0
  6 23  1  0
  6 24  1  0
  9 25  1  0
  9 26  1  0
 12 27  1  0
 13 28  1  0
 16 29  1  0
 17 30  1  0
M  END
$$$$
