@<TRIPOS>MOLECULE
*****
 49 51 0 0 0
SMALL
GASTEIGER

@<TRIPOS>ATOM
      1 C           6.6996    1.2396    2.2386 C.3     1  UNL1       -0.0306
      2 C           5.6583    0.2195    2.6746 C.3     1  UNL1        0.0900
      3 O           4.7040    0.0066    1.6287 O.3     1  UNL1       -0.4618
      4 C           5.0632   -0.4578    0.3869 C.2     1  UNL1        0.3319
      5 O           6.2525   -0.7097    0.1388 O.2     1  UNL1       -0.2456
      6 C           4.0464   -0.6515   -0.6302 C.2     1  UNL1        0.0232
      7 C           2.7555   -0.4006   -0.4251 C.2     1  UNL1       -0.0438
      8 C           1.6870   -0.5592   -1.3610 C.ar    1  UNL1        0.0246
      9 C           1.8665   -0.9797   -2.6477 C.ar    1  UNL1        0.1278
     10 O           3.1221   -1.2770   -3.1314 O.3     1  UNL1       -0.4945
     11 C           3.3374   -1.7109   -4.4486 C.3     1  UNL1        0.0788
     12 C           0.7726   -1.1226   -3.5222 C.ar    1  UNL1       -0.0188
     13 C          -0.4863   -0.8374   -3.0813 C.ar    1  UNL1       -0.0505
     14 C          -0.7059   -0.4104   -1.7898 C.ar    1  UNL1       -0.0165
     15 C          -1.9867   -0.1279   -1.3619 C.ar    1  UNL1       -0.0463
     16 C          -2.2695    0.3001   -0.0867 C.ar    1  UNL1       -0.0172
     17 C          -3.6322    0.5907    0.3309 C.ar    1  UNL1       -0.0144
     18 C          -4.5674    1.0802   -0.5489 C.ar    1  UNL1       -0.0538
     19 C          -5.8714    1.3592   -0.1541 C.ar    1  UNL1       -0.0577
     20 C          -6.2375    1.1384    1.1586 C.ar    1  UNL1       -0.0199
     21 C          -5.3144    0.6478    2.0564 C.ar    1  UNL1        0.1207
     22 O          -5.6960    0.4310    3.3704 O.3     1  UNL1       -0.4951
     23 C          -6.9751    0.6778    3.8644 C.3     1  UNL1        0.0788
     24 C          -4.0093    0.3745    1.6376 C.ar    1  UNL1       -0.0122
     25 C          -1.1925    0.4346    0.7551 C.ar    1  UNL1       -0.0534
     26 C           0.1207    0.1544    0.3467 C.ar    1  UNL1       -0.0528
     27 C           0.3765   -0.2716   -0.9325 C.ar    1  UNL1       -0.0072
     28 H           6.2012    1.9763    1.5945 H       1  UNL1        0.0262
     29 H           7.5018    0.7303    1.6468 H       1  UNL1        0.0262
     30 H           7.1775    1.6802    3.1190 H       1  UNL1        0.0262
     31 H           6.1935   -0.6976    2.9499 H       1  UNL1        0.0695
     32 H           5.1267    0.5810    3.5853 H       1  UNL1        0.0695
     33 H           4.3697   -1.0139   -1.5719 H       1  UNL1        0.0689
     34 H           2.6044   -0.0333    0.6105 H       1  UNL1        0.0627
     35 H           2.8231   -2.6727   -4.6358 H       1  UNL1        0.0660
     36 H           4.4169   -1.8174   -4.5947 H       1  UNL1        0.0660
     37 H           2.9718   -0.9076   -5.1378 H       1  UNL1        0.0660
     38 H           0.9951   -1.4624   -4.5292 H       1  UNL1        0.0654
     39 H          -1.3479   -0.9426   -3.7465 H       1  UNL1        0.0625
     40 H          -2.8093   -0.2508   -2.0689 H       1  UNL1        0.0630
     41 H          -4.2514    1.2434   -1.5728 H       1  UNL1        0.0624
     42 H          -6.6000    1.7473   -0.8643 H       1  UNL1        0.0619
     43 H          -7.2444    1.3422    1.5082 H       1  UNL1        0.0654
     44 H          -7.1453    1.7943    3.8817 H       1  UNL1        0.0660
     45 H          -7.0079    0.3633    4.9316 H       1  UNL1        0.0660
     46 H          -7.7621    0.1757    3.2694 H       1  UNL1        0.0660
     47 H          -3.3097   -0.0083    2.3627 H       1  UNL1        0.0660
     48 H          -1.3419    0.7620    1.7587 H       1  UNL1        0.0624
     49 H           0.9201    0.2741    1.0375 H       1  UNL1        0.0624
@<TRIPOS>BOND
     1     1     2    1
     2     2     3    1
     3     3     4    1
     4     4     5    2
     5     4     6    1
     6     6     7    2
     7     7     8    1
     8     8     9   ar
     9     9    10    1
    10    10    11    1
    11     9    12   ar
    12    12    13   ar
    13    13    14   ar
    14    14    15   ar
    15    15    16   ar
    16    16    17    1
    17    17    18   ar
    18    18    19   ar
    19    19    20   ar
    20    20    21   ar
    21    21    22    1
    22    22    23    1
    23    21    24   ar
    24    16    25   ar
    25    25    26   ar
    26    26    27   ar
    27    27     8   ar
    28    27    14   ar
    29    24    17   ar
    30     1    28    1
    31     1    29    1
    32     1    30    1
    33     2    31    1
    34     2    32    1
    35     6    33    1
    36     7    34    1
    37    11    35    1
    38    11    36    1
    39    11    37    1
    40    12    38    1
    41    13    39    1
    42    15    40    1
    43    18    41    1
    44    19    42    1
    45    20    43    1
    46    23    44    1
    47    23    45    1
    48    23    46    1
    49    24    47    1
    50    25    48    1
    51    26    49    1
