@<TRIPOS>MOLECULE
*****
 24 25 0 0 0
SMALL
GASTEIGER

@<TRIPOS>ATOM
      1 O           2.2086   -1.2913   -1.5696 O.3     1  UNL1       -0.2930
      2 P           2.7750   -0.3930   -0.2540 P.3     1  UNL1        0.5280
      3 O           2.4394   -1.2513    1.1648 O.3     1  UNL1       -0.2930
      4 O           4.2570   -0.3107   -0.3987 O.2     1  UNL1       -0.2156
      5 O           2.0303    1.1311   -0.1305 O.3     1  UNL1       -0.4018
      6 C           0.6683    1.3213    0.0038 C.ar    1  UNL1        0.1579
      7 C           0.3188    2.6689    0.0841 C.ar    1  UNL1       -0.0172
      8 C          -1.0096    3.0769    0.2229 C.ar    1  UNL1       -0.0576
      9 C          -1.9680    2.1043    0.2782 C.ar    1  UNL1       -0.0523
     10 C          -1.6647    0.7652    0.2025 C.ar    1  UNL1        0.0041
     11 C          -2.5744   -0.2734    0.2510 C.ar    1  UNL1       -0.0498
     12 C          -2.1453   -1.5930    0.1642 C.ar    1  UNL1       -0.0252
     13 C          -0.7951   -1.9256    0.0261 C.ar    1  UNL1        0.1409
     14 N           0.0702   -0.8834   -0.0181 N.ar    1  UNL1       -0.2327
     15 C          -0.3468    0.3911    0.0660 C.ar    1  UNL1        0.1145
     16 C          -0.3571   -3.2891   -0.0631 C.1     1  UNL1        0.1191
     17 N          -0.0208   -4.3964   -0.1322 N.1     1  UNL1       -0.1893
     18 H           2.8626   -1.3605   -2.3053 H       1  UNL1        0.2231
     19 H           3.0288   -2.0572    1.1270 H       1  UNL1        0.2231
     20 H           1.0368    3.5021    0.0463 H       1  UNL1        0.0655
     21 H          -1.2980    4.1147    0.2865 H       1  UNL1        0.0619
     22 H          -3.0142    2.3515    0.3849 H       1  UNL1        0.0624
     23 H          -3.6188   -0.0085    0.3581 H       1  UNL1        0.0625
     24 H          -2.8831   -2.3938    0.2050 H       1  UNL1        0.0646
@<TRIPOS>BOND
     1     1     2    1
     2     2     3    1
     3     2     4    2
     4     2     5    1
     5     5     6    1
     6     6     7   ar
     7     7     8   ar
     8     8     9   ar
     9     9    10   ar
    10    10    11   ar
    11    11    12   ar
    12    12    13   ar
    13    13    14   ar
    14    14    15   ar
    15    13    16    1
    16    16    17    3
    17    15     6   ar
    18    15    10   ar
    19     1    18    1
    20     3    19    1
    21     7    20    1
    22     8    21    1
    23     9    22    1
    24    11    23    1
    25    12    24    1
