
     RDKit          3D

 24 25  0  0  0  0  0  0  0  0999 V2000
    2.2086   -1.2913   -1.5696 O   0  0  0  0  0  0  0  0  0  0  0  0
    2.7750   -0.3930   -0.2540 P   0  0  0  0  0  0  0  0  0  0  0  0
    2.4394   -1.2513    1.1648 O   0  0  0  0  0  0  0  0  0  0  0  0
    4.2570   -0.3107   -0.3987 O   0  0  0  0  0  0  0  0  0  0  0  0
    2.0303    1.1311   -0.1305 O   0  0  0  0  0  0  0  0  0  0  0  0
    0.6683    1.3213    0.0038 C   0  0  0  0  0  0  0  0  0  0  0  0
    0.3188    2.6689    0.0841 C   0  0  0  0  0  0  0  0  0  0  0  0
   -1.0096    3.0769    0.2229 C   0  0  0  0  0  0  0  0  0  0  0  0
   -1.9680    2.1043    0.2782 C   0  0  0  0  0  0  0  0  0  0  0  0
   -1.6647    0.7652    0.2025 C   0  0  0  0  0  0  0  0  0  0  0  0
   -2.5744   -0.2734    0.2510 C   0  0  0  0  0  0  0  0  0  0  0  0
   -2.1453   -1.5930    0.1642 C   0  0  0  0  0  0  0  0  0  0  0  0
   -0.7951   -1.9256    0.0261 C   0  0  0  0  0  0  0  0  0  0  0  0
    0.0702   -0.8834   -0.0181 N   0  0  0  0  0  0  0  0  0  0  0  0
   -0.3468    0.3911    0.0660 C   0  0  0  0  0  0  0  0  0  0  0  0
   -0.3571   -3.2891   -0.0631 C   0  0  0  0  0  0  0  0  0  0  0  0
   -0.0208   -4.3964   -0.1322 N   0  0  0  0  0  0  0  0  0  0  0  0
    2.8626   -1.3605   -2.3053 H   0  0  0  0  0  0  0  0  0  0  0  0
    3.0288   -2.0572    1.1270 H   0  0  0  0  0  0  0  0  0  0  0  0
    1.0368    3.5021    0.0463 H   0  0  0  0  0  0  0  0  0  0  0  0
   -1.2980    4.1147    0.2865 H   0  0  0  0  0  0  0  0  0  0  0  0
   -3.0142    2.3515    0.3849 H   0  0  0  0  0  0  0  0  0  0  0  0
   -3.6188   -0.0085    0.3581 H   0  0  0  0  0  0  0  0  0  0  0  0
   -2.8831   -2.3938    0.2050 H   0  0  0  0  0  0  0  0  0  0  0  0
  1  2  1  0
  2  3  1  0
  2  4  2  0
  2  5  1  0
  5  6  1  0
  6  7  2  0
  7  8  1  0
  8  9  2  0
  9 10  1  0
 10 11  2  0
 11 12  1  0
 12 13  2  0
 13 14  1  0
 14 15  2  0
 13 16  1  0
 16 17  3  0
 15  6  1  0
 15 10  1  0
  1 18  1  0
  3 19  1  0
  7 20  1  0
  8 21  1  0
  9 22  1  0
 11 23  1  0
 12 24  1  0
M  END
$$$$
