@<TRIPOS>MOLECULE
*****
 80 83 0 0 0
SMALL
GASTEIGER

@<TRIPOS>ATOM
      1 C           1.2843   -0.0837   -0.8715 C.3     1  UNL1       -0.0304
      2 C           1.5919    1.1756   -0.0860 C.3     1  UNL1       -0.0491
      3 C           0.2608    1.8021    0.2818 C.3     1  UNL1       -0.0490
      4 C          -0.6507    0.6520    0.1644 C.3     1  UNL1       -0.0276
      5 C          -2.1089    0.9579    0.1593 C.3     1  UNL1       -0.0081
      6 C          -2.5126    1.4252    1.5373 C.3     1  UNL1        0.0589
      7 O          -2.1892    0.4457    2.4951 O.3     1  UNL1       -0.3915
      8 C          -3.9753    1.7174    1.5315 C.3     1  UNL1       -0.0232
      9 C          -4.7337    1.1985    0.3424 C.3     1  UNL1       -0.0307
     10 C          -6.1952    1.3735    0.5808 C.3     1  UNL1       -0.0234
     11 C          -6.9058    0.2140    1.1911 C.3     1  UNL1        0.0555
     12 O          -7.6732    0.5944    2.2979 O.3     1  UNL1       -0.3918
     13 C          -6.0309   -0.9348    1.5933 C.3     1  UNL1       -0.0263
     14 C          -5.0119   -1.3075    0.5738 C.3     1  UNL1       -0.0448
     15 C          -4.3229   -0.1612   -0.1066 C.3     1  UNL1       -0.0257
     16 C          -4.6882   -0.2422   -1.5921 C.3     1  UNL1       -0.0590
     17 C          -2.8466   -0.3405   -0.0317 C.3     1  UNL1       -0.0276
     18 C          -2.3215   -1.1798   -1.1704 C.3     1  UNL1       -0.0226
     19 C          -0.8449   -1.4077   -1.0400 C.3     1  UNL1        0.0614
     20 O          -0.5441   -1.9885    0.1861 O.3     1  UNL1       -0.3912
     21 C          -0.1869   -0.0455   -1.1135 C.3     1  UNL1        0.0001
     22 C          -0.6229    0.6233   -2.3655 C.3     1  UNL1       -0.0567
     23 C           2.1916   -0.1525   -2.0213 C.3     1  UNL1       -0.0400
     24 C           2.0348   -1.3359   -2.9309 C.3     1  UNL1       -0.0621
     25 C           3.6152   -0.0546   -1.5030 C.3     1  UNL1       -0.0419
     26 C           3.9909   -1.1558   -0.5435 C.3     1  UNL1        0.0242
     27 C           5.4237   -0.8725   -0.1624 C.2     1  UNL1        0.2131
     28 O           5.8238    0.1542   -0.7498 O.2     1  UNL1       -0.2758
     29 N           6.1592   -1.6905    0.7389 N.am    1  UNL1       -0.3137
     30 C           7.5206   -1.3392    1.0410 C.3     1  UNL1        0.0334
     31 C           7.5586    0.0421    1.6598 C.3     1  UNL1        0.1081
     32 S           9.2748    0.4296    2.0161 S.O2    1  UNL1        0.0812
     33 O           9.3729    1.9551    2.7056 O.3     1  UNL1       -0.2539
     34 O          10.0406    0.3800    0.7204 O.2     1  UNL1       -0.1473
     35 O           9.8552   -0.5898    2.9525 O.2     1  UNL1       -0.1473
     36 H           1.5106   -0.9661   -0.2048 H       1  UNL1        0.0310
     37 H           2.1023    1.9408   -0.7079 H       1  UNL1        0.0268
     38 H           2.1467    0.9502    0.8493 H       1  UNL1        0.0268
     39 H          -0.0014    2.6715   -0.3523 H       1  UNL1        0.0268
     40 H           0.2813    2.1058    1.3684 H       1  UNL1        0.0268
     41 H          -0.4354   -0.0512    0.9878 H       1  UNL1        0.0310
     42 H          -2.4031    1.7651   -0.5220 H       1  UNL1        0.0331
     43 H          -1.8944    2.3341    1.7656 H       1  UNL1        0.0596
     44 H          -2.8307    0.4314    3.2406 H       1  UNL1        0.2098
     45 H          -4.4327    1.4018    2.5079 H       1  UNL1        0.0293
     46 H          -4.0818    2.8306    1.5295 H       1  UNL1        0.0293
     47 H          -4.4764    1.9070   -0.5002 H       1  UNL1        0.0308
     48 H          -6.7181    1.7066   -0.3601 H       1  UNL1        0.0293
     49 H          -6.3227    2.2483    1.2799 H       1  UNL1        0.0293
     50 H          -7.6460   -0.1912    0.4406 H       1  UNL1        0.0593
     51 H          -7.9323    1.5361    2.1462 H       1  UNL1        0.2098
     52 H          -6.7221   -1.8201    1.7129 H       1  UNL1        0.0290
     53 H          -5.5653   -0.8144    2.6060 H       1  UNL1        0.0290
     54 H          -4.2573   -1.9471    1.1018 H       1  UNL1        0.0271
     55 H          -5.4822   -2.0240   -0.1599 H       1  UNL1        0.0271
     56 H          -5.7902   -0.0039   -1.6103 H       1  UNL1        0.0235
     57 H          -4.1451    0.5046   -2.1991 H       1  UNL1        0.0235
     58 H          -4.5716   -1.2828   -1.9088 H       1  UNL1        0.0235
     59 H          -2.6353   -0.9524    0.8921 H       1  UNL1        0.0310
     60 H          -2.5810   -0.8094   -2.1602 H       1  UNL1        0.0293
     61 H          -2.8051   -2.1768   -1.0661 H       1  UNL1        0.0293
     62 H          -0.5428   -2.0669   -1.8742 H       1  UNL1        0.0599
     63 H          -0.5458   -2.9846    0.1513 H       1  UNL1        0.2098
     64 H          -1.6174    1.1033   -2.2852 H       1  UNL1        0.0236
     65 H           0.0597    1.4470   -2.6792 H       1  UNL1        0.0236
     66 H          -0.7400   -0.1557   -3.1523 H       1  UNL1        0.0236
     67 H           2.0535    0.7539   -2.6476 H       1  UNL1        0.0301
     68 H           1.3817   -1.1113   -3.8014 H       1  UNL1        0.0233
     69 H           3.0497   -1.4965   -3.4055 H       1  UNL1        0.0233
     70 H           1.8101   -2.2821   -2.4269 H       1  UNL1        0.0233
     71 H           3.8043    0.9097   -0.9970 H       1  UNL1        0.0272
     72 H           4.3207   -0.0435   -2.3848 H       1  UNL1        0.0272
     73 H           3.8344   -2.1674   -0.9115 H       1  UNL1        0.0358
     74 H           3.4407   -1.0588    0.4153 H       1  UNL1        0.0358
     75 H           5.6608   -2.5310    1.1498 H       1  UNL1        0.1487
     76 H           8.1711   -1.3364    0.1430 H       1  UNL1        0.0479
     77 H           7.9208   -2.0409    1.7733 H       1  UNL1        0.0479
     78 H           7.0074    0.0330    2.6386 H       1  UNL1        0.0541
     79 H           7.2103    0.8450    1.0005 H       1  UNL1        0.0541
     80 H           9.7763    2.6305    2.0946 H       1  UNL1        0.2445
@<TRIPOS>BOND
     1     1     2    1
     2     2     3    1
     3     3     4    1
     4     4     5    1
     5     5     6    1
     6     6     7    1
     7     6     8    1
     8     8     9    1
     9     9    10    1
    10    10    11    1
    11    11    12    1
    12    11    13    1
    13    13    14    1
    14    14    15    1
    15    15    16    1
    16    15    17    1
    17    17    18    1
    18    18    19    1
    19    19    20    1
    20    19    21    1
    21    21    22    1
    22     1    23    1
    23    23    24    1
    24    23    25    1
    25    25    26    1
    26    26    27    1
    27    27    28    2
    28    27    29   am
    29    29    30    1
    30    30    31    1
    31    31    32    1
    32    32    33    1
    33    32    34    2
    34    32    35    2
    35    21     1    1
    36    21     4    1
    37    17     5    1
    38    15     9    1
    39     1    36    1
    40     2    37    1
    41     2    38    1
    42     3    39    1
    43     3    40    1
    44     4    41    1
    45     5    42    1
    46     6    43    1
    47     7    44    1
    48     8    45    1
    49     8    46    1
    50     9    47    1
    51    10    48    1
    52    10    49    1
    53    11    50    1
    54    12    51    1
    55    13    52    1
    56    13    53    1
    57    14    54    1
    58    14    55    1
    59    16    56    1
    60    16    57    1
    61    16    58    1
    62    17    59    1
    63    18    60    1
    64    18    61    1
    65    19    62    1
    66    20    63    1
    67    22    64    1
    68    22    65    1
    69    22    66    1
    70    23    67    1
    71    24    68    1
    72    24    69    1
    73    24    70    1
    74    25    71    1
    75    25    72    1
    76    26    73    1
    77    26    74    1
    78    29    75    1
    79    30    76    1
    80    30    77    1
    81    31    78    1
    82    31    79    1
    83    33    80    1
