
     RDKit          3D

 35 38  0  0  0  0  0  0  0  0999 V2000
   -4.0681   -0.9423    0.6487 C   0  0  0  0  0  0  0  0  0  0  0  0
   -3.3457    0.3189    0.9307 C   0  0  0  0  0  0  0  0  0  0  0  0
   -3.6433    1.2814    1.8259 N   0  0  0  0  0  0  0  0  0  0  0  0
   -2.7459    2.2488    1.8490 N   0  0  0  0  0  0  0  0  0  0  0  0
   -1.7777    1.9820    0.9512 C   0  0  0  0  0  0  0  0  0  0  0  0
   -0.5118    2.7426    0.5963 C   0  0  0  0  0  0  0  0  0  0  0  0
    0.6646    1.8720    0.6843 N   0  0  0  0  0  0  0  0  0  0  0  0
    0.8711    0.6992    0.1476 C   0  0  0  0  0  0  0  0  0  0  0  0
    2.1108   -0.0121    0.3587 C   0  0  0  0  0  0  0  0  0  0  0  0
    3.0238    0.8285    1.0171 C   0  0  0  0  0  0  0  0  0  0  0  0
    4.2907    0.4051    1.4168 C   0  0  0  0  0  0  0  0  0  0  0  0
    4.6998   -0.8864    1.1727 C   0  0  0  0  0  0  0  0  0  0  0  0
    3.8141   -1.7214    0.5290 C   0  0  0  0  0  0  0  0  0  0  0  0
    2.5776   -1.2507    0.1586 C   0  0  0  0  0  0  0  0  0  0  0  0
   -0.1063    0.0729   -0.7531 C   0  0  0  0  0  0  0  0  0  0  0  0
   -1.4909    0.1110   -0.6137 C   0  0  0  0  0  0  0  0  0  0  0  0
   -2.3783   -0.4949   -1.4935 C   0  0  0  0  0  0  0  0  0  0  0  0
   -1.7671   -1.1704   -2.5619 C   0  0  0  0  0  0  0  0  0  0  0  0
   -0.3744   -1.2062   -2.7004 C   0  0  0  0  0  0  0  0  0  0  0  0
    0.4364   -2.0340   -4.0120 Cl  0  0  0  0  0  0  0  0  0  0  0  0
    0.4861   -0.5934   -1.8152 C   0  0  0  0  0  0  0  0  0  0  0  0
   -2.2105    0.7991    0.4327 N   0  0  0  0  0  0  0  0  0  0  0  0
   -5.0352   -0.8542    0.1682 H   0  0  0  0  0  0  0  0  0  0  0  0
   -4.3756   -1.3004    1.6942 H   0  0  0  0  0  0  0  0  0  0  0  0
   -3.4269   -1.8007    0.3617 H   0  0  0  0  0  0  0  0  0  0  0  0
   -0.3649    3.4872    1.3997 H   0  0  0  0  0  0  0  0  0  0  0  0
   -0.5687    3.1727   -0.3966 H   0  0  0  0  0  0  0  0  0  0  0  0
    2.8747    1.8845    1.2953 H   0  0  0  0  0  0  0  0  0  0  0  0
    5.0112    1.0231    1.9216 H   0  0  0  0  0  0  0  0  0  0  0  0
    5.6448   -1.3418    1.4247 H   0  0  0  0  0  0  0  0  0  0  0  0
    4.0376   -2.7480    0.2921 H   0  0  0  0  0  0  0  0  0  0  0  0
    1.8742   -1.9038   -0.2887 H   0  0  0  0  0  0  0  0  0  0  0  0
   -3.4388   -0.4389   -1.4409 H   0  0  0  0  0  0  0  0  0  0  0  0
   -2.3406   -1.6903   -3.3216 H   0  0  0  0  0  0  0  0  0  0  0  0
    1.5533   -0.5387   -1.8793 H   0  0  0  0  0  0  0  0  0  0  0  0
  1  2  1  0
  2  3  2  0
  3  4  1  0
  4  5  2  0
  5  6  1  0
  6  7  1  0
  7  8  2  0
  8  9  1  0
  9 10  2  0
 10 11  1  0
 11 12  2  0
 12 13  1  0
 13 14  2  0
  8 15  1  0
 15 16  2  0
 16 17  1  0
 17 18  2  0
 18 19  1  0
 19 20  1  0
 19 21  2  0
 16 22  1  0
 22  2  1  0
 22  5  1  0
 14  9  1  0
 21 15  1  0
  1 23  1  0
  1 24  1  0
  1 25  1  0
  6 26  1  0
  6 27  1  0
 10 28  1  0
 11 29  1  0
 12 30  1  0
 13 31  1  0
 14 32  1  0
 17 33  1  0
 18 34  1  0
 21 35  1  0
M  END
$$$$
