@<TRIPOS>MOLECULE
*****
 58 62 0 0 0
SMALL
GASTEIGER

@<TRIPOS>ATOM
      1 C           4.8999   -1.1424   -1.4654 C.3     1  UNL1       -0.0391
      2 C           5.4284   -0.3496   -0.3255 C.ar    1  UNL1       -0.0401
      3 C           4.6044    0.1537    0.6433 C.ar    1  UNL1       -0.0428
      4 C           3.1371   -0.0709    0.5922 C.3     1  UNL1       -0.0146
      5 C           2.5483    0.8399   -0.4353 C.3     1  UNL1        0.0030
      6 N           1.1325    0.7414   -0.6131 N.3     1  UNL1       -0.2990
      7 C           0.8301   -0.5441   -1.1909 C.3     1  UNL1        0.0148
      8 C          -0.6381   -0.6089   -1.5377 C.3     1  UNL1        0.0275
      9 N          -1.3785   -0.3147   -0.3354 N.am    1  UNL1       -0.2988
     10 C          -2.7847   -0.3692   -0.3624 C.2     1  UNL1        0.2200
     11 O          -3.4038   -0.6748   -1.4227 O.2     1  UNL1       -0.2752
     12 C          -3.5648   -0.0688    0.8480 C.3     1  UNL1        0.0507
     13 C          -5.0308   -0.1601    0.6110 C.ar    1  UNL1       -0.0204
     14 C          -5.7435    0.9615    0.1832 C.ar    1  UNL1       -0.0532
     15 C          -7.1021    0.8807   -0.0353 C.ar    1  UNL1       -0.0170
     16 C          -7.8155   -0.2959    0.1551 C.ar    1  UNL1        0.1573
     17 N          -9.2186   -0.3565   -0.0746 N.ar    1  UNL1       -0.1823
     18 C         -10.0843    0.6428   -0.2934 C.ar    1  UNL1        0.1453
     19 N         -11.3205    0.1478   -0.4625 N.ar    1  UNL1       -0.1164
     20 N         -11.1995   -1.1635   -0.3445 N.ar    1  UNL1       -0.0229
     21 N          -9.9347   -1.4541   -0.1120 N.ar    1  UNL1       -0.0378
     22 N          -7.1088   -1.3616    0.5666 N.ar    1  UNL1       -0.2358
     23 C          -5.7705   -1.3077    0.7888 C.ar    1  UNL1        0.0336
     24 C          -0.6839    0.0341    0.8531 C.3     1  UNL1        0.0275
     25 C           0.4469    1.0092    0.5976 C.3     1  UNL1        0.0148
     26 C           5.1472    0.8871    1.6802 C.ar    1  UNL1       -0.0575
     27 C           6.4951    1.1126    1.7448 C.ar    1  UNL1       -0.0471
     28 C           7.3301    0.6095    0.7740 C.ar    1  UNL1        0.0656
     29 C           6.8034   -0.1215   -0.2620 C.ar    1  UNL1        0.0068
     30 C           7.8923   -0.5521   -1.1684 C.3     1  UNL1        0.1189
     31 O           9.0623   -0.0214   -0.6002 O.3     1  UNL1       -0.4564
     32 C           8.7876    0.6711    0.5516 C.2     1  UNL1        0.3399
     33 O           9.5865    1.2725    1.3242 O.2     1  UNL1       -0.2449
     34 H           5.6484   -1.9661   -1.6412 H       1  UNL1        0.0278
     35 H           4.8740   -0.5409   -2.4167 H       1  UNL1        0.0278
     36 H           3.9294   -1.6221   -1.2562 H       1  UNL1        0.0278
     37 H           2.7724    0.0994    1.6301 H       1  UNL1        0.0326
     38 H           2.8685   -1.1262    0.3490 H       1  UNL1        0.0326
     39 H           2.8349    1.8928   -0.1676 H       1  UNL1        0.0430
     40 H           3.0308    0.6173   -1.4220 H       1  UNL1        0.0430
     41 H           1.4046   -0.6289   -2.1353 H       1  UNL1        0.0442
     42 H           1.0392   -1.3850   -0.4991 H       1  UNL1        0.0442
     43 H          -0.9108    0.2159   -2.2618 H       1  UNL1        0.0477
     44 H          -0.9208   -1.5880   -1.9730 H       1  UNL1        0.0477
     45 H          -3.2910    0.9333    1.2674 H       1  UNL1        0.0407
     46 H          -3.2640   -0.8020    1.6209 H       1  UNL1        0.0407
     47 H          -5.2033    1.8803    0.0317 H       1  UNL1        0.0622
     48 H          -7.6778    1.7456   -0.3691 H       1  UNL1        0.0655
     49 H          -9.8194    1.6855   -0.3267 H       1  UNL1        0.1068
     50 H          -5.2352   -2.2030    1.1243 H       1  UNL1        0.0833
     51 H          -1.3788    0.3940    1.6219 H       1  UNL1        0.0477
     52 H          -0.2198   -0.8951    1.2611 H       1  UNL1        0.0477
     53 H           1.0785    1.1131    1.4858 H       1  UNL1        0.0442
     54 H          -0.0629    2.0130    0.4774 H       1  UNL1        0.0442
     55 H           4.5075    1.2809    2.4366 H       1  UNL1        0.0621
     56 H           6.9080    1.6865    2.5573 H       1  UNL1        0.0626
     57 H           7.9772   -1.6735   -1.1684 H       1  UNL1        0.0749
     58 H           7.7609   -0.1530   -2.1971 H       1  UNL1        0.0749
@<TRIPOS>BOND
     1     1     2    1
     2     2     3   ar
     3     3     4    1
     4     4     5    1
     5     5     6    1
     6     6     7    1
     7     7     8    1
     8     8     9    1
     9     9    10   am
    10    10    11    2
    11    10    12    1
    12    12    13    1
    13    13    14   ar
    14    14    15   ar
    15    15    16   ar
    16    16    17    1
    17    17    18   ar
    18    18    19   ar
    19    19    20   ar
    20    20    21   ar
    21    16    22   ar
    22    22    23   ar
    23     9    24    1
    24    24    25    1
    25     3    26   ar
    26    26    27   ar
    27    27    28   ar
    28    28    29   ar
    29    29    30    1
    30    30    31    1
    31    31    32    1
    32    32    33    2
    33    29     2   ar
    34    25     6    1
    35    32    28    1
    36    23    13   ar
    37    21    17   ar
    38     1    34    1
    39     1    35    1
    40     1    36    1
    41     4    37    1
    42     4    38    1
    43     5    39    1
    44     5    40    1
    45     7    41    1
    46     7    42    1
    47     8    43    1
    48     8    44    1
    49    12    45    1
    50    12    46    1
    51    14    47    1
    52    15    48    1
    53    18    49    1
    54    23    50    1
    55    24    51    1
    56    24    52    1
    57    25    53    1
    58    25    54    1
    59    26    55    1
    60    27    56    1
    61    30    57    1
    62    30    58    1
