
     RDKit          3D

 44 46  0  0  0  0  0  0  0  0999 V2000
   -5.1152    0.5906    2.6674 N   0  0  0  0  0  0  0  0  0  0  0  0
   -4.3208    0.2711    1.5125 C   0  0  0  0  0  0  0  0  0  0  0  0
   -3.0579    0.3871    1.4905 N   0  0  0  0  0  0  0  0  0  0  0  0
   -2.2771    0.0527    0.3002 C   0  0  2  0  0  0  0  0  0  0  0  0
   -1.9248   -1.4124    0.3300 C   0  0  0  0  0  0  0  0  0  0  0  0
   -1.2108   -1.7991   -0.7749 F   0  0  0  0  0  0  0  0  0  0  0  0
   -0.9918    0.8354    0.3650 C   0  0  0  0  0  0  0  0  0  0  0  0
    0.2376    0.2290    0.4232 C   0  0  0  0  0  0  0  0  0  0  0  0
    1.4078    0.9987    0.4978 C   0  0  0  0  0  0  0  0  0  0  0  0
    2.6699    0.3478    0.5567 N   0  0  0  0  0  0  0  0  0  0  0  0
    3.4207    0.0110   -0.5982 C   0  0  0  0  0  0  0  0  0  0  0  0
    2.9506    0.2996   -1.7077 O   0  0  0  0  0  0  0  0  0  0  0  0
    4.7179   -0.6598   -0.4934 C   0  0  0  0  0  0  0  0  0  0  0  0
    5.4181   -0.9711   -1.6380 C   0  0  0  0  0  0  0  0  0  0  0  0
    6.6473   -1.6061   -1.5546 C   0  0  0  0  0  0  0  0  0  0  0  0
    7.1877   -1.9358   -0.3288 C   0  0  0  0  0  0  0  0  0  0  0  0
    8.7525   -2.7448   -0.2090 Cl  0  0  0  0  0  0  0  0  0  0  0  0
    6.4573   -1.6081    0.7942 C   0  0  0  0  0  0  0  0  0  0  0  0
    5.2627   -0.9897    0.6857 N   0  0  0  0  0  0  0  0  0  0  0  0
    1.2570    2.3664    0.5097 C   0  0  0  0  0  0  0  0  0  0  0  0
    0.0320    2.9829    0.4523 C   0  0  0  0  0  0  0  0  0  0  0  0
   -0.1186    4.3321    0.4641 F   0  0  0  0  0  0  0  0  0  0  0  0
   -1.1243    2.2276    0.3784 C   0  0  0  0  0  0  0  0  0  0  0  0
   -2.3490    2.7558    0.3197 F   0  0  0  0  0  0  0  0  0  0  0  0
   -2.9964    0.3098   -0.9866 C   0  0  0  0  0  0  0  0  0  0  0  0
   -4.4898    0.3397   -0.8852 C   0  0  1  0  0  0  0  0  0  0  0  0
   -5.0612   -0.5761   -1.9630 C   0  0  0  0  0  0  0  0  0  0  0  0
   -6.4498   -0.5066   -1.8188 F   0  0  0  0  0  0  0  0  0  0  0  0
   -4.6367   -1.8586   -1.6806 F   0  0  0  0  0  0  0  0  0  0  0  0
   -4.6778   -0.1644   -3.2216 F   0  0  0  0  0  0  0  0  0  0  0  0
   -4.9291   -0.1879    0.3498 O   0  0  0  0  0  0  0  0  0  0  0  0
   -5.3291    1.5555    2.9800 H   0  0  0  0  0  0  0  0  0  0  0  0
   -5.4955   -0.2002    3.2185 H   0  0  0  0  0  0  0  0  0  0  0  0
   -2.8760   -2.0143    0.3497 H   0  0  0  0  0  0  0  0  0  0  0  0
   -1.3970   -1.6946    1.2713 H   0  0  0  0  0  0  0  0  0  0  0  0
    0.3616   -0.8400    0.4242 H   0  0  0  0  0  0  0  0  0  0  0  0
    3.1133    0.0806    1.4859 H   0  0  0  0  0  0  0  0  0  0  0  0
    4.9830   -0.7066   -2.6026 H   0  0  0  0  0  0  0  0  0  0  0  0
    7.1991   -1.8519   -2.4447 H   0  0  0  0  0  0  0  0  0  0  0  0
    6.8898   -1.8712    1.7587 H   0  0  0  0  0  0  0  0  0  0  0  0
    2.1602    2.9774    0.5675 H   0  0  0  0  0  0  0  0  0  0  0  0
   -2.6891    1.3009   -1.4423 H   0  0  0  0  0  0  0  0  0  0  0  0
   -2.7096   -0.4282   -1.7731 H   0  0  0  0  0  0  0  0  0  0  0  0
   -4.8989    1.3758   -1.0480 H   0  0  0  0  0  0  0  0  0  0  0  0
  1  2  1  0
  2  3  2  0
  3  4  1  0
  4  5  1  1
  5  6  1  0
  4  7  1  0
  7  8  2  0
  8  9  1  0
  9 10  1  0
 10 11  1  0
 11 12  2  0
 11 13  1  0
 13 14  2  0
 14 15  1  0
 15 16  2  0
 16 17  1  0
 16 18  1  0
 18 19  2  0
  9 20  2  0
 20 21  1  0
 21 22  1  0
 21 23  2  0
 23 24  1  0
  4 25  1  0
 25 26  1  0
 26 27  1  0
 27 28  1  0
 27 29  1  0
 27 30  1  0
 26 31  1  0
 31  2  1  0
 23  7  1  0
 19 13  1  0
  1 32  1  0
  1 33  1  0
  5 34  1  0
  5 35  1  0
  8 36  1  0
 10 37  1  0
 14 38  1  0
 15 39  1  0
 18 40  1  0
 20 41  1  0
 25 42  1  0
 25 43  1  0
 26 44  1  6
M  END
$$$$
