@<TRIPOS>MOLECULE
*****
 44 46 0 0 0
SMALL
GASTEIGER

@<TRIPOS>ATOM
      1 N          -5.1152    0.5906    2.6674 N.pl3   1  UNL1       -0.3134
      2 C          -4.3208    0.2711    1.5125 C.2     1  UNL1        0.2766
      3 N          -3.0579    0.3871    1.4905 N.2     1  UNL1       -0.2228
      4 C          -2.2771    0.0527    0.3002 C.3     1  UNL1        0.1259
      5 C          -1.9248   -1.4124    0.3300 C.3     1  UNL1        0.1196
      6 F          -1.2108   -1.7991   -0.7749 F       1  UNL1       -0.2462
      7 C          -0.9918    0.8354    0.3650 C.ar    1  UNL1        0.0224
      8 C           0.2376    0.2290    0.4232 C.ar    1  UNL1       -0.0320
      9 C           1.4078    0.9987    0.4978 C.ar    1  UNL1        0.0369
     10 N           2.6699    0.3478    0.5567 N.am    1  UNL1       -0.2802
     11 C           3.4207    0.0110   -0.5982 C.2     1  UNL1        0.2666
     12 O           2.9506    0.2996   -1.7077 O.2     1  UNL1       -0.2682
     13 C           4.7179   -0.6598   -0.4934 C.ar    1  UNL1        0.1257
     14 C           5.4181   -0.9711   -1.6380 C.ar    1  UNL1       -0.0298
     15 C           6.6473   -1.6061   -1.5546 C.ar    1  UNL1       -0.0397
     16 C           7.1877   -1.9358   -0.3288 C.ar    1  UNL1        0.0591
     17 CL          8.7525   -2.7448   -0.2090 Cl      1  UNL1       -0.0820
     18 C           6.4573   -1.6081    0.7942 C.ar    1  UNL1        0.0467
     19 N           5.2627   -0.9897    0.6857 N.ar    1  UNL1       -0.2489
     20 C           1.2570    2.3664    0.5097 C.ar    1  UNL1       -0.0023
     21 C           0.0320    2.9829    0.4523 C.ar    1  UNL1        0.1605
     22 F          -0.1186    4.3321    0.4641 F       1  UNL1       -0.2024
     23 C          -1.1243    2.2276    0.3784 C.ar    1  UNL1        0.1640
     24 F          -2.3490    2.7558    0.3197 F       1  UNL1       -0.2021
     25 C          -2.9964    0.3098   -0.9866 C.3     1  UNL1        0.0251
     26 C          -4.4898    0.3397   -0.8852 C.3     1  UNL1        0.1998
     27 C          -5.0612   -0.5761   -1.9630 C.3     1  UNL1        0.4266
     28 F          -6.4498   -0.5066   -1.8188 F       1  UNL1       -0.1669
     29 F          -4.6367   -1.8586   -1.6806 F       1  UNL1       -0.1669
     30 F          -4.6778   -0.1644   -3.2216 F       1  UNL1       -0.1669
     31 O          -4.9291   -0.1879    0.3498 O.2     1  UNL1       -0.4534
     32 H          -5.3291    1.5555    2.9800 H       1  UNL1        0.1466
     33 H          -5.4955   -0.2002    3.2185 H       1  UNL1        0.1466
     34 H          -2.8760   -2.0143    0.3497 H       1  UNL1        0.0643
     35 H          -1.3970   -1.6946    1.2713 H       1  UNL1        0.0643
     36 H           0.3616   -0.8400    0.4242 H       1  UNL1        0.0640
     37 H           3.1133    0.0806    1.4859 H       1  UNL1        0.1552
     38 H           4.9830   -0.7066   -2.6026 H       1  UNL1        0.0641
     39 H           7.1991   -1.8519   -2.4447 H       1  UNL1        0.0633
     40 H           6.8898   -1.8712    1.7587 H       1  UNL1        0.0844
     41 H           2.1602    2.9774    0.5675 H       1  UNL1        0.0666
     42 H          -2.6891    1.3009   -1.4423 H       1  UNL1        0.0331
     43 H          -2.7096   -0.4282   -1.7731 H       1  UNL1        0.0331
     44 H          -4.8989    1.3758   -1.0480 H       1  UNL1        0.0826
@<TRIPOS>BOND
     1     1     2    1
     2     2     3    2
     3     3     4    1
     4     4     5    1
     5     5     6    1
     6     4     7    1
     7     7     8   ar
     8     8     9   ar
     9     9    10    1
    10    10    11   am
    11    11    12    2
    12    11    13    1
    13    13    14   ar
    14    14    15   ar
    15    15    16   ar
    16    16    17    1
    17    16    18   ar
    18    18    19   ar
    19     9    20   ar
    20    20    21   ar
    21    21    22    1
    22    21    23   ar
    23    23    24    1
    24     4    25    1
    25    25    26    1
    26    26    27    1
    27    27    28    1
    28    27    29    1
    29    27    30    1
    30    26    31    1
    31    31     2    1
    32    23     7   ar
    33    19    13   ar
    34     1    32    1
    35     1    33    1
    36     5    34    1
    37     5    35    1
    38     8    36    1
    39    10    37    1
    40    14    38    1
    41    15    39    1
    42    18    40    1
    43    20    41    1
    44    25    42    1
    45    25    43    1
    46    26    44    1
