
     RDKit          3D

 46 49  0  0  0  0  0  0  0  0999 V2000
    0.2562    3.6929   -1.4686 C   0  0  0  0  0  0  0  0  0  0  0  0
   -0.5443    2.5474   -0.8389 C   0  0  2  0  0  0  0  0  0  0  0  0
    0.3728    1.8108    0.0457 C   0  0  0  0  0  0  0  0  0  0  0  0
    0.6379    0.4264   -0.0585 C   0  0  0  0  0  0  0  0  0  0  0  0
    1.4358   -0.1528    0.8404 C   0  0  0  0  0  0  0  0  0  0  0  0
    1.7421   -1.6137    0.8459 C   0  0  0  0  0  0  0  0  0  0  0  0
    2.0061   -2.3020   -0.2224 C   0  0  0  0  0  0  0  0  0  0  0  0
    2.0247   -1.7356   -1.4221 F   0  0  0  0  0  0  0  0  0  0  0  0
    2.2854   -3.7585   -0.1370 C   0  0  0  0  0  0  0  0  0  0  0  0
    2.3326   -4.4064    1.0686 C   0  0  0  0  0  0  0  0  0  0  0  0
    2.5746   -5.7962    1.1197 C   0  0  0  0  0  0  0  0  0  0  0  0
    2.7494   -6.4182   -0.0720 C   0  0  0  0  0  0  0  0  0  0  0  0
    3.0575   -8.1831   -0.1251 Cl  0  0  0  0  0  0  0  0  0  0  0  0
    2.7082   -5.7897   -1.2846 C   0  0  0  0  0  0  0  0  0  0  0  0
    2.4712   -4.4377   -1.2660 N   0  0  0  0  0  0  0  0  0  0  0  0
    2.0436    0.5331    1.9076 C   0  0  0  0  0  0  0  0  0  0  0  0
    1.7600    1.9013    1.9765 C   0  0  0  0  0  0  0  0  0  0  0  0
    0.9612    2.5182    1.0915 C   0  0  0  0  0  0  0  0  0  0  0  0
    0.7058    3.8720    1.1911 F   0  0  0  0  0  0  0  0  0  0  0  0
   -1.0168    1.6953   -1.8820 N   0  0  0  0  0  0  0  0  0  0  0  0
   -1.8218    0.7527   -1.8048 C   0  0  0  0  0  0  0  0  0  0  0  0
   -2.3262   -0.1163   -2.8048 N   0  0  0  0  0  0  0  0  0  0  0  0
   -2.4941    0.5265   -0.0966 S   0  0  0  0  0  0  0  0  0  0  0  0
   -2.7313    2.2619    0.4210 C   0  0  1  0  0  0  0  0  0  0  0  0
   -4.1785    2.7401    0.5426 C   0  0  0  0  0  0  0  0  0  0  0  0
   -4.8786    2.7017   -0.5942 C   0  0  0  0  0  0  0  0  0  0  0  0
   -5.5665    2.6791   -1.6813 N   0  0  0  0  0  0  0  0  0  0  0  0
   -1.7696    2.7618    1.4404 C   0  0  0  0  0  0  0  0  0  0  0  0
   -1.6655    3.1393    0.0122 C   0  0  1  0  0  0  0  0  0  0  0  0
    1.3105    3.6455   -1.2225 H   0  0  0  0  0  0  0  0  0  0  0  0
   -0.1108    4.6724   -1.0845 H   0  0  0  0  0  0  0  0  0  0  0  0
    0.0976    3.6853   -2.5537 H   0  0  0  0  0  0  0  0  0  0  0  0
    0.2178   -0.1582   -0.8734 H   0  0  0  0  0  0  0  0  0  0  0  0
    1.7154   -2.0893    1.8170 H   0  0  0  0  0  0  0  0  0  0  0  0
    2.2021   -3.9481    2.0142 H   0  0  0  0  0  0  0  0  0  0  0  0
    2.6198   -6.3254    2.0551 H   0  0  0  0  0  0  0  0  0  0  0  0
    2.8529   -6.2554   -2.2291 H   0  0  0  0  0  0  0  0  0  0  0  0
    2.6730    0.0550    2.6176 H   0  0  0  0  0  0  0  0  0  0  0  0
    2.1890    2.5194    2.7785 H   0  0  0  0  0  0  0  0  0  0  0  0
   -3.2666   -0.5323   -2.7369 H   0  0  0  0  0  0  0  0  0  0  0  0
   -1.7342   -0.3542   -3.6576 H   0  0  0  0  0  0  0  0  0  0  0  0
   -4.1249    3.7574    1.0601 H   0  0  0  0  0  0  0  0  0  0  0  0
   -4.6530    2.0626    1.3722 H   0  0  0  0  0  0  0  0  0  0  0  0
   -1.1158    2.0678    1.9428 H   0  0  0  0  0  0  0  0  0  0  0  0
   -2.1720    3.5628    2.1322 H   0  0  0  0  0  0  0  0  0  0  0  0
   -1.8327    4.2254   -0.1766 H   0  0  0  0  0  0  0  0  0  0  0  0
  2  1  1  6
  2  3  1  0
  3  4  2  0
  4  5  1  0
  5  6  1  0
  6  7  2  0
  7  8  1  0
  7  9  1  0
  9 10  2  0
 10 11  1  0
 11 12  2  0
 12 13  1  0
 12 14  1  0
 14 15  2  0
  5 16  2  0
 16 17  1  0
 17 18  2  0
 18 19  1  0
  2 20  1  0
 20 21  2  0
 21 22  1  0
 21 23  1  0
 23 24  1  0
 24 25  1  1
 25 26  1  0
 26 27  3  0
 24 28  1  0
 28 29  1  0
 29  2  1  0
 18  3  1  0
 29 24  1  0
 15  9  1  0
  1 30  1  0
  1 31  1  0
  1 32  1  0
  4 33  1  0
  6 34  1  0
 10 35  1  0
 11 36  1  0
 14 37  1  0
 16 38  1  0
 17 39  1  0
 22 40  1  0
 22 41  1  0
 25 42  1  0
 25 43  1  0
 28 44  1  0
 28 45  1  0
 29 46  1  1
M  END
$$$$
