@<TRIPOS>MOLECULE
*****
 46 49 0 0 0
SMALL
GASTEIGER

@<TRIPOS>ATOM
      1 C           0.2562    3.6929   -1.4686 C.3     1  UNL1       -0.0352
      2 C          -0.5443    2.5474   -0.8389 C.3     1  UNL1        0.0931
      3 C           0.3728    1.8108    0.0457 C.ar    1  UNL1        0.0157
      4 C           0.6379    0.4264   -0.0585 C.ar    1  UNL1       -0.0463
      5 C           1.4358   -0.1528    0.8404 C.ar    1  UNL1       -0.0217
      6 C           1.7421   -1.6137    0.8459 C.2     1  UNL1       -0.0172
      7 C           2.0061   -2.3020   -0.2224 C.2     1  UNL1        0.1492
      8 F           2.0247   -1.7356   -1.4221 F       1  UNL1       -0.2032
      9 C           2.2854   -3.7585   -0.1370 C.ar    1  UNL1        0.0990
     10 C           2.3326   -4.4064    1.0686 C.ar    1  UNL1       -0.0321
     11 C           2.5746   -5.7962    1.1197 C.ar    1  UNL1       -0.0398
     12 C           2.7494   -6.4182   -0.0720 C.ar    1  UNL1        0.0591
     13 CL          3.0575   -8.1831   -0.1251 Cl      1  UNL1       -0.0820
     14 C           2.7082   -5.7897   -1.2846 C.ar    1  UNL1        0.0466
     15 N           2.4712   -4.4377   -1.2660 N.ar    1  UNL1       -0.2512
     16 C           2.0436    0.5331    1.9076 C.ar    1  UNL1       -0.0518
     17 C           1.7600    1.9013    1.9765 C.ar    1  UNL1       -0.0255
     18 C           0.9612    2.5182    1.0915 C.ar    1  UNL1        0.1289
     19 F           0.7058    3.8720    1.1911 F       1  UNL1       -0.2051
     20 N          -1.0168    1.6953   -1.8820 N.2     1  UNL1       -0.2521
     21 C          -1.8218    0.7527   -1.8048 C.2     1  UNL1        0.1481
     22 N          -2.3262   -0.1163   -2.8048 N.pl3   1  UNL1       -0.3380
     23 S          -2.4941    0.5265   -0.0966 S.3     1  UNL1       -0.0830
     24 C          -2.7313    2.2619    0.4210 C.3     1  UNL1        0.0422
     25 C          -4.1785    2.7401    0.5426 C.3     1  UNL1        0.0502
     26 C          -4.8786    2.7017   -0.5942 C.1     1  UNL1        0.0639
     27 N          -5.5665    2.6791   -1.6813 N.1     1  UNL1       -0.1965
     28 C          -1.7696    2.7618    1.4404 C.3     1  UNL1       -0.0299
     29 C          -1.6655    3.1393    0.0122 C.3     1  UNL1        0.0056
     30 H           1.3105    3.6455   -1.2225 H       1  UNL1        0.0256
     31 H          -0.1108    4.6724   -1.0845 H       1  UNL1        0.0256
     32 H           0.0976    3.6853   -2.5537 H       1  UNL1        0.0256
     33 H           0.2178   -0.1582   -0.8734 H       1  UNL1        0.0628
     34 H           1.7154   -2.0893    1.8170 H       1  UNL1        0.0653
     35 H           2.2021   -3.9481    2.0142 H       1  UNL1        0.0640
     36 H           2.6198   -6.3254    2.0551 H       1  UNL1        0.0633
     37 H           2.8529   -6.2554   -2.2291 H       1  UNL1        0.0844
     38 H           2.6730    0.0550    2.6176 H       1  UNL1        0.0624
     39 H           2.1890    2.5194    2.7785 H       1  UNL1        0.0646
     40 H          -3.2666   -0.5323   -2.7369 H       1  UNL1        0.1442
     41 H          -1.7342   -0.3542   -3.6576 H       1  UNL1        0.1442
     42 H          -4.1249    3.7574    1.0601 H       1  UNL1        0.0432
     43 H          -4.6530    2.0626    1.3722 H       1  UNL1        0.0432
     44 H          -1.1158    2.0678    1.9428 H       1  UNL1        0.0283
     45 H          -2.1720    3.5628    2.1322 H       1  UNL1        0.0283
     46 H          -1.8327    4.2254   -0.1766 H       1  UNL1        0.0342
@<TRIPOS>BOND
     1     2     1    1
     2     2     3    1
     3     3     4   ar
     4     4     5   ar
     5     5     6    1
     6     6     7    2
     7     7     8    1
     8     7     9    1
     9     9    10   ar
    10    10    11   ar
    11    11    12   ar
    12    12    13    1
    13    12    14   ar
    14    14    15   ar
    15     5    16   ar
    16    16    17   ar
    17    17    18   ar
    18    18    19    1
    19     2    20    1
    20    20    21    2
    21    21    22    1
    22    21    23    1
    23    23    24    1
    24    24    25    1
    25    25    26    1
    26    26    27    3
    27    24    28    1
    28    28    29    1
    29    29     2    1
    30    18     3   ar
    31    29    24    1
    32    15     9   ar
    33     1    30    1
    34     1    31    1
    35     1    32    1
    36     4    33    1
    37     6    34    1
    38    10    35    1
    39    11    36    1
    40    14    37    1
    41    16    38    1
    42    17    39    1
    43    22    40    1
    44    22    41    1
    45    25    42    1
    46    25    43    1
    47    28    44    1
    48    28    45    1
    49    29    46    1
