@<TRIPOS>MOLECULE
*****
 65 69 0 0 0
SMALL
GASTEIGER

@<TRIPOS>ATOM
      1 C          -6.9275    0.8241    2.0367 C.3     1  UNL1       -0.0391
      2 C          -7.4676   -0.4324    1.4735 C.ar    1  UNL1       -0.0425
      3 C          -8.6261   -1.0040    1.9579 C.ar    1  UNL1       -0.0582
      4 C          -9.0868   -2.1841    1.3897 C.ar    1  UNL1       -0.0612
      5 C          -8.4183   -2.8020    0.3532 C.ar    1  UNL1       -0.0582
      6 C          -7.2720   -2.2019   -0.0984 C.ar    1  UNL1       -0.0425
      7 C          -6.5261   -2.8397   -1.2147 C.3     1  UNL1       -0.0391
      8 C          -6.7695   -1.0305    0.4290 C.ar    1  UNL1       -0.0120
      9 C          -5.5464   -0.3970   -0.0587 C.ar    1  UNL1       -0.0149
     10 C          -5.5595    0.5317   -1.0788 C.ar    1  UNL1       -0.0489
     11 C          -4.3938    1.1175   -1.5233 C.ar    1  UNL1       -0.0223
     12 C          -4.3808    2.1297   -2.6310 C.3     1  UNL1       -0.0376
     13 C          -3.1569    0.8074   -0.9739 C.ar    1  UNL1        0.0975
     14 N          -2.0249    1.3783   -1.4086 N.ar    1  UNL1       -0.2112
     15 C          -0.8016    1.0713   -0.8655 C.ar    1  UNL1        0.2398
     16 N           0.3530    1.7004   -1.3808 N.pl3   1  UNL1       -0.2824
     17 C           1.6798    1.5474   -0.9179 C.ar    1  UNL1        0.0338
     18 C           2.7447    2.0695   -1.6520 C.ar    1  UNL1       -0.0370
     19 C           4.0453    1.9656   -1.2547 C.ar    1  UNL1       -0.0182
     20 C           4.3648    1.3219   -0.0783 C.ar    1  UNL1        0.1207
     21 O           5.6911    1.2288    0.3037 O.3     1  UNL1       -0.4907
     22 C           6.0534    0.5885    1.4857 C.3     1  UNL1        0.1022
     23 C           7.5129    0.5595    1.7712 C.3     1  UNL1        0.0331
     24 N           8.3459   -0.0882    0.8314 N.3     1  UNL1       -0.2991
     25 C           8.2194   -1.4992    0.7088 C.3     1  UNL1       -0.0010
     26 C           8.5302   -1.8525   -0.7316 C.3     1  UNL1       -0.0390
     27 C           9.1840   -0.6000   -1.2569 C.3     1  UNL1       -0.0390
     28 C           8.4718    0.4871   -0.4584 C.3     1  UNL1       -0.0010
     29 C           3.3237    0.8022    0.6558 C.ar    1  UNL1       -0.0182
     30 C           2.0038    0.9074    0.2532 C.ar    1  UNL1       -0.0370
     31 N          -0.8334    0.1702    0.1173 N.ar    1  UNL1       -0.1123
     32 N          -1.9275   -0.4142    0.5731 N.ar    1  UNL1       -0.1444
     33 C          -3.1436   -0.1195    0.0443 C.ar    1  UNL1        0.1125
     34 C          -4.3107   -0.7047    0.4881 C.ar    1  UNL1       -0.0247
     35 H          -6.0072    0.6714    2.6344 H       1  UNL1        0.0278
     36 H          -6.7959    1.5882    1.2318 H       1  UNL1        0.0278
     37 H          -7.6894    1.2372    2.7292 H       1  UNL1        0.0278
     38 H          -9.1894   -0.5437    2.7830 H       1  UNL1        0.0620
     39 H          -9.9988   -2.6483    1.7601 H       1  UNL1        0.0618
     40 H          -8.8175   -3.7247   -0.0600 H       1  UNL1        0.0620
     41 H          -5.6124   -2.2642   -1.4786 H       1  UNL1        0.0278
     42 H          -7.1464   -2.8518   -2.1377 H       1  UNL1        0.0278
     43 H          -6.2796   -3.8786   -0.8820 H       1  UNL1        0.0278
     44 H          -6.5169    0.7984   -1.5327 H       1  UNL1        0.0627
     45 H          -3.5537    1.8870   -3.3151 H       1  UNL1        0.0278
     46 H          -4.1427    3.1352   -2.1779 H       1  UNL1        0.0278
     47 H          -5.3579    2.1642   -3.1462 H       1  UNL1        0.0278
     48 H           0.2452    2.3730   -2.2108 H       1  UNL1        0.1551
     49 H           2.5348    2.5793   -2.5777 H       1  UNL1        0.0637
     50 H           4.8504    2.3953   -1.8700 H       1  UNL1        0.0655
     51 H           5.5744    1.1690    2.3287 H       1  UNL1        0.0709
     52 H           5.5827   -0.4360    1.5571 H       1  UNL1        0.0709
     53 H           7.8505    1.6137    1.9141 H       1  UNL1        0.0460
     54 H           7.6384    0.0266    2.7593 H       1  UNL1        0.0460
     55 H           8.9833   -2.0043    1.3424 H       1  UNL1        0.0427
     56 H           7.2412   -1.8966    1.0459 H       1  UNL1        0.0427
     57 H           9.2076   -2.7316   -0.7785 H       1  UNL1        0.0278
     58 H           7.5918   -2.0253   -1.3005 H       1  UNL1        0.0278
     59 H          10.2516   -0.6400   -1.0374 H       1  UNL1        0.0278
     60 H           8.9830   -0.4568   -2.3467 H       1  UNL1        0.0278
     61 H           9.1862    1.3420   -0.4386 H       1  UNL1        0.0427
     62 H           7.5532    0.7439   -0.9829 H       1  UNL1        0.0427
     63 H           3.5327    0.2893    1.5853 H       1  UNL1        0.0655
     64 H           1.2464    0.4806    0.8852 H       1  UNL1        0.0637
     65 H          -4.2962   -1.4307    1.2865 H       1  UNL1        0.0646
@<TRIPOS>BOND
     1     1     2    1
     2     2     3   ar
     3     3     4   ar
     4     4     5   ar
     5     5     6   ar
     6     6     7    1
     7     6     8   ar
     8     8     9    1
     9     9    10   ar
    10    10    11   ar
    11    11    12    1
    12    11    13   ar
    13    13    14   ar
    14    14    15   ar
    15    15    16    1
    16    16    17    1
    17    17    18   ar
    18    18    19   ar
    19    19    20   ar
    20    20    21    1
    21    21    22    1
    22    22    23    1
    23    23    24    1
    24    24    25    1
    25    25    26    1
    26    26    27    1
    27    27    28    1
    28    20    29   ar
    29    29    30   ar
    30    15    31   ar
    31    31    32   ar
    32    32    33   ar
    33    33    34   ar
    34     8     2   ar
    35    34     9   ar
    36    33    13   ar
    37    30    17   ar
    38    28    24    1
    39     1    35    1
    40     1    36    1
    41     1    37    1
    42     3    38    1
    43     4    39    1
    44     5    40    1
    45     7    41    1
    46     7    42    1
    47     7    43    1
    48    10    44    1
    49    12    45    1
    50    12    46    1
    51    12    47    1
    52    16    48    1
    53    18    49    1
    54    19    50    1
    55    22    51    1
    56    22    52    1
    57    23    53    1
    58    23    54    1
    59    25    55    1
    60    25    56    1
    61    26    57    1
    62    26    58    1
    63    27    59    1
    64    27    60    1
    65    28    61    1
    66    28    62    1
    67    29    63    1
    68    30    64    1
    69    34    65    1
