
     RDKit          3D

 65 69  0  0  0  0  0  0  0  0999 V2000
   -6.9275    0.8241    2.0367 C   0  0  0  0  0  0  0  0  0  0  0  0
   -7.4676   -0.4324    1.4735 C   0  0  0  0  0  0  0  0  0  0  0  0
   -8.6261   -1.0040    1.9579 C   0  0  0  0  0  0  0  0  0  0  0  0
   -9.0868   -2.1841    1.3897 C   0  0  0  0  0  0  0  0  0  0  0  0
   -8.4183   -2.8020    0.3532 C   0  0  0  0  0  0  0  0  0  0  0  0
   -7.2720   -2.2019   -0.0984 C   0  0  0  0  0  0  0  0  0  0  0  0
   -6.5261   -2.8397   -1.2147 C   0  0  0  0  0  0  0  0  0  0  0  0
   -6.7695   -1.0305    0.4290 C   0  0  0  0  0  0  0  0  0  0  0  0
   -5.5464   -0.3970   -0.0587 C   0  0  0  0  0  0  0  0  0  0  0  0
   -5.5595    0.5317   -1.0788 C   0  0  0  0  0  0  0  0  0  0  0  0
   -4.3938    1.1175   -1.5233 C   0  0  0  0  0  0  0  0  0  0  0  0
   -4.3808    2.1297   -2.6310 C   0  0  0  0  0  0  0  0  0  0  0  0
   -3.1569    0.8074   -0.9739 C   0  0  0  0  0  0  0  0  0  0  0  0
   -2.0249    1.3783   -1.4086 N   0  0  0  0  0  0  0  0  0  0  0  0
   -0.8016    1.0713   -0.8655 C   0  0  0  0  0  0  0  0  0  0  0  0
    0.3530    1.7004   -1.3808 N   0  0  0  0  0  0  0  0  0  0  0  0
    1.6798    1.5474   -0.9179 C   0  0  0  0  0  0  0  0  0  0  0  0
    2.7447    2.0695   -1.6520 C   0  0  0  0  0  0  0  0  0  0  0  0
    4.0453    1.9656   -1.2547 C   0  0  0  0  0  0  0  0  0  0  0  0
    4.3648    1.3219   -0.0783 C   0  0  0  0  0  0  0  0  0  0  0  0
    5.6911    1.2288    0.3037 O   0  0  0  0  0  0  0  0  0  0  0  0
    6.0534    0.5885    1.4857 C   0  0  0  0  0  0  0  0  0  0  0  0
    7.5129    0.5595    1.7712 C   0  0  0  0  0  0  0  0  0  0  0  0
    8.3459   -0.0882    0.8314 N   0  0  0  0  0  0  0  0  0  0  0  0
    8.2194   -1.4992    0.7088 C   0  0  0  0  0  0  0  0  0  0  0  0
    8.5302   -1.8525   -0.7316 C   0  0  0  0  0  0  0  0  0  0  0  0
    9.1840   -0.6000   -1.2569 C   0  0  0  0  0  0  0  0  0  0  0  0
    8.4718    0.4871   -0.4584 C   0  0  0  0  0  0  0  0  0  0  0  0
    3.3237    0.8022    0.6558 C   0  0  0  0  0  0  0  0  0  0  0  0
    2.0038    0.9074    0.2532 C   0  0  0  0  0  0  0  0  0  0  0  0
   -0.8334    0.1702    0.1173 N   0  0  0  0  0  0  0  0  0  0  0  0
   -1.9275   -0.4142    0.5731 N   0  0  0  0  0  0  0  0  0  0  0  0
   -3.1436   -0.1195    0.0443 C   0  0  0  0  0  0  0  0  0  0  0  0
   -4.3107   -0.7047    0.4881 C   0  0  0  0  0  0  0  0  0  0  0  0
   -6.0072    0.6714    2.6344 H   0  0  0  0  0  0  0  0  0  0  0  0
   -6.7959    1.5882    1.2318 H   0  0  0  0  0  0  0  0  0  0  0  0
   -7.6894    1.2372    2.7292 H   0  0  0  0  0  0  0  0  0  0  0  0
   -9.1894   -0.5437    2.7830 H   0  0  0  0  0  0  0  0  0  0  0  0
   -9.9988   -2.6483    1.7601 H   0  0  0  0  0  0  0  0  0  0  0  0
   -8.8175   -3.7247   -0.0600 H   0  0  0  0  0  0  0  0  0  0  0  0
   -5.6124   -2.2642   -1.4786 H   0  0  0  0  0  0  0  0  0  0  0  0
   -7.1464   -2.8518   -2.1377 H   0  0  0  0  0  0  0  0  0  0  0  0
   -6.2796   -3.8786   -0.8820 H   0  0  0  0  0  0  0  0  0  0  0  0
   -6.5169    0.7984   -1.5327 H   0  0  0  0  0  0  0  0  0  0  0  0
   -3.5537    1.8870   -3.3151 H   0  0  0  0  0  0  0  0  0  0  0  0
   -4.1427    3.1352   -2.1779 H   0  0  0  0  0  0  0  0  0  0  0  0
   -5.3579    2.1642   -3.1462 H   0  0  0  0  0  0  0  0  0  0  0  0
    0.2452    2.3730   -2.2108 H   0  0  0  0  0  0  0  0  0  0  0  0
    2.5348    2.5793   -2.5777 H   0  0  0  0  0  0  0  0  0  0  0  0
    4.8504    2.3953   -1.8700 H   0  0  0  0  0  0  0  0  0  0  0  0
    5.5744    1.1690    2.3287 H   0  0  0  0  0  0  0  0  0  0  0  0
    5.5827   -0.4360    1.5571 H   0  0  0  0  0  0  0  0  0  0  0  0
    7.8505    1.6137    1.9141 H   0  0  0  0  0  0  0  0  0  0  0  0
    7.6384    0.0266    2.7593 H   0  0  0  0  0  0  0  0  0  0  0  0
    8.9833   -2.0043    1.3424 H   0  0  0  0  0  0  0  0  0  0  0  0
    7.2412   -1.8966    1.0459 H   0  0  0  0  0  0  0  0  0  0  0  0
    9.2076   -2.7316   -0.7785 H   0  0  0  0  0  0  0  0  0  0  0  0
    7.5918   -2.0253   -1.3005 H   0  0  0  0  0  0  0  0  0  0  0  0
   10.2516   -0.6400   -1.0374 H   0  0  0  0  0  0  0  0  0  0  0  0
    8.9830   -0.4568   -2.3467 H   0  0  0  0  0  0  0  0  0  0  0  0
    9.1862    1.3420   -0.4386 H   0  0  0  0  0  0  0  0  0  0  0  0
    7.5532    0.7439   -0.9829 H   0  0  0  0  0  0  0  0  0  0  0  0
    3.5327    0.2893    1.5853 H   0  0  0  0  0  0  0  0  0  0  0  0
    1.2464    0.4806    0.8852 H   0  0  0  0  0  0  0  0  0  0  0  0
   -4.2962   -1.4307    1.2865 H   0  0  0  0  0  0  0  0  0  0  0  0
  1  2  1  0
  2  3  2  0
  3  4  1  0
  4  5  2  0
  5  6  1  0
  6  7  1  0
  6  8  2  0
  8  9  1  0
  9 10  2  0
 10 11  1  0
 11 12  1  0
 11 13  2  0
 13 14  1  0
 14 15  2  0
 15 16  1  0
 16 17  1  0
 17 18  2  0
 18 19  1  0
 19 20  2  0
 20 21  1  0
 21 22  1  0
 22 23  1  0
 23 24  1  0
 24 25  1  0
 25 26  1  0
 26 27  1  0
 27 28  1  0
 20 29  1  0
 29 30  2  0
 15 31  1  0
 31 32  2  0
 32 33  1  0
 33 34  2  0
  8  2  1  0
 34  9  1  0
 33 13  1  0
 30 17  1  0
 28 24  1  0
  1 35  1  0
  1 36  1  0
  1 37  1  0
  3 38  1  0
  4 39  1  0
  5 40  1  0
  7 41  1  0
  7 42  1  0
  7 43  1  0
 10 44  1  0
 12 45  1  0
 12 46  1  0
 12 47  1  0
 16 48  1  0
 18 49  1  0
 19 50  1  0
 22 51  1  0
 22 52  1  0
 23 53  1  0
 23 54  1  0
 25 55  1  0
 25 56  1  0
 26 57  1  0
 26 58  1  0
 27 59  1  0
 27 60  1  0
 28 61  1  0
 28 62  1  0
 29 63  1  0
 30 64  1  0
 34 65  1  0
M  END
$$$$
