@<TRIPOS>MOLECULE
*****
 47 50 0 0 0
SMALL
GASTEIGER

@<TRIPOS>ATOM
      1 C          -6.6557    1.1176   -0.7536 C.3     1  UNL1        0.0031
      2 N          -7.0068   -0.2928   -0.6920 N.am    1  UNL1       -0.3036
      3 C          -8.3141   -0.7272   -1.0989 C.3     1  UNL1        0.0031
      4 C          -6.0274   -1.2235   -0.2073 C.2     1  UNL1        0.2462
      5 O          -6.3142   -2.4253   -0.1668 O.2     1  UNL1       -0.2700
      6 C          -4.7315   -0.6949    0.2197 C.ar    1  UNL1        0.0384
      7 C          -4.4628   -0.5528    1.5675 C.ar    1  UNL1       -0.0478
      8 C          -3.2659   -0.0547    1.9983 C.ar    1  UNL1       -0.0384
      9 C          -2.2424    0.3402    1.1212 C.ar    1  UNL1        0.0510
     10 N          -1.0581    0.8923    1.6610 N.pl3   1  UNL1       -0.2982
     11 C           0.2360    0.3411    1.5301 C.ar    1  UNL1        0.1249
     12 C           1.2178    0.8755    0.6868 C.ar    1  UNL1        0.0023
     13 C           2.4935    0.3617    0.6190 C.ar    1  UNL1        0.0516
     14 N           3.6144    0.6868   -0.0735 N.ar    1  UNL1       -0.3539
     15 C           4.6265   -0.1443    0.2533 C.ar    1  UNL1        0.0505
     16 C           5.9886   -0.1247   -0.2925 C.ar    1  UNL1        0.0357
     17 C           7.0255   -0.9073    0.1560 C.ar    1  UNL1        0.0585
     18 N           8.1056   -0.6128   -0.6167 N.ar    1  UNL1       -0.1792
     19 N           7.7980    0.3126   -1.5252 N.ar    1  UNL1       -0.2738
     20 C           8.7282    0.8428   -2.5264 C.3     1  UNL1        0.0302
     21 C           6.4980    0.6167   -1.3289 C.ar    1  UNL1        0.0343
     22 C           4.1090   -1.0111    1.1782 C.ar    1  UNL1       -0.0271
     23 C           2.7910   -0.7258    1.4249 C.ar    1  UNL1        0.0185
     24 C           1.8185   -1.2717    2.2702 C.ar    1  UNL1        0.0389
     25 N           0.5969   -0.7170    2.2825 N.ar    1  UNL1       -0.2395
     26 C          -2.5146    0.1938   -0.2088 C.ar    1  UNL1        0.0628
     27 CL         -1.3202    0.6351   -1.4193 Cl      1  UNL1       -0.0816
     28 C          -3.7391   -0.3138   -0.6457 C.ar    1  UNL1       -0.0295
     29 H          -5.7440    1.3344   -0.1302 H       1  UNL1        0.0428
     30 H          -7.4455    1.7821   -0.3504 H       1  UNL1        0.0428
     31 H          -6.4633    1.4273   -1.7990 H       1  UNL1        0.0428
     32 H          -8.3839   -1.0587   -2.1518 H       1  UNL1        0.0428
     33 H          -8.7351   -1.5223   -0.4454 H       1  UNL1        0.0428
     34 H          -8.9987    0.1604   -0.9465 H       1  UNL1        0.0428
     35 H          -5.2290   -0.8431    2.2821 H       1  UNL1        0.0626
     36 H          -3.0384    0.0671    3.0689 H       1  UNL1        0.0637
     37 H          -1.1293    1.8161    2.2215 H       1  UNL1        0.1536
     38 H           0.9677    1.7167    0.0700 H       1  UNL1        0.0673
     39 H           3.6816    1.4567   -0.7584 H       1  UNL1        0.1659
     40 H           6.9610   -1.6187    0.9805 H       1  UNL1        0.0854
     41 H           8.5712    1.9222   -2.6406 H       1  UNL1        0.0473
     42 H           8.4346    0.3532   -3.4712 H       1  UNL1        0.0473
     43 H           9.7571    0.6015   -2.2150 H       1  UNL1        0.0473
     44 H           5.9438    1.3432   -1.9124 H       1  UNL1        0.0833
     45 H           4.6647   -1.8187    1.6480 H       1  UNL1        0.0645
     46 H           2.1267   -2.1146    2.8669 H       1  UNL1        0.0837
     47 H          -3.9359   -0.4209   -1.7303 H       1  UNL1        0.0640
@<TRIPOS>BOND
     1     1     2    1
     2     2     3    1
     3     2     4   am
     4     4     5    2
     5     4     6    1
     6     6     7   ar
     7     7     8   ar
     8     8     9   ar
     9     9    10    1
    10    10    11    1
    11    11    12   ar
    12    12    13   ar
    13    13    14   ar
    14    14    15   ar
    15    15    16    1
    16    16    17   ar
    17    17    18   ar
    18    18    19   ar
    19    19    20    1
    20    19    21   ar
    21    15    22   ar
    22    22    23   ar
    23    23    24   ar
    24    24    25   ar
    25     9    26   ar
    26    26    27    1
    27    26    28   ar
    28    28     6   ar
    29    25    11   ar
    30    23    13   ar
    31    21    16   ar
    32     1    29    1
    33     1    30    1
    34     1    31    1
    35     3    32    1
    36     3    33    1
    37     3    34    1
    38     7    35    1
    39     8    36    1
    40    10    37    1
    41    12    38    1
    42    14    39    1
    43    17    40    1
    44    20    41    1
    45    20    42    1
    46    20    43    1
    47    21    44    1
    48    22    45    1
    49    24    46    1
    50    28    47    1
