
     RDKit          3D

 51 54  0  0  0  0  0  0  0  0999 V2000
   -8.7408    1.9836    1.3412 C   0  0  0  0  0  0  0  0  0  0  0  0
   -7.4268    1.2667    1.2210 C   0  0  0  0  0  0  0  0  0  0  0  0
   -6.2550    1.7898    0.7174 C   0  0  0  0  0  0  0  0  0  0  0  0
   -5.2545    0.8263    0.7683 C   0  0  0  0  0  0  0  0  0  0  0  0
   -3.9232    0.8157    0.4024 C   0  0  0  0  0  0  0  0  0  0  0  0
   -3.3566    1.9162   -0.1302 F   0  0  0  0  0  0  0  0  0  0  0  0
   -3.2044   -0.3431    0.5981 C   0  0  0  0  0  0  0  0  0  0  0  0
   -1.8808   -0.3451    0.2314 O   0  0  0  0  0  0  0  0  0  0  0  0
   -1.4316   -0.1153   -1.0393 C   0  0  0  0  0  0  0  0  0  0  0  0
   -2.2904    0.1358   -2.0430 N   0  0  0  0  0  0  0  0  0  0  0  0
   -1.8411    0.3631   -3.3013 C   0  0  0  0  0  0  0  0  0  0  0  0
   -0.5307    0.3304   -3.5119 N   0  0  0  0  0  0  0  0  0  0  0  0
    0.3797    0.0913   -2.5824 N   0  0  0  0  0  0  0  0  0  0  0  0
    1.7310    0.0137   -2.5811 C   0  0  0  0  0  0  0  0  0  0  0  0
    2.1710   -0.2695   -1.2982 C   0  0  0  0  0  0  0  0  0  0  0  0
    3.4604   -0.4358   -0.8384 O   0  0  0  0  0  0  0  0  0  0  0  0
    4.6053   -0.3422   -1.6300 C   0  0  0  0  0  0  0  0  0  0  0  0
    5.8043   -0.5965   -0.7069 C   0  0  0  0  0  0  0  0  0  0  0  0
    5.7328    0.4966    0.3564 C   0  0  0  0  0  0  0  0  0  0  0  0
    7.0778    0.3285    1.5133 S   0  0  0  0  0  6  0  0  0  0  0  0
    8.6496    0.4552    0.7075 C   0  0  0  0  0  0  0  0  0  0  0  0
    6.9979   -1.0035    2.1872 O   0  0  0  0  0  0  0  0  0  0  0  0
    6.8995    1.4026    2.5490 O   0  0  0  0  0  0  0  0  0  0  0  0
    1.0351   -0.3604   -0.5228 C   0  0  0  0  0  0  0  0  0  0  0  0
    1.0403   -0.6527    0.9288 C   0  0  0  0  0  0  0  0  0  0  0  0
   -0.0832   -0.1351   -1.3247 C   0  0  0  0  0  0  0  0  0  0  0  0
   -3.7940   -1.4810    1.1498 C   0  0  0  0  0  0  0  0  0  0  0  0
   -5.1239   -1.4541    1.5097 C   0  0  0  0  0  0  0  0  0  0  0  0
   -5.8667   -0.2898    1.3188 C   0  0  0  0  0  0  0  0  0  0  0  0
   -7.1613    0.0037    1.5780 N   0  0  0  0  0  0  0  0  0  0  0  0
   -8.6686    2.5678    2.2901 H   0  0  0  0  0  0  0  0  0  0  0  0
   -8.8211    2.6781    0.4963 H   0  0  0  0  0  0  0  0  0  0  0  0
   -9.5868    1.2799    1.3695 H   0  0  0  0  0  0  0  0  0  0  0  0
   -6.0711    2.7791    0.3290 H   0  0  0  0  0  0  0  0  0  0  0  0
   -2.5628    0.5658   -4.1040 H   0  0  0  0  0  0  0  0  0  0  0  0
    2.3774    0.1497   -3.4415 H   0  0  0  0  0  0  0  0  0  0  0  0
    4.7132    0.5955   -2.1864 H   0  0  0  0  0  0  0  0  0  0  0  0
    4.5531   -1.1602   -2.3960 H   0  0  0  0  0  0  0  0  0  0  0  0
    5.6654   -1.5989   -0.2542 H   0  0  0  0  0  0  0  0  0  0  0  0
    6.7461   -0.5691   -1.2541 H   0  0  0  0  0  0  0  0  0  0  0  0
    4.7950    0.3909    0.9192 H   0  0  0  0  0  0  0  0  0  0  0  0
    5.7495    1.4606   -0.1545 H   0  0  0  0  0  0  0  0  0  0  0  0
    9.2932   -0.4307    0.9224 H   0  0  0  0  0  0  0  0  0  0  0  0
    8.5220    0.6528   -0.3650 H   0  0  0  0  0  0  0  0  0  0  0  0
    9.1831    1.3235    1.1593 H   0  0  0  0  0  0  0  0  0  0  0  0
    1.8459   -1.4086    1.0946 H   0  0  0  0  0  0  0  0  0  0  0  0
    0.0983   -1.0651    1.2926 H   0  0  0  0  0  0  0  0  0  0  0  0
    1.3414    0.2615    1.4950 H   0  0  0  0  0  0  0  0  0  0  0  0
   -3.1899   -2.3776    1.2879 H   0  0  0  0  0  0  0  0  0  0  0  0
   -5.5601   -2.3478    1.9356 H   0  0  0  0  0  0  0  0  0  0  0  0
   -7.8430   -0.6666    1.9958 H   0  0  0  0  0  0  0  0  0  0  0  0
  1  2  1  0
  2  3  2  0
  3  4  1  0
  4  5  2  0
  5  6  1  0
  5  7  1  0
  7  8  1  0
  8  9  1  0
  9 10  2  0
 10 11  1  0
 11 12  2  0
 12 13  1  0
 13 14  1  0
 14 15  2  0
 15 16  1  0
 16 17  1  0
 17 18  1  0
 18 19  1  0
 19 20  1  0
 20 21  1  0
 20 22  2  0
 20 23  2  0
 15 24  1  0
 24 25  1  0
 24 26  2  0
  7 27  2  0
 27 28  1  0
 28 29  2  0
 29 30  1  0
 30  2  1  0
 29  4  1  0
 26  9  1  0
 26 13  1  0
  1 31  1  0
  1 32  1  0
  1 33  1  0
  3 34  1  0
 11 35  1  0
 14 36  1  0
 17 37  1  0
 17 38  1  0
 18 39  1  0
 18 40  1  0
 19 41  1  0
 19 42  1  0
 21 43  1  0
 21 44  1  0
 21 45  1  0
 25 46  1  0
 25 47  1  0
 25 48  1  0
 27 49  1  0
 28 50  1  0
 30 51  1  0
M  END
$$$$
