@<TRIPOS>MOLECULE
*****
 51 54 0 0 0
SMALL
GASTEIGER

@<TRIPOS>ATOM
      1 C          -8.7408    1.9836    1.3412 C.3     1  UNL1       -0.0244
      2 C          -7.4268    1.2667    1.2210 C.ar    1  UNL1        0.0140
      3 C          -6.2550    1.7898    0.7174 C.ar    1  UNL1       -0.0308
      4 C          -5.2545    0.8263    0.7683 C.ar    1  UNL1        0.0387
      5 C          -3.9232    0.8157    0.4024 C.ar    1  UNL1        0.1746
      6 F          -3.3566    1.9162   -0.1302 F       1  UNL1       -0.2009
      7 C          -3.2044   -0.3431    0.5981 C.ar    1  UNL1        0.1662
      8 O          -1.8808   -0.3451    0.2314 O.3     1  UNL1       -0.4332
      9 C          -1.4316   -0.1153   -1.0393 C.ar    1  UNL1        0.2483
     10 N          -2.2904    0.1358   -2.0430 N.ar    1  UNL1       -0.1975
     11 C          -1.8411    0.3631   -3.3013 C.ar    1  UNL1        0.1405
     12 N          -0.5307    0.3304   -3.5119 N.ar    1  UNL1       -0.1546
     13 N           0.3797    0.0913   -2.5824 N.ar    1  UNL1       -0.2294
     14 C           1.7310    0.0137   -2.5811 C.ar    1  UNL1        0.0719
     15 C           2.1710   -0.2695   -1.2982 C.ar    1  UNL1        0.1436
     16 O           3.4604   -0.4358   -0.8384 O.3     1  UNL1       -0.4901
     17 C           4.6053   -0.3422   -1.6300 C.3     1  UNL1        0.0911
     18 C           5.8043   -0.5965   -0.7069 C.3     1  UNL1        0.0008
     19 C           5.7328    0.4966    0.3564 C.3     1  UNL1        0.0685
     20 S           7.0778    0.3285    1.5133 S.O2    1  UNL1       -0.0337
     21 C           8.6496    0.4552    0.7075 C.3     1  UNL1        0.0544
     22 O           6.9979   -1.0035    2.1872 O.2     1  UNL1       -0.1746
     23 O           6.8995    1.4026    2.5490 O.2     1  UNL1       -0.1746
     24 C           1.0351   -0.3604   -0.5228 C.ar    1  UNL1        0.0233
     25 C           1.0403   -0.6527    0.9288 C.3     1  UNL1       -0.0340
     26 C          -0.0832   -0.1351   -1.3247 C.ar    1  UNL1        0.1336
     27 C          -3.7940   -1.4810    1.1498 C.ar    1  UNL1       -0.0144
     28 C          -5.1239   -1.4541    1.5097 C.ar    1  UNL1       -0.0341
     29 C          -5.8667   -0.2898    1.3188 C.ar    1  UNL1        0.0497
     30 N          -7.1613    0.0037    1.5780 N.ar    1  UNL1       -0.3581
     31 H          -8.6686    2.5678    2.2901 H       1  UNL1        0.0292
     32 H          -8.8211    2.6781    0.4963 H       1  UNL1        0.0292
     33 H          -9.5868    1.2799    1.3695 H       1  UNL1        0.0292
     34 H          -6.0711    2.7791    0.3290 H       1  UNL1        0.0642
     35 H          -2.5628    0.5658   -4.1040 H       1  UNL1        0.1066
     36 H           2.3774    0.1497   -3.4415 H       1  UNL1        0.0868
     37 H           4.7132    0.5955   -2.1864 H       1  UNL1        0.0697
     38 H           4.5531   -1.1602   -2.3960 H       1  UNL1        0.0697
     39 H           5.6654   -1.5989   -0.2542 H       1  UNL1        0.0314
     40 H           6.7461   -0.5691   -1.2541 H       1  UNL1        0.0314
     41 H           4.7950    0.3909    0.9192 H       1  UNL1        0.0501
     42 H           5.7495    1.4606   -0.1545 H       1  UNL1        0.0501
     43 H           9.2932   -0.4307    0.9224 H       1  UNL1        0.0464
     44 H           8.5220    0.6528   -0.3650 H       1  UNL1        0.0464
     45 H           9.1831    1.3235    1.1593 H       1  UNL1        0.0464
     46 H           1.8459   -1.4086    1.0946 H       1  UNL1        0.0279
     47 H           0.0983   -1.0651    1.2926 H       1  UNL1        0.0279
     48 H           1.3414    0.2615    1.4950 H       1  UNL1        0.0279
     49 H          -3.1899   -2.3776    1.2879 H       1  UNL1        0.0656
     50 H          -5.5601   -2.3478    1.9356 H       1  UNL1        0.0639
     51 H          -7.8430   -0.6666    1.9958 H       1  UNL1        0.1656
@<TRIPOS>BOND
     1     1     2    1
     2     2     3   ar
     3     3     4   ar
     4     4     5   ar
     5     5     6    1
     6     5     7   ar
     7     7     8    1
     8     8     9    1
     9     9    10   ar
    10    10    11   ar
    11    11    12   ar
    12    12    13   ar
    13    13    14   ar
    14    14    15   ar
    15    15    16    1
    16    16    17    1
    17    17    18    1
    18    18    19    1
    19    19    20    1
    20    20    21    1
    21    20    22    2
    22    20    23    2
    23    15    24   ar
    24    24    25    1
    25    24    26   ar
    26     7    27   ar
    27    27    28   ar
    28    28    29   ar
    29    29    30   ar
    30    30     2   ar
    31    29     4   ar
    32    26     9   ar
    33    26    13   ar
    34     1    31    1
    35     1    32    1
    36     1    33    1
    37     3    34    1
    38    11    35    1
    39    14    36    1
    40    17    37    1
    41    17    38    1
    42    18    39    1
    43    18    40    1
    44    19    41    1
    45    19    42    1
    46    21    43    1
    47    21    44    1
    48    21    45    1
    49    25    46    1
    50    25    47    1
    51    25    48    1
    52    27    49    1
    53    28    50    1
    54    30    51    1
