@<TRIPOS>MOLECULE
*****
 62 61 0 0 0
SMALL
GASTEIGER

@<TRIPOS>ATOM
      1 C          -6.7304    3.5620   -0.6346 C.3     1  UNL1       -0.0109
      2 S          -5.2306    2.5645   -0.4037 S.3     1  UNL1       -0.0945
      3 C          -5.7451    0.8556   -0.4207 C.2     1  UNL1        0.1464
      4 N          -7.1704    0.7748   -0.6083 N.pl3   1  UNL1       -0.3381
      5 N          -5.1444   -0.2614   -0.3070 N.2     1  UNL1       -0.2637
      6 C          -5.8139   -1.5304   -0.3579 C.3     1  UNL1        0.0422
      7 C          -5.4079   -2.4151    0.7643 C.3     1  UNL1       -0.0333
      8 C          -3.9532   -2.7759    0.7325 C.3     1  UNL1       -0.0514
      9 C          -3.0763   -1.5848    0.8184 C.3     1  UNL1       -0.0530
     10 C          -1.6106   -2.0494    0.8945 C.3     1  UNL1       -0.0531
     11 C          -1.2782   -2.8224   -0.3331 C.3     1  UNL1       -0.0531
     12 C           0.1714   -3.2727   -0.3077 C.3     1  UNL1       -0.0531
     13 C           1.0660   -2.0853   -0.2193 C.3     1  UNL1       -0.0531
     14 C           0.8795   -1.1732   -1.3906 C.3     1  UNL1       -0.0531
     15 C           1.8516   -0.0094   -1.2613 C.3     1  UNL1       -0.0531
     16 C           1.6681    0.8108   -0.0435 C.3     1  UNL1       -0.0530
     17 C           2.6266    1.9679   -0.0012 C.3     1  UNL1       -0.0514
     18 C           4.0381    1.4667    0.0049 C.3     1  UNL1       -0.0333
     19 C           5.0253    2.6321    0.0640 C.3     1  UNL1        0.0422
     20 N           6.3469    2.0639    0.0666 N.2     1  UNL1       -0.2637
     21 C           7.4127    2.7357    0.2732 C.2     1  UNL1        0.1464
     22 N           7.3462    4.1159    0.5177 N.pl3   1  UNL1       -0.3381
     23 S           8.9733    1.8608    0.2395 S.3     1  UNL1       -0.0945
     24 C           8.7567    0.1025   -0.0954 C.3     1  UNL1       -0.0109
     25 H          -7.5374    3.0597   -0.0258 H       1  UNL1        0.0345
     26 H          -7.0122    3.5558   -1.6899 H       1  UNL1        0.0345
     27 H          -6.5035    4.5640   -0.2189 H       1  UNL1        0.0345
     28 H          -8.2046    0.7147   -0.7159 H       1  UNL1        0.1442
     29 H          -7.6187    0.7957   -1.5503 H       1  UNL1        0.1442
     30 H          -6.9064   -1.3079   -0.2450 H       1  UNL1        0.0509
     31 H          -5.6823   -2.0271   -1.3609 H       1  UNL1        0.0509
     32 H          -6.0474   -3.3355    0.8349 H       1  UNL1        0.0283
     33 H          -5.5678   -1.9005    1.7682 H       1  UNL1        0.0283
     34 H          -3.7266   -3.5463    1.5079 H       1  UNL1        0.0266
     35 H          -3.7448   -3.3189   -0.2510 H       1  UNL1        0.0266
     36 H          -3.2451   -0.9569    1.7023 H       1  UNL1        0.0265
     37 H          -3.0930   -1.0111   -0.1500 H       1  UNL1        0.0265
     38 H          -1.0366   -1.1264    1.0179 H       1  UNL1        0.0265
     39 H          -1.5711   -2.6973    1.8175 H       1  UNL1        0.0265
     40 H          -1.4446   -2.2261   -1.2240 H       1  UNL1        0.0265
     41 H          -1.8849   -3.7763   -0.3838 H       1  UNL1        0.0265
     42 H           0.3326   -3.8789   -1.2139 H       1  UNL1        0.0265
     43 H           0.3613   -3.9639    0.5509 H       1  UNL1        0.0265
     44 H           0.9126   -1.5023    0.7114 H       1  UNL1        0.0265
     45 H           2.1232   -2.4431   -0.1473 H       1  UNL1        0.0265
     46 H          -0.1503   -0.7632   -1.4583 H       1  UNL1        0.0265
     47 H           1.1021   -1.6693   -2.3603 H       1  UNL1        0.0265
     48 H           1.7718    0.5430   -2.2087 H       1  UNL1        0.0265
     49 H           2.8689   -0.4705   -1.2753 H       1  UNL1        0.0265
     50 H           1.8819    0.1809    0.8730 H       1  UNL1        0.0265
     51 H           0.6539    1.2377    0.0712 H       1  UNL1        0.0265
     52 H           2.4827    2.5524   -0.9359 H       1  UNL1        0.0266
     53 H           2.3822    2.5692    0.8977 H       1  UNL1        0.0266
     54 H           4.3048    0.7771   -0.7980 H       1  UNL1        0.0283
     55 H           4.1856    0.9243    0.9763 H       1  UNL1        0.0283
     56 H           4.9524    3.2932   -0.8234 H       1  UNL1        0.0509
     57 H           4.7747    3.2336    0.9375 H       1  UNL1        0.0509
     58 H           6.5281    4.5429    0.9847 H       1  UNL1        0.1442
     59 H           8.1815    4.6604    0.1914 H       1  UNL1        0.1442
     60 H           9.2722   -0.1669   -1.0457 H       1  UNL1        0.0345
     61 H           9.2225   -0.5119    0.6922 H       1  UNL1        0.0345
     62 H           7.6807   -0.1372   -0.1227 H       1  UNL1        0.0345
@<TRIPOS>BOND
     1     1     2    1
     2     2     3    1
     3     3     4    1
     4     3     5    2
     5     5     6    1
     6     6     7    1
     7     7     8    1
     8     8     9    1
     9     9    10    1
    10    10    11    1
    11    11    12    1
    12    12    13    1
    13    13    14    1
    14    14    15    1
    15    15    16    1
    16    16    17    1
    17    17    18    1
    18    18    19    1
    19    19    20    1
    20    20    21    2
    21    21    22    1
    22    21    23    1
    23    23    24    1
    24     1    25    1
    25     1    26    1
    26     1    27    1
    27     4    28    1
    28     4    29    1
    29     6    30    1
    30     6    31    1
    31     7    32    1
    32     7    33    1
    33     8    34    1
    34     8    35    1
    35     9    36    1
    36     9    37    1
    37    10    38    1
    38    10    39    1
    39    11    40    1
    40    11    41    1
    41    12    42    1
    42    12    43    1
    43    13    44    1
    44    13    45    1
    45    14    46    1
    46    14    47    1
    47    15    48    1
    48    15    49    1
    49    16    50    1
    50    16    51    1
    51    17    52    1
    52    17    53    1
    53    18    54    1
    54    18    55    1
    55    19    56    1
    56    19    57    1
    57    22    58    1
    58    22    59    1
    59    24    60    1
    60    24    61    1
    61    24    62    1
