@<TRIPOS>MOLECULE
*****
 45 48 0 0 0
SMALL
GASTEIGER

@<TRIPOS>ATOM
      1 C           0.7260   -3.1309   -0.8263 C.3     1  UNL1       -0.0365
      2 C           1.5755   -1.9245   -0.6134 C.ar    1  UNL1       -0.0112
      3 C           2.9484   -2.0160   -0.5375 C.ar    1  UNL1        0.0329
      4 N           3.6999   -0.9230   -0.3662 N.ar    1  UNL1       -0.2545
      5 C           3.2176    0.3370   -0.2535 C.ar    1  UNL1        0.0755
      6 C           4.1624    1.4560   -0.0676 C.ar    1  UNL1        0.0369
      7 C           5.5327    1.1552   -0.0157 C.ar    1  UNL1       -0.0314
      8 C           6.5035    2.1062    0.1529 C.ar    1  UNL1        0.0418
      9 CL          8.2038    1.6959    0.2131 Cl      1  UNL1       -0.0835
     10 C           6.1125    3.4222    0.2773 C.ar    1  UNL1       -0.0406
     11 C           4.7745    3.7446    0.2299 C.ar    1  UNL1       -0.0244
     12 C           3.7924    2.7619    0.0570 C.ar    1  UNL1        0.1326
     13 F           2.5186    3.1551    0.0216 F       1  UNL1       -0.2048
     14 C           1.8669    0.4721   -0.3226 C.ar    1  UNL1       -0.0142
     15 C           1.0447   -0.6599   -0.5024 C.ar    1  UNL1        0.0378
     16 N          -0.3555   -0.5014   -0.5919 N.pl3   1  UNL1       -0.3124
     17 C          -1.1906   -1.0822    0.3946 C.ar    1  UNL1        0.0624
     18 C          -0.7351   -1.7630    1.4931 C.ar    1  UNL1       -0.0202
     19 C          -1.6234   -2.3227    2.4159 C.ar    1  UNL1        0.0302
     20 N          -2.9189   -2.1724    2.1932 N.ar    1  UNL1       -0.2517
     21 C          -3.4510   -1.5249    1.1511 C.ar    1  UNL1        0.1103
     22 C          -4.7464   -1.2411    0.7122 C.ar    1  UNL1        0.0521
     23 N          -4.6143   -0.5377   -0.4318 N.ar    1  UNL1       -0.2599
     24 C          -5.7490   -0.0535   -1.1986 C.3     1  UNL1        0.1174
     25 C          -6.1803    1.2951   -0.7839 C.2     1  UNL1        0.2320
     26 N          -5.6155    2.4343   -1.4104 N.am    1  UNL1       -0.3278
     27 O          -7.0395    1.4624    0.1146 O.2     1  UNL1       -0.2740
     28 N          -3.3103   -0.3853   -0.7009 N.ar    1  UNL1       -0.1673
     29 C          -2.5805   -0.9737    0.2418 C.ar    1  UNL1        0.1320
     30 H           1.1492   -3.7632   -1.6616 H       1  UNL1        0.0279
     31 H           0.7470   -3.8011    0.0616 H       1  UNL1        0.0279
     32 H          -0.2807   -2.8520   -1.1541 H       1  UNL1        0.0279
     33 H           3.3762   -3.0083   -0.6232 H       1  UNL1        0.0833
     34 H           5.8292    0.1186   -0.1144 H       1  UNL1        0.0639
     35 H           6.8438    4.2101    0.4124 H       1  UNL1        0.0633
     36 H           4.4488    4.7901    0.3278 H       1  UNL1        0.0647
     37 H           1.3947    1.4169   -0.2450 H       1  UNL1        0.0658
     38 H          -0.7678    0.0409   -1.3812 H       1  UNL1        0.1522
     39 H           0.3199   -1.8697    1.6724 H       1  UNL1        0.0652
     40 H          -1.1870   -2.8412    3.2502 H       1  UNL1        0.0830
     41 H          -5.6105   -1.5621    1.2479 H       1  UNL1        0.0848
     42 H          -6.6153   -0.7562   -1.0718 H       1  UNL1        0.0605
     43 H          -5.4615   -0.0935   -2.2652 H       1  UNL1        0.0605
     44 H          -4.5756    2.5251   -1.3878 H       1  UNL1        0.1450
     45 H          -6.1795    3.1596   -1.8768 H       1  UNL1        0.1450
@<TRIPOS>BOND
     1     1     2    1
     2     2     3   ar
     3     3     4   ar
     4     4     5   ar
     5     5     6    1
     6     6     7   ar
     7     7     8   ar
     8     8     9    1
     9     8    10   ar
    10    10    11   ar
    11    11    12   ar
    12    12    13    1
    13     5    14   ar
    14    14    15   ar
    15    15    16    1
    16    16    17    1
    17    17    18   ar
    18    18    19   ar
    19    19    20   ar
    20    20    21   ar
    21    21    22   ar
    22    22    23   ar
    23    23    24    1
    24    24    25    1
    25    25    26   am
    26    25    27    2
    27    23    28   ar
    28    28    29   ar
    29    15     2   ar
    30    29    17   ar
    31    12     6   ar
    32    29    21   ar
    33     1    30    1
    34     1    31    1
    35     1    32    1
    36     3    33    1
    37     7    34    1
    38    10    35    1
    39    11    36    1
    40    14    37    1
    41    16    38    1
    42    18    39    1
    43    19    40    1
    44    22    41    1
    45    24    42    1
    46    24    43    1
    47    26    44    1
    48    26    45    1
