
     RDKit          3D

 45 48  0  0  0  0  0  0  0  0999 V2000
    0.7260   -3.1309   -0.8263 C   0  0  0  0  0  0  0  0  0  0  0  0
    1.5755   -1.9245   -0.6134 C   0  0  0  0  0  0  0  0  0  0  0  0
    2.9484   -2.0160   -0.5375 C   0  0  0  0  0  0  0  0  0  0  0  0
    3.6999   -0.9230   -0.3662 N   0  0  0  0  0  0  0  0  0  0  0  0
    3.2176    0.3370   -0.2535 C   0  0  0  0  0  0  0  0  0  0  0  0
    4.1624    1.4560   -0.0676 C   0  0  0  0  0  0  0  0  0  0  0  0
    5.5327    1.1552   -0.0157 C   0  0  0  0  0  0  0  0  0  0  0  0
    6.5035    2.1062    0.1529 C   0  0  0  0  0  0  0  0  0  0  0  0
    8.2038    1.6959    0.2131 Cl  0  0  0  0  0  0  0  0  0  0  0  0
    6.1125    3.4222    0.2773 C   0  0  0  0  0  0  0  0  0  0  0  0
    4.7745    3.7446    0.2299 C   0  0  0  0  0  0  0  0  0  0  0  0
    3.7924    2.7619    0.0570 C   0  0  0  0  0  0  0  0  0  0  0  0
    2.5186    3.1551    0.0216 F   0  0  0  0  0  0  0  0  0  0  0  0
    1.8669    0.4721   -0.3226 C   0  0  0  0  0  0  0  0  0  0  0  0
    1.0447   -0.6599   -0.5024 C   0  0  0  0  0  0  0  0  0  0  0  0
   -0.3555   -0.5014   -0.5919 N   0  0  0  0  0  0  0  0  0  0  0  0
   -1.1906   -1.0822    0.3946 C   0  0  0  0  0  0  0  0  0  0  0  0
   -0.7351   -1.7630    1.4931 C   0  0  0  0  0  0  0  0  0  0  0  0
   -1.6234   -2.3227    2.4159 C   0  0  0  0  0  0  0  0  0  0  0  0
   -2.9189   -2.1724    2.1932 N   0  0  0  0  0  0  0  0  0  0  0  0
   -3.4510   -1.5249    1.1511 C   0  0  0  0  0  0  0  0  0  0  0  0
   -4.7464   -1.2411    0.7122 C   0  0  0  0  0  0  0  0  0  0  0  0
   -4.6143   -0.5377   -0.4318 N   0  0  0  0  0  0  0  0  0  0  0  0
   -5.7490   -0.0535   -1.1986 C   0  0  0  0  0  0  0  0  0  0  0  0
   -6.1803    1.2951   -0.7839 C   0  0  0  0  0  0  0  0  0  0  0  0
   -5.6155    2.4343   -1.4104 N   0  0  0  0  0  0  0  0  0  0  0  0
   -7.0395    1.4624    0.1146 O   0  0  0  0  0  0  0  0  0  0  0  0
   -3.3103   -0.3853   -0.7009 N   0  0  0  0  0  0  0  0  0  0  0  0
   -2.5805   -0.9737    0.2418 C   0  0  0  0  0  0  0  0  0  0  0  0
    1.1492   -3.7632   -1.6616 H   0  0  0  0  0  0  0  0  0  0  0  0
    0.7470   -3.8011    0.0616 H   0  0  0  0  0  0  0  0  0  0  0  0
   -0.2807   -2.8520   -1.1541 H   0  0  0  0  0  0  0  0  0  0  0  0
    3.3762   -3.0083   -0.6232 H   0  0  0  0  0  0  0  0  0  0  0  0
    5.8292    0.1186   -0.1144 H   0  0  0  0  0  0  0  0  0  0  0  0
    6.8438    4.2101    0.4124 H   0  0  0  0  0  0  0  0  0  0  0  0
    4.4488    4.7901    0.3278 H   0  0  0  0  0  0  0  0  0  0  0  0
    1.3947    1.4169   -0.2450 H   0  0  0  0  0  0  0  0  0  0  0  0
   -0.7678    0.0409   -1.3812 H   0  0  0  0  0  0  0  0  0  0  0  0
    0.3199   -1.8697    1.6724 H   0  0  0  0  0  0  0  0  0  0  0  0
   -1.1870   -2.8412    3.2502 H   0  0  0  0  0  0  0  0  0  0  0  0
   -5.6105   -1.5621    1.2479 H   0  0  0  0  0  0  0  0  0  0  0  0
   -6.6153   -0.7562   -1.0718 H   0  0  0  0  0  0  0  0  0  0  0  0
   -5.4615   -0.0935   -2.2652 H   0  0  0  0  0  0  0  0  0  0  0  0
   -4.5756    2.5251   -1.3878 H   0  0  0  0  0  0  0  0  0  0  0  0
   -6.1795    3.1596   -1.8768 H   0  0  0  0  0  0  0  0  0  0  0  0
  1  2  1  0
  2  3  2  0
  3  4  1  0
  4  5  2  0
  5  6  1  0
  6  7  2  0
  7  8  1  0
  8  9  1  0
  8 10  2  0
 10 11  1  0
 11 12  2  0
 12 13  1  0
  5 14  1  0
 14 15  2  0
 15 16  1  0
 16 17  1  0
 17 18  2  0
 18 19  1  0
 19 20  2  0
 20 21  1  0
 21 22  2  0
 22 23  1  0
 23 24  1  0
 24 25  1  0
 25 26  1  0
 25 27  2  0
 23 28  1  0
 28 29  2  0
 15  2  1  0
 29 17  1  0
 12  6  1  0
 29 21  1  0
  1 30  1  0
  1 31  1  0
  1 32  1  0
  3 33  1  0
  7 34  1  0
 10 35  1  0
 11 36  1  0
 14 37  1  0
 16 38  1  0
 18 39  1  0
 19 40  1  0
 22 41  1  0
 24 42  1  0
 24 43  1  0
 26 44  1  0
 26 45  1  0
M  END
$$$$
