@<TRIPOS>MOLECULE
*****
 57 59 0 0 0
SMALL
GASTEIGER

@<TRIPOS>ATOM
      1 C          -2.0715   -1.0128    0.4903 C.3     1  UNL1        0.0827
      2 N          -2.6313   -1.7290   -0.6386 N.3     1  UNL1       -0.3199
      3 C          -2.5315    0.4126    0.4507 C.3     1  UNL1       -0.0264
      4 C          -4.0052    0.5198    0.5438 C.3     1  UNL1       -0.0392
      5 C          -4.8165   -0.1382   -0.5126 C.3     1  UNL1       -0.0501
      6 C          -4.5305    0.4710   -1.8881 C.3     1  UNL1       -0.0528
      7 C          -5.1029    1.8954   -1.8318 C.3     1  UNL1       -0.0530
      8 C          -4.3777    2.6298   -0.7444 C.3     1  UNL1       -0.0528
      9 C          -4.4754    1.9675    0.6100 C.3     1  UNL1       -0.0501
     10 C          -0.5967   -1.1353    0.4148 C.2     1  UNL1        0.2330
     11 O          -0.5371   -1.6651   -0.7228 O.2     1  UNL1       -0.2739
     12 N           0.2798   -0.7108    1.4467 N.am    1  UNL1       -0.2886
     13 C          -0.2204   -0.1328    2.6975 C.3     1  UNL1        0.0156
     14 C           0.7295   -0.6984    3.7657 C.3     1  UNL1       -0.0350
     15 C           1.7813   -1.4830    2.9662 C.3     1  UNL1       -0.0243
     16 C           1.7054   -0.6704    1.6641 C.3     1  UNL1        0.1022
     17 C           2.5200   -1.2277    0.5895 C.2     1  UNL1        0.2338
     18 O           2.0622   -1.6850   -0.4857 O.2     1  UNL1       -0.2738
     19 N           3.9087   -1.2408    0.8006 N.am    1  UNL1       -0.3097
     20 C           4.9042   -1.7428   -0.1285 C.3     1  UNL1        0.0369
     21 C           5.0921   -0.7103   -1.1802 C.ar    1  UNL1       -0.0289
     22 C           6.0511    0.2768   -0.9153 C.ar    1  UNL1       -0.0387
     23 C           6.3840    1.3199   -1.7552 C.ar    1  UNL1        0.0413
     24 CL          7.6140    2.4857   -1.2832 Cl      1  UNL1       -0.0835
     25 C           5.7187    1.4033   -2.9615 C.ar    1  UNL1       -0.0434
     26 C           4.7579    0.4409   -3.2630 C.ar    1  UNL1       -0.0601
     27 C           4.4583   -0.5803   -2.3973 C.ar    1  UNL1       -0.0570
     28 H          -2.4795   -1.5339    1.3929 H       1  UNL1        0.0554
     29 H          -2.4725   -2.7594   -0.4484 H       1  UNL1        0.1189
     30 H          -2.2485   -1.4306   -1.5465 H       1  UNL1        0.1189
     31 H          -2.1038    1.0323    1.2740 H       1  UNL1        0.0288
     32 H          -2.1863    0.9347   -0.4794 H       1  UNL1        0.0288
     33 H          -4.3179    0.0758    1.5250 H       1  UNL1        0.0301
     34 H          -4.8697   -1.2224   -0.5084 H       1  UNL1        0.0268
     35 H          -5.8908    0.1924   -0.3102 H       1  UNL1        0.0268
     36 H          -3.4622    0.5577   -2.0887 H       1  UNL1        0.0265
     37 H          -5.1072   -0.1170   -2.6147 H       1  UNL1        0.0265
     38 H          -6.1911    1.8722   -1.7389 H       1  UNL1        0.0265
     39 H          -4.7759    2.3529   -2.7994 H       1  UNL1        0.0265
     40 H          -3.3169    2.7034   -1.0344 H       1  UNL1        0.0265
     41 H          -4.8702    3.6314   -0.6308 H       1  UNL1        0.0265
     42 H          -3.9123    2.5750    1.3162 H       1  UNL1        0.0268
     43 H          -5.5471    1.9409    0.8933 H       1  UNL1        0.0268
     44 H          -0.1134    0.9650    2.6253 H       1  UNL1        0.0465
     45 H          -1.2621   -0.4506    2.9139 H       1  UNL1        0.0465
     46 H           0.2083   -1.3274    4.4958 H       1  UNL1        0.0281
     47 H           1.2763    0.1598    4.2134 H       1  UNL1        0.0281
     48 H           1.4712   -2.5289    2.8281 H       1  UNL1        0.0288
     49 H           2.7890   -1.3690    3.4140 H       1  UNL1        0.0288
     50 H           2.0212    0.3542    1.9729 H       1  UNL1        0.0597
     51 H           4.3314   -0.8636    1.6994 H       1  UNL1        0.1491
     52 H           4.5503   -2.6862   -0.6093 H       1  UNL1        0.0512
     53 H           5.8796   -1.9360    0.3370 H       1  UNL1        0.0512
     54 H           6.6033    0.2445    0.0348 H       1  UNL1        0.0635
     55 H           5.9618    2.2102   -3.6340 H       1  UNL1        0.0632
     56 H           4.2392    0.5038   -4.1995 H       1  UNL1        0.0618
     57 H           3.7254   -1.3412   -2.6044 H       1  UNL1        0.0621
@<TRIPOS>BOND
     1     1     2    1
     2     1     3    1
     3     3     4    1
     4     4     5    1
     5     5     6    1
     6     6     7    1
     7     7     8    1
     8     8     9    1
     9     1    10    1
    10    10    11    2
    11    10    12   am
    12    12    13    1
    13    13    14    1
    14    14    15    1
    15    15    16    1
    16    16    17    1
    17    17    18    2
    18    17    19   am
    19    19    20    1
    20    20    21    1
    21    21    22   ar
    22    22    23   ar
    23    23    24    1
    24    23    25   ar
    25    25    26   ar
    26    26    27   ar
    27     9     4    1
    28    16    12    1
    29    27    21   ar
    30     1    28    1
    31     2    29    1
    32     2    30    1
    33     3    31    1
    34     3    32    1
    35     4    33    1
    36     5    34    1
    37     5    35    1
    38     6    36    1
    39     6    37    1
    40     7    38    1
    41     7    39    1
    42     8    40    1
    43     8    41    1
    44     9    42    1
    45     9    43    1
    46    13    44    1
    47    13    45    1
    48    14    46    1
    49    14    47    1
    50    15    48    1
    51    15    49    1
    52    16    50    1
    53    19    51    1
    54    20    52    1
    55    20    53    1
    56    22    54    1
    57    25    55    1
    58    26    56    1
    59    27    57    1
