
     RDKit          3D

 57 59  0  0  0  0  0  0  0  0999 V2000
   -2.0715   -1.0128    0.4903 C   0  0  2  0  0  0  0  0  0  0  0  0
   -2.6313   -1.7290   -0.6386 N   0  0  0  0  0  0  0  0  0  0  0  0
   -2.5315    0.4126    0.4507 C   0  0  0  0  0  0  0  0  0  0  0  0
   -4.0052    0.5198    0.5438 C   0  0  0  0  0  0  0  0  0  0  0  0
   -4.8165   -0.1382   -0.5126 C   0  0  0  0  0  0  0  0  0  0  0  0
   -4.5305    0.4710   -1.8881 C   0  0  0  0  0  0  0  0  0  0  0  0
   -5.1029    1.8954   -1.8318 C   0  0  0  0  0  0  0  0  0  0  0  0
   -4.3777    2.6298   -0.7444 C   0  0  0  0  0  0  0  0  0  0  0  0
   -4.4754    1.9675    0.6100 C   0  0  0  0  0  0  0  0  0  0  0  0
   -0.5967   -1.1353    0.4148 C   0  0  0  0  0  0  0  0  0  0  0  0
   -0.5371   -1.6651   -0.7228 O   0  0  0  0  0  0  0  0  0  0  0  0
    0.2798   -0.7108    1.4467 N   0  0  0  0  0  0  0  0  0  0  0  0
   -0.2204   -0.1328    2.6975 C   0  0  0  0  0  0  0  0  0  0  0  0
    0.7295   -0.6984    3.7657 C   0  0  0  0  0  0  0  0  0  0  0  0
    1.7813   -1.4830    2.9662 C   0  0  0  0  0  0  0  0  0  0  0  0
    1.7054   -0.6704    1.6641 C   0  0  1  0  0  0  0  0  0  0  0  0
    2.5200   -1.2277    0.5895 C   0  0  0  0  0  0  0  0  0  0  0  0
    2.0622   -1.6850   -0.4857 O   0  0  0  0  0  0  0  0  0  0  0  0
    3.9087   -1.2408    0.8006 N   0  0  0  0  0  0  0  0  0  0  0  0
    4.9042   -1.7428   -0.1285 C   0  0  0  0  0  0  0  0  0  0  0  0
    5.0921   -0.7103   -1.1802 C   0  0  0  0  0  0  0  0  0  0  0  0
    6.0511    0.2768   -0.9153 C   0  0  0  0  0  0  0  0  0  0  0  0
    6.3840    1.3199   -1.7552 C   0  0  0  0  0  0  0  0  0  0  0  0
    7.6140    2.4857   -1.2832 Cl  0  0  0  0  0  0  0  0  0  0  0  0
    5.7187    1.4033   -2.9615 C   0  0  0  0  0  0  0  0  0  0  0  0
    4.7579    0.4409   -3.2630 C   0  0  0  0  0  0  0  0  0  0  0  0
    4.4583   -0.5803   -2.3973 C   0  0  0  0  0  0  0  0  0  0  0  0
   -2.4795   -1.5339    1.3929 H   0  0  0  0  0  0  0  0  0  0  0  0
   -2.4725   -2.7594   -0.4484 H   0  0  0  0  0  0  0  0  0  0  0  0
   -2.2485   -1.4306   -1.5465 H   0  0  0  0  0  0  0  0  0  0  0  0
   -2.1038    1.0323    1.2740 H   0  0  0  0  0  0  0  0  0  0  0  0
   -2.1863    0.9347   -0.4794 H   0  0  0  0  0  0  0  0  0  0  0  0
   -4.3179    0.0758    1.5250 H   0  0  0  0  0  0  0  0  0  0  0  0
   -4.8697   -1.2224   -0.5084 H   0  0  0  0  0  0  0  0  0  0  0  0
   -5.8908    0.1924   -0.3102 H   0  0  0  0  0  0  0  0  0  0  0  0
   -3.4622    0.5577   -2.0887 H   0  0  0  0  0  0  0  0  0  0  0  0
   -5.1072   -0.1170   -2.6147 H   0  0  0  0  0  0  0  0  0  0  0  0
   -6.1911    1.8722   -1.7389 H   0  0  0  0  0  0  0  0  0  0  0  0
   -4.7759    2.3529   -2.7994 H   0  0  0  0  0  0  0  0  0  0  0  0
   -3.3169    2.7034   -1.0344 H   0  0  0  0  0  0  0  0  0  0  0  0
   -4.8702    3.6314   -0.6308 H   0  0  0  0  0  0  0  0  0  0  0  0
   -3.9123    2.5750    1.3162 H   0  0  0  0  0  0  0  0  0  0  0  0
   -5.5471    1.9409    0.8933 H   0  0  0  0  0  0  0  0  0  0  0  0
   -0.1134    0.9650    2.6253 H   0  0  0  0  0  0  0  0  0  0  0  0
   -1.2621   -0.4506    2.9139 H   0  0  0  0  0  0  0  0  0  0  0  0
    0.2083   -1.3274    4.4958 H   0  0  0  0  0  0  0  0  0  0  0  0
    1.2763    0.1598    4.2134 H   0  0  0  0  0  0  0  0  0  0  0  0
    1.4712   -2.5289    2.8281 H   0  0  0  0  0  0  0  0  0  0  0  0
    2.7890   -1.3690    3.4140 H   0  0  0  0  0  0  0  0  0  0  0  0
    2.0212    0.3542    1.9729 H   0  0  0  0  0  0  0  0  0  0  0  0
    4.3314   -0.8636    1.6994 H   0  0  0  0  0  0  0  0  0  0  0  0
    4.5503   -2.6862   -0.6093 H   0  0  0  0  0  0  0  0  0  0  0  0
    5.8796   -1.9360    0.3370 H   0  0  0  0  0  0  0  0  0  0  0  0
    6.6033    0.2445    0.0348 H   0  0  0  0  0  0  0  0  0  0  0  0
    5.9618    2.2102   -3.6340 H   0  0  0  0  0  0  0  0  0  0  0  0
    4.2392    0.5038   -4.1995 H   0  0  0  0  0  0  0  0  0  0  0  0
    3.7254   -1.3412   -2.6044 H   0  0  0  0  0  0  0  0  0  0  0  0
  1  2  1  0
  1  3  1  0
  3  4  1  0
  4  5  1  0
  5  6  1  0
  6  7  1  0
  7  8  1  0
  8  9  1  0
  1 10  1  0
 10 11  2  0
 10 12  1  0
 12 13  1  0
 13 14  1  0
 14 15  1  0
 15 16  1  0
 16 17  1  0
 17 18  2  0
 17 19  1  0
 19 20  1  0
 20 21  1  0
 21 22  2  0
 22 23  1  0
 23 24  1  0
 23 25  2  0
 25 26  1  0
 26 27  2  0
  9  4  1  0
 16 12  1  0
 27 21  1  0
  1 28  1  1
  2 29  1  0
  2 30  1  0
  3 31  1  0
  3 32  1  0
  4 33  1  0
  5 34  1  0
  5 35  1  0
  6 36  1  0
  6 37  1  0
  7 38  1  0
  7 39  1  0
  8 40  1  0
  8 41  1  0
  9 42  1  0
  9 43  1  0
 13 44  1  0
 13 45  1  0
 14 46  1  0
 14 47  1  0
 15 48  1  0
 15 49  1  0
 16 50  1  1
 19 51  1  0
 20 52  1  0
 20 53  1  0
 22 54  1  0
 25 55  1  0
 26 56  1  0
 27 57  1  0
M  END
$$$$
