@<TRIPOS>MOLECULE
*****
 8 7 0 0 0
SMALL
GASTEIGER

@<TRIPOS>ATOM
      1 O           1.4765   -0.7282    0.1260 O.3     1  UNL1       -0.4788
      2 C           0.5179    0.2099   -0.2181 C.2     1  UNL1        0.3378
      3 O           0.7535    1.2381   -0.9328 O.2     1  UNL1       -0.2480
      4 C          -0.8731    0.0024    0.2786 C.3     1  UNL1        0.2034
      5 CL         -1.9460    1.2993   -0.2634 Cl      1  UNL1       -0.0924
      6 CL         -1.4759   -1.5011   -0.4273 Cl      1  UNL1       -0.0924
      7 H           2.4621   -0.4405    0.0566 H       1  UNL1        0.2951
      8 H          -0.9150   -0.0799    1.3804 H       1  UNL1        0.0752
@<TRIPOS>BOND
     1     1     2    1
     2     2     3    2
     3     2     4    1
     4     4     5    1
     5     4     6    1
     6     1     7    1
     7     4     8    1
