
     RDKit          3D

 47 48  0  0  0  0  0  0  0  0999 V2000
    6.0197   -0.7015   -0.0031 C   0  0  0  0  0  0  0  0  0  0  0  0
    4.9204   -0.3778    0.8007 O   0  0  0  0  0  0  0  0  0  0  0  0
    3.6493   -0.2530    0.3038 C   0  0  0  0  0  0  0  0  0  0  0  0
    3.2189   -0.4061   -0.9862 C   0  0  0  0  0  0  0  0  0  0  0  0
    1.8838   -0.2418   -1.3166 C   0  0  0  0  0  0  0  0  0  0  0  0
    0.8749    0.0862   -0.3950 C   0  0  0  0  0  0  0  0  0  0  0  0
    1.3803    0.2233    0.8736 C   0  0  0  0  0  0  0  0  0  0  0  0
    2.6967    0.0696    1.2480 C   0  0  0  0  0  0  0  0  0  0  0  0
   -0.4953    0.2126   -0.8755 C   0  0  0  0  0  0  0  0  0  0  0  0
   -1.0106    1.5803   -1.1577 C   0  0  0  0  0  0  0  0  0  0  0  0
   -1.0578    2.5397   -0.1372 N   0  0  0  0  0  0  0  0  0  0  0  0
    0.1980    3.0572    0.3178 C   0  0  0  0  0  0  0  0  0  0  0  0
   -1.9230    3.6375   -0.5042 C   0  0  0  0  0  0  0  0  0  0  0  0
   -1.5091   -0.6733   -0.2155 C   0  0  0  0  0  0  0  0  0  0  0  0
   -2.7391   -0.3687   -0.8426 O   0  0  0  0  0  0  0  0  0  0  0  0
   -1.2394   -2.1184   -0.5440 C   0  0  0  0  0  0  0  0  0  0  0  0
   -2.1709   -3.0737    0.1169 C   0  0  0  0  0  0  0  0  0  0  0  0
   -3.0143   -2.5951    1.2196 C   0  0  0  0  0  0  0  0  0  0  0  0
   -3.0894   -1.1422    1.4908 C   0  0  0  0  0  0  0  0  0  0  0  0
   -1.6986   -0.5263    1.2433 C   0  0  0  0  0  0  0  0  0  0  0  0
    6.9372   -0.1754    0.3672 H   0  0  0  0  0  0  0  0  0  0  0  0
    6.2390   -1.7887    0.1666 H   0  0  0  0  0  0  0  0  0  0  0  0
    5.8701   -0.4294   -1.0483 H   0  0  0  0  0  0  0  0  0  0  0  0
    3.9727   -0.6590   -1.7153 H   0  0  0  0  0  0  0  0  0  0  0  0
    1.6926   -0.3965   -2.3890 H   0  0  0  0  0  0  0  0  0  0  0  0
    0.6542    0.4792    1.6326 H   0  0  0  0  0  0  0  0  0  0  0  0
    2.9371    0.2152    2.3140 H   0  0  0  0  0  0  0  0  0  0  0  0
   -0.4485   -0.2454   -1.9419 H   0  0  0  0  0  0  0  0  0  0  0  0
   -2.0493    1.4353   -1.5833 H   0  0  0  0  0  0  0  0  0  0  0  0
   -0.4509    2.0504   -2.0298 H   0  0  0  0  0  0  0  0  0  0  0  0
    1.0684    2.7867   -0.3137 H   0  0  0  0  0  0  0  0  0  0  0  0
    0.3239    2.8280    1.3958 H   0  0  0  0  0  0  0  0  0  0  0  0
    0.1521    4.1900    0.2370 H   0  0  0  0  0  0  0  0  0  0  0  0
   -1.5287    4.0896   -1.4566 H   0  0  0  0  0  0  0  0  0  0  0  0
   -2.9739    3.2970   -0.6852 H   0  0  0  0  0  0  0  0  0  0  0  0
   -1.9142    4.4236    0.2634 H   0  0  0  0  0  0  0  0  0  0  0  0
   -2.7886   -0.7408   -1.7376 H   0  0  0  0  0  0  0  0  0  0  0  0
   -0.1745   -2.3176   -0.2740 H   0  0  0  0  0  0  0  0  0  0  0  0
   -1.2870   -2.2036   -1.6498 H   0  0  0  0  0  0  0  0  0  0  0  0
   -1.5466   -3.9355    0.4986 H   0  0  0  0  0  0  0  0  0  0  0  0
   -2.7891   -3.5726   -0.6844 H   0  0  0  0  0  0  0  0  0  0  0  0
   -4.0807   -2.9256    1.0318 H   0  0  0  0  0  0  0  0  0  0  0  0
   -2.7754   -3.1183    2.1937 H   0  0  0  0  0  0  0  0  0  0  0  0
   -3.4155   -0.9895    2.5306 H   0  0  0  0  0  0  0  0  0  0  0  0
   -3.7596   -0.5799    0.8288 H   0  0  0  0  0  0  0  0  0  0  0  0
   -1.0265   -1.1716    1.8551 H   0  0  0  0  0  0  0  0  0  0  0  0
   -1.7330    0.5262    1.5570 H   0  0  0  0  0  0  0  0  0  0  0  0
  1  2  1  0
  2  3  1  0
  3  4  2  0
  4  5  1  0
  5  6  2  0
  6  7  1  0
  7  8  2  0
  6  9  1  0
  9 10  1  0
 10 11  1  0
 11 12  1  0
 11 13  1  0
  9 14  1  0
 14 15  1  0
 14 16  1  0
 16 17  1  0
 17 18  1  0
 18 19  1  0
 19 20  1  0
  8  3  1  0
 20 14  1  0
  1 21  1  0
  1 22  1  0
  1 23  1  0
  4 24  1  0
  5 25  1  0
  7 26  1  0
  8 27  1  0
  9 28  1  0
 10 29  1  0
 10 30  1  0
 12 31  1  0
 12 32  1  0
 12 33  1  0
 13 34  1  0
 13 35  1  0
 13 36  1  0
 15 37  1  0
 16 38  1  0
 16 39  1  0
 17 40  1  0
 17 41  1  0
 18 42  1  0
 18 43  1  0
 19 44  1  0
 19 45  1  0
 20 46  1  0
 20 47  1  0
M  END
$$$$
