
     RDKit          3D

127132  0  0  0  0  0  0  0  0999 V2000
   -5.5321    2.6215   -1.9450 C   0  0  0  0  0  0  0  0  0  0  0  0
   -6.2837    2.5997   -0.7591 O   0  0  0  0  0  0  0  0  0  0  0  0
   -5.7822    1.3513   -0.1365 C   0  0  1  0  0  0  0  0  0  0  0  0
   -4.8539    1.9899    0.8809 C   0  0  0  0  0  0  0  0  0  0  0  0
   -3.8274    1.7473    1.6805 C   0  0  0  0  0  0  0  0  0  0  0  0
   -2.9876    2.4492    2.6299 O   0  0  0  0  0  0  0  0  0  0  0  0
   -1.7543    2.7104    1.9838 C   0  0  1  0  0  0  0  0  0  0  0  0
   -2.0987    2.9025    0.4866 C   0  0  0  0  0  0  0  0  0  0  0  0
   -0.9421    3.7749    2.3479 O   0  0  0  0  0  0  0  0  0  0  0  0
    0.0567    3.7481    1.3118 C   0  0  0  0  0  0  0  0  0  0  0  0
    0.0990    2.3817    1.1864 C   0  0  0  0  0  0  0  0  0  0  0  0
   -0.7816    1.5901    2.0443 C   0  0  0  0  0  0  0  0  0  0  0  0
   -0.4807    0.4480    2.4649 O   0  0  0  0  0  0  0  0  0  0  0  0
    0.8658    1.7814    0.3330 C   0  0  0  0  0  0  0  0  0  0  0  0
    1.7645    2.2839   -0.5895 C   0  0  0  0  0  0  0  0  0  0  0  0
    1.7554    3.6959   -0.4810 C   0  0  0  0  0  0  0  0  0  0  0  0
    2.5023    4.6327   -1.1957 O   0  0  0  0  0  0  0  0  0  0  0  0
    0.9480    4.3610    0.4165 C   0  0  0  0  0  0  0  0  0  0  0  0
    0.8695    5.8468    0.5944 C   0  0  0  0  0  0  0  0  0  0  0  0
    2.6590    1.9231   -1.5672 C   0  0  0  0  0  0  0  0  0  0  0  0
    3.4171    2.8598   -2.3091 O   0  0  0  0  0  0  0  0  0  0  0  0
    3.3255    0.8897   -2.3461 C   0  0  0  0  0  0  0  0  0  0  0  0
    2.7517   -0.4764   -2.2778 N   0  0  0  0  0  0  0  0  0  0  0  0
    2.7060   -1.8513   -2.2217 C   0  0  0  0  0  0  0  0  0  0  0  0
    3.9683   -1.8335   -2.3130 O   0  0  0  0  0  0  0  0  0  0  0  0
    2.2110   -3.1757   -2.1250 C   0  0  0  0  0  0  0  0  0  0  0  0
    3.0119   -4.3837   -2.2364 C   0  0  0  0  0  0  0  0  0  0  0  0
    0.9220   -3.4275   -1.9431 C   0  0  0  0  0  0  0  0  0  0  0  0
   -0.1382   -2.3851   -1.8467 C   0  0  0  0  0  0  0  0  0  0  0  0
   -1.4000   -2.7624   -1.5810 C   0  0  0  0  0  0  0  0  0  0  0  0
   -2.5611   -1.8371   -1.4753 C   0  0  2  0  0  0  0  0  0  0  0  0
   -2.5652   -1.1042   -0.2197 C   0  0  0  0  0  0  0  0  0  0  0  0
   -3.7271   -2.3534   -2.1880 C   0  0  2  0  0  0  0  0  0  0  0  0
   -3.5066   -2.4357   -3.5386 O   0  0  0  0  0  0  0  0  0  0  0  0
   -5.0705   -1.7468   -1.8064 C   0  0  1  0  0  0  0  0  0  0  0  0
   -6.0025   -2.3558   -2.9608 C   0  0  0  0  0  0  0  0  0  0  0  0
   -5.5905   -2.3956   -0.5940 C   0  0  1  0  0  0  0  0  0  0  0  0
   -4.6824   -2.5931    0.4743 O   0  0  0  0  0  0  0  0  0  0  0  0
   -6.8660   -1.9432    0.0188 C   0  0  1  0  0  0  0  0  0  0  0  0
   -7.1126   -3.0724    1.1071 C   0  0  0  0  0  0  0  0  0  0  0  0
   -7.0885   -0.7258    0.7805 C   0  0  2  0  0  0  0  0  0  0  0  0
   -8.4225   -0.7934    1.2301 O   0  0  0  0  0  0  0  0  0  0  0  0
   -9.2509   -0.7901    2.1667 C   0  0  0  0  0  0  0  0  0  0  0  0
  -10.3055   -0.7972    3.2153 C   0  0  0  0  0  0  0  0  0  0  0  0
   -8.2898   -0.6415    3.0377 O   0  0  0  0  0  0  0  0  0  0  0  0
   -6.9550    0.6616    0.2581 C   0  0  2  0  0  0  0  0  0  0  0  0
   -8.0328    0.9206   -0.8196 C   0  0  0  0  0  0  0  0  0  0  0  0
    2.3959    0.8080   -1.3542 C   0  0  0  0  0  0  0  0  0  0  0  0
    4.0386    0.7239   -1.1941 C   0  0  0  0  0  0  0  0  0  0  0  0
    5.2893    0.7068   -1.3113 N   0  0  0  0  0  0  0  0  0  0  0  0
    6.3891    0.5198   -0.5332 N   0  0  0  0  0  0  0  0  0  0  0  0
    6.9643   -0.7752   -0.3102 C   0  0  0  0  0  0  0  0  0  0  0  0
    7.4887   -0.8712    1.0952 C   0  0  0  0  0  0  0  0  0  0  0  0
    8.4856    0.1021    1.3730 N   0  0  0  0  0  0  0  0  0  0  0  0
    8.4173    1.2133    0.4057 C   0  0  0  0  0  0  0  0  0  0  0  0
    7.0281    1.6660    0.0984 C   0  0  0  0  0  0  0  0  0  0  0  0
    9.8602   -0.3767    1.2655 C   0  0  0  0  0  0  0  0  0  0  0  0
   10.0201   -1.6938    1.9333 C   0  0  0  0  0  0  0  0  0  0  0  0
   11.5514   -1.6760    2.1484 C   0  0  0  0  0  0  0  0  0  0  0  0
   11.7484   -0.2883    2.7227 C   0  0  0  0  0  0  0  0  0  0  0  0
   10.6186    0.5650    2.2569 C   0  0  0  0  0  0  0  0  0  0  0  0
    1.5225    0.9242   -0.4117 C   0  0  0  0  0  0  0  0  0  0  0  0
    0.8938   -0.1704    0.2258 O   0  0  0  0  0  0  0  0  0  0  0  0
   -4.4533    2.6640   -1.5932 H   0  0  0  0  0  0  0  0  0  0  0  0
   -5.6159    1.6977   -2.5335 H   0  0  0  0  0  0  0  0  0  0  0  0
   -5.7489    3.5389   -2.5264 H   0  0  0  0  0  0  0  0  0  0  0  0
   -5.1306    1.0191   -0.9744 H   0  0  0  0  0  0  0  0  0  0  0  0
   -4.9496    3.0471    1.1892 H   0  0  0  0  0  0  0  0  0  0  0  0
   -3.2932    0.7828    1.8327 H   0  0  0  0  0  0  0  0  0  0  0  0
   -2.7830    3.7745    0.4522 H   0  0  0  0  0  0  0  0  0  0  0  0
   -2.5710    1.9750    0.0981 H   0  0  0  0  0  0  0  0  0  0  0  0
   -1.1890    3.1706   -0.0562 H   0  0  0  0  0  0  0  0  0  0  0  0
    2.0896    5.4074   -1.6558 H   0  0  0  0  0  0  0  0  0  0  0  0
    1.9216    6.1976    0.3573 H   0  0  0  0  0  0  0  0  0  0  0  0
    0.1261    6.3100   -0.0699 H   0  0  0  0  0  0  0  0  0  0  0  0
    0.7435    6.1134    1.6590 H   0  0  0  0  0  0  0  0  0  0  0  0
    3.0522    3.2239   -3.1939 H   0  0  0  0  0  0  0  0  0  0  0  0
    1.7450   -0.8415   -2.3848 H   0  0  0  0  0  0  0  0  0  0  0  0
    2.7731   -5.0256   -1.3352 H   0  0  0  0  0  0  0  0  0  0  0  0
    2.5322   -4.9998   -3.0720 H   0  0  0  0  0  0  0  0  0  0  0  0
    4.0660   -4.2239   -2.4079 H   0  0  0  0  0  0  0  0  0  0  0  0
    0.5298   -4.4211   -1.8306 H   0  0  0  0  0  0  0  0  0  0  0  0
   -0.2489   -1.3289   -1.9560 H   0  0  0  0  0  0  0  0  0  0  0  0
   -1.7423   -3.7965   -1.4036 H   0  0  0  0  0  0  0  0  0  0  0  0
   -2.2487   -0.9429   -2.2532 H   0  0  0  0  0  0  0  0  0  0  0  0
   -1.7304   -0.3066   -0.2950 H   0  0  0  0  0  0  0  0  0  0  0  0
   -3.4547   -0.4419   -0.0721 H   0  0  0  0  0  0  0  0  0  0  0  0
   -2.2473   -1.6547    0.6870 H   0  0  0  0  0  0  0  0  0  0  0  0
   -3.8345   -3.4709   -1.8756 H   0  0  0  0  0  0  0  0  0  0  0  0
   -2.5927   -2.1988   -3.8440 H   0  0  0  0  0  0  0  0  0  0  0  0
   -5.1350   -0.7242   -2.0130 H   0  0  0  0  0  0  0  0  0  0  0  0
   -5.4740   -2.3204   -3.8994 H   0  0  0  0  0  0  0  0  0  0  0  0
   -6.9029   -1.7390   -2.9909 H   0  0  0  0  0  0  0  0  0  0  0  0
   -6.2502   -3.3919   -2.6743 H   0  0  0  0  0  0  0  0  0  0  0  0
   -5.7510   -3.5045   -0.9198 H   0  0  0  0  0  0  0  0  0  0  0  0
   -4.1222   -3.3927    0.2424 H   0  0  0  0  0  0  0  0  0  0  0  0
   -7.6661   -2.1995   -0.7226 H   0  0  0  0  0  0  0  0  0  0  0  0
   -6.8351   -2.6933    2.1059 H   0  0  0  0  0  0  0  0  0  0  0  0
   -6.4891   -3.9439    0.8887 H   0  0  0  0  0  0  0  0  0  0  0  0
   -8.1955   -3.3066    1.1567 H   0  0  0  0  0  0  0  0  0  0  0  0
   -6.4804   -0.7326    1.7235 H   0  0  0  0  0  0  0  0  0  0  0  0
  -10.1186   -1.4730    4.0456 H   0  0  0  0  0  0  0  0  0  0  0  0
  -10.4861    0.2319    3.5908 H   0  0  0  0  0  0  0  0  0  0  0  0
  -11.2869   -1.1106    2.7351 H   0  0  0  0  0  0  0  0  0  0  0  0
   -7.4064    1.2897    1.1299 H   0  0  0  0  0  0  0  0  0  0  0  0
   -8.8794    0.2127   -0.6239 H   0  0  0  0  0  0  0  0  0  0  0  0
   -8.4718    1.9166   -0.6470 H   0  0  0  0  0  0  0  0  0  0  0  0
   -7.6699    0.8730   -1.8313 H   0  0  0  0  0  0  0  0  0  0  0  0
    4.0970    0.4911   -0.0916 H   0  0  0  0  0  0  0  0  0  0  0  0
    6.2048   -1.5933   -0.4953 H   0  0  0  0  0  0  0  0  0  0  0  0
    7.7996   -0.9715   -1.0494 H   0  0  0  0  0  0  0  0  0  0  0  0
    7.9061   -1.8788    1.2932 H   0  0  0  0  0  0  0  0  0  0  0  0
    6.6055   -0.6926    1.7715 H   0  0  0  0  0  0  0  0  0  0  0  0
    9.1351    1.9829    0.6492 H   0  0  0  0  0  0  0  0  0  0  0  0
    8.7931    0.7389   -0.5506 H   0  0  0  0  0  0  0  0  0  0  0  0
    6.4545    1.9552    0.9713 H   0  0  0  0  0  0  0  0  0  0  0  0
    7.0861    2.4344   -0.7199 H   0  0  0  0  0  0  0  0  0  0  0  0
   10.3016   -0.3113    0.2777 H   0  0  0  0  0  0  0  0  0  0  0  0
    9.4743   -1.7463    2.8676 H   0  0  0  0  0  0  0  0  0  0  0  0
    9.7641   -2.5651    1.2728 H   0  0  0  0  0  0  0  0  0  0  0  0
   12.0013   -1.6879    1.1177 H   0  0  0  0  0  0  0  0  0  0  0  0
   11.8210   -2.5036    2.7794 H   0  0  0  0  0  0  0  0  0  0  0  0
   11.7505   -0.3229    3.8383 H   0  0  0  0  0  0  0  0  0  0  0  0
   12.6925    0.1518    2.3232 H   0  0  0  0  0  0  0  0  0  0  0  0
   10.8678    1.4934    1.7500 H   0  0  0  0  0  0  0  0  0  0  0  0
    9.9196    0.8297    3.0935 H   0  0  0  0  0  0  0  0  0  0  0  0
    1.5470   -0.7316    0.7951 H   0  0  0  0  0  0  0  0  0  0  0  0
  1  2  1  0
  2  3  1  0
  3  4  1  0
  4  5  2  0
  5  6  1  0
  6  7  1  0
  7  8  1  6
  7  9  1  0
  9 10  1  0
 10 11  2  0
 11 12  1  0
 12 13  2  0
 11 14  1  0
 14 15  2  0
 15 16  1  0
 16 17  1  0
 16 18  2  0
 18 19  1  0
 15 20  1  0
 20 21  1  0
 20 22  2  0
 22 23  1  0
 23 24  1  0
 24 25  2  0
 24 26  1  0
 26 27  1  0
 26 28  2  0
 28 29  1  0
 29 30  2  0
 30 31  1  0
 31 32  1  0
 31 33  1  0
 33 34  1  0
 33 35  1  0
 35 36  1  0
 35 37  1  0
 37 38  1  0
 37 39  1  0
 39 40  1  0
 39 41  1  0
 41 42  1  0
 42 43  1  0
 43 44  1  0
 43 45  2  0
 41 46  1  0
 46 47  1  0
 22 48  1  0
 48 49  1  0
 49 50  2  0
 50 51  1  0
 51 52  1  0
 52 53  1  0
 53 54  1  0
 54 55  1  0
 55 56  1  0
 54 57  1  0
 57 58  1  0
 58 59  1  0
 59 60  1  0
 60 61  1  0
 48 62  2  0
 62 63  1  0
 46  3  1  0
 56 51  1  0
 61 57  1  0
 12  7  1  0
 62 14  1  0
 18 10  1  0
  1 64  1  0
  1 65  1  0
  1 66  1  0
  3 67  1  6
  4 68  1  0
  5 69  1  0
  8 70  1  0
  8 71  1  0
  8 72  1  0
 17 73  1  0
 19 74  1  0
 19 75  1  0
 19 76  1  0
 21 77  1  0
 23 78  1  0
 27 79  1  0
 27 80  1  0
 27 81  1  0
 28 82  1  0
 29 83  1  0
 30 84  1  0
 31 85  1  6
 32 86  1  0
 32 87  1  0
 32 88  1  0
 33 89  1  1
 34 90  1  0
 35 91  1  1
 36 92  1  0
 36 93  1  0
 36 94  1  0
 37 95  1  6
 38 96  1  0
 39 97  1  6
 40 98  1  0
 40 99  1  0
 40100  1  0
 41101  1  1
 44102  1  0
 44103  1  0
 44104  1  0
 46105  1  1
 47106  1  0
 47107  1  0
 47108  1  0
 49109  1  0
 52110  1  0
 52111  1  0
 53112  1  0
 53113  1  0
 55114  1  0
 55115  1  0
 56116  1  0
 56117  1  0
 57118  1  0
 58119  1  0
 58120  1  0
 59121  1  0
 59122  1  0
 60123  1  0
 60124  1  0
 61125  1  0
 61126  1  0
 63127  1  0
M  END
$$$$
