@<TRIPOS>MOLECULE
*****
 27 29 0 0 0
SMALL
GASTEIGER

@<TRIPOS>ATOM
      1 O           2.1084   -2.7813    0.3658 O.2     1  UNL1       -0.2671
      2 C           1.5650   -1.6632    0.2275 C.ar    1  UNL1        0.2595
      3 N           0.2223   -1.5533    0.1565 N.ar    1  UNL1       -0.3064
      4 C          -0.3937   -0.3696    0.0084 C.ar    1  UNL1        0.1414
      5 C          -1.8336   -0.2048   -0.0725 C.ar    1  UNL1        0.0174
      6 C          -2.3629    1.0567   -0.2248 C.ar    1  UNL1       -0.0501
      7 C          -3.7215    1.2552   -0.3055 C.ar    1  UNL1       -0.0471
      8 C          -4.5571    0.1790   -0.2329 C.ar    1  UNL1        0.0179
      9 BR         -6.4631    0.3925   -0.3395 Br      1  UNL1       -0.0503
     10 C          -4.0671   -1.0982   -0.0808 C.ar    1  UNL1       -0.0471
     11 C          -2.6816   -1.2819   -0.0004 C.ar    1  UNL1       -0.0501
     12 N           0.4034    0.7150   -0.0668 N.ar    1  UNL1       -0.2290
     13 C           1.7396    0.6696   -0.0027 C.ar    1  UNL1        0.0785
     14 C           2.5092    1.8197   -0.0857 C.ar    1  UNL1       -0.0355
     15 C           3.8820    1.7270   -0.0151 C.ar    1  UNL1       -0.0597
     16 C           4.5380    0.5205    0.1371 C.ar    1  UNL1       -0.0609
     17 C           3.7371   -0.5990    0.2157 C.ar    1  UNL1       -0.0474
     18 C           2.3703   -0.5524    0.1501 C.ar    1  UNL1        0.0647
     19 H          -0.3558   -2.4342    0.2207 H       1  UNL1        0.1704
     20 H          -1.7481    1.9444   -0.2880 H       1  UNL1        0.0625
     21 H          -4.1642    2.2305   -0.4247 H       1  UNL1        0.0629
     22 H          -4.7163   -1.9734   -0.0204 H       1  UNL1        0.0629
     23 H          -2.3403   -2.3100    0.1197 H       1  UNL1        0.0625
     24 H           2.0303    2.7977   -0.2068 H       1  UNL1        0.0639
     25 H           4.4918    2.6410   -0.0812 H       1  UNL1        0.0618
     26 H           5.6116    0.4511    0.1920 H       1  UNL1        0.0618
     27 H           4.1965   -1.5785    0.3360 H       1  UNL1        0.0626
@<TRIPOS>BOND
     1     1     2    2
     2     2     3   ar
     3     3     4   ar
     4     4     5    1
     5     5     6   ar
     6     6     7   ar
     7     7     8   ar
     8     8     9    1
     9     8    10   ar
    10    10    11   ar
    11     4    12   ar
    12    12    13   ar
    13    13    14   ar
    14    14    15   ar
    15    15    16   ar
    16    16    17   ar
    17    17    18   ar
    18    18     2   ar
    19    11     5   ar
    20    18    13   ar
    21     3    19    1
    22     6    20    1
    23     7    21    1
    24    10    22    1
    25    11    23    1
    26    14    24    1
    27    15    25    1
    28    16    26    1
    29    17    27    1
