@<TRIPOS>MOLECULE
*****
 39 38 0 0 0
SMALL
GASTEIGER

@<TRIPOS>ATOM
      1 O           6.1186    1.3135   -0.4163 O.2     1  UNL1       -0.3010
      2 C           6.4367    1.2798    0.7607 C.2     1  UNL1        0.1203
      3 C           5.2914    0.4968    1.2961 C.3     1  UNL1        0.0031
      4 C           4.3577    0.1611    0.1349 C.3     1  UNL1       -0.0432
      5 C           3.1661   -0.6420    0.6313 C.3     1  UNL1       -0.0337
      6 C           2.2469   -0.9791   -0.4770 C.2     1  UNL1       -0.0778
      7 C           0.9767   -0.7173   -0.7212 C.2     1  UNL1       -0.0118
      8 C           0.1420    0.0676    0.2030 C.3     1  UNL1       -0.0215
      9 C          -1.0497   -0.6504    0.7580 C.3     1  UNL1       -0.0300
     10 C          -2.0249   -1.1196   -0.2448 C.2     1  UNL1       -0.0775
     11 C          -3.2887   -0.7236   -0.3142 C.2     1  UNL1       -0.0117
     12 C          -4.0296    0.2202    0.5174 C.3     1  UNL1       -0.0185
     13 C          -4.5902    1.4141   -0.2219 C.3     1  UNL1        0.0068
     14 C          -5.2990    2.2302    0.8339 C.2     1  UNL1        0.1206
     15 O          -5.5806    2.2869    2.0219 O.2     1  UNL1       -0.3010
     16 C          -4.1193   -1.2942   -1.3724 C.2     1  UNL1        0.1460
     17 O          -5.3264   -1.0801   -1.6364 O.2     1  UNL1       -0.2960
     18 C           0.4556   -1.2341   -1.9633 C.2     1  UNL1        0.1460
     19 O           0.1119   -1.7144   -3.0377 O.2     1  UNL1       -0.2960
     20 H           7.2290    1.6274    1.4144 H       1  UNL1        0.1026
     21 H           4.7138    1.1215    2.0289 H       1  UNL1        0.0339
     22 H           5.6203   -0.4291    1.7732 H       1  UNL1        0.0339
     23 H           4.9387   -0.4412   -0.5938 H       1  UNL1        0.0272
     24 H           4.0271    1.0707   -0.3700 H       1  UNL1        0.0272
     25 H           2.6891   -0.0026    1.4219 H       1  UNL1        0.0308
     26 H           3.5432   -1.5372    1.1715 H       1  UNL1        0.0308
     27 H           2.8922   -1.5491   -1.1281 H       1  UNL1        0.0576
     28 H          -0.1722    0.9848   -0.3696 H       1  UNL1        0.0317
     29 H           0.7316    0.4297    1.0750 H       1  UNL1        0.0317
     30 H          -1.5953    0.0475    1.4483 H       1  UNL1        0.0311
     31 H          -0.7087   -1.5210    1.3913 H       1  UNL1        0.0311
     32 H          -1.6553   -1.8420   -0.9530 H       1  UNL1        0.0576
     33 H          -4.9427   -0.3399    0.8860 H       1  UNL1        0.0318
     34 H          -3.5373    0.5622    1.4344 H       1  UNL1        0.0318
     35 H          -5.3624    1.1318   -0.9352 H       1  UNL1        0.0342
     36 H          -3.8183    2.0692   -0.6365 H       1  UNL1        0.0342
     37 H          -5.7357    3.1179    0.3798 H       1  UNL1        0.1026
     38 H          -3.8642   -2.0136   -2.1397 H       1  UNL1        0.1078
     39 H           1.0119   -1.8023   -2.6865 H       1  UNL1        0.1078
@<TRIPOS>BOND
     1     1     2    2
     2     2     3    1
     3     3     4    1
     4     4     5    1
     5     5     6    1
     6     6     7    2
     7     7     8    1
     8     8     9    1
     9     9    10    1
    10    10    11    2
    11    11    12    1
    12    12    13    1
    13    13    14    1
    14    14    15    2
    15    11    16    1
    16    16    17    2
    17     7    18    1
    18    18    19    2
    19     2    20    1
    20     3    21    1
    21     3    22    1
    22     4    23    1
    23     4    24    1
    24     5    25    1
    25     5    26    1
    26     6    27    1
    27     8    28    1
    28     8    29    1
    29     9    30    1
    30     9    31    1
    31    10    32    1
    32    12    33    1
    33    12    34    1
    34    13    35    1
    35    13    36    1
    36    14    37    1
    37    16    38    1
    38    18    39    1
