
     RDKit          3D

 76 81  0  0  0  0  0  0  0  0999 V2000
   -8.3832   -0.4648   -1.3268 N   0  0  0  0  0  0  0  0  0  0  0  0
   -8.0402    0.2320   -0.4340 C   0  0  0  0  0  0  0  0  0  0  0  0
   -7.6514    1.0655    0.6470 C   0  0  0  0  0  0  0  0  0  0  0  0
   -8.5964    1.6558    1.4496 C   0  0  0  0  0  0  0  0  0  0  0  0
   -9.9601    1.3887    1.1857 N   0  0  0  0  0  0  0  0  0  0  0  0
   -8.2141    2.4634    2.4890 N   0  0  0  0  0  0  0  0  0  0  0  0
   -6.9261    2.7157    2.7671 C   0  0  0  0  0  0  0  0  0  0  0  0
   -5.9966    2.1242    1.9603 N   0  0  0  0  0  0  0  0  0  0  0  0
   -6.3092    1.3285    0.9387 C   0  0  0  0  0  0  0  0  0  0  0  0
   -5.3803    0.6945    0.0907 N   0  0  0  0  0  0  0  0  0  0  0  0
   -5.1888    0.9256   -1.3097 C   0  0  0  0  0  0  0  0  0  0  0  0
   -4.6782   -0.3879   -1.8788 C   0  0  0  0  0  0  0  0  0  0  0  0
   -4.8109   -1.3176   -0.6885 C   0  0  0  0  0  0  0  0  0  0  0  0
   -4.4277   -0.3786    0.4517 C   0  0  1  0  0  0  0  0  0  0  0  0
   -3.0595    0.1457    0.2694 C   0  0  0  0  0  0  0  0  0  0  0  0
   -2.8640    1.5018    0.1866 N   0  0  0  0  0  0  0  0  0  0  0  0
   -1.6601    2.0720   -0.0275 C   0  0  0  0  0  0  0  0  0  0  0  0
   -1.5045    3.4397   -0.1163 C   0  0  0  0  0  0  0  0  0  0  0  0
   -0.2641    3.9820   -0.3462 C   0  0  0  0  0  0  0  0  0  0  0  0
    0.8518    3.1396   -0.4944 C   0  0  0  0  0  0  0  0  0  0  0  0
    0.7021    1.8109   -0.4086 C   0  0  0  0  0  0  0  0  0  0  0  0
    1.7772    0.8194   -0.6407 C   0  0  0  0  0  0  0  0  0  0  0  0
    2.6474    0.0121   -0.8081 C   0  0  0  0  0  0  0  0  0  0  0  0
    3.6930   -0.9531   -0.9988 C   0  0  0  0  0  0  0  0  0  0  0  0
    5.0366   -0.6246   -0.4447 C   0  0  0  0  0  0  0  0  0  0  0  0
    5.6454    0.5652   -1.0572 C   0  0  0  0  0  0  0  0  0  0  0  0
    6.9892    0.9650   -0.6654 C   0  0  0  0  0  0  0  0  0  0  0  0
    7.3509    2.0671   -1.3126 O   0  0  0  0  0  0  0  0  0  0  0  0
    7.9541    0.4876    0.1844 N   0  0  0  0  0  0  0  0  0  0  0  0
    7.8999   -0.6353    1.0531 C   0  0  0  0  0  0  0  0  0  0  0  0
    8.9645   -1.6197    0.5373 C   0  0  0  0  0  0  0  0  0  0  0  0
   10.2084   -1.0092    0.7448 O   0  0  0  0  0  0  0  0  0  0  0  0
   10.3547    0.1196   -0.0716 C   0  0  0  0  0  0  0  0  0  0  0  0
    9.3059    1.1641    0.2294 C   0  0  0  0  0  0  0  0  0  0  0  0
   -0.5601    1.2556   -0.1692 C   0  0  0  0  0  0  0  0  0  0  0  0
   -0.7558   -0.0918   -0.0798 C   0  0  0  0  0  0  0  0  0  0  0  0
    0.2229   -0.8617   -0.2053 O   0  0  0  0  0  0  0  0  0  0  0  0
   -1.9998   -0.6170    0.1380 N   0  0  0  0  0  0  0  0  0  0  0  0
   -2.0202   -2.0299    0.2885 C   0  0  0  0  0  0  0  0  0  0  0  0
   -2.5310   -2.5920    1.4409 C   0  0  0  0  0  0  0  0  0  0  0  0
   -2.5056   -3.9720    1.5664 C   0  0  0  0  0  0  0  0  0  0  0  0
   -1.9834   -4.7870    0.5609 C   0  0  0  0  0  0  0  0  0  0  0  0
   -1.4822   -4.1972   -0.5672 C   0  0  0  0  0  0  0  0  0  0  0  0
   -1.5069   -2.8399   -0.6850 C   0  0  0  0  0  0  0  0  0  0  0  0
  -10.4656    0.7484    1.8734 H   0  0  0  0  0  0  0  0  0  0  0  0
  -10.5053    1.7581    0.3900 H   0  0  0  0  0  0  0  0  0  0  0  0
   -6.6231    3.3526    3.5785 H   0  0  0  0  0  0  0  0  0  0  0  0
   -4.4211    1.7193   -1.5383 H   0  0  0  0  0  0  0  0  0  0  0  0
   -6.1171    1.2493   -1.8252 H   0  0  0  0  0  0  0  0  0  0  0  0
   -5.2137   -0.7175   -2.7718 H   0  0  0  0  0  0  0  0  0  0  0  0
   -3.5870   -0.3234   -2.1209 H   0  0  0  0  0  0  0  0  0  0  0  0
   -5.8608   -1.6145   -0.4926 H   0  0  0  0  0  0  0  0  0  0  0  0
   -4.2361   -2.2206   -0.7794 H   0  0  0  0  0  0  0  0  0  0  0  0
   -4.6845   -0.7546    1.4362 H   0  0  0  0  0  0  0  0  0  0  0  0
   -2.3827    4.0707    0.0022 H   0  0  0  0  0  0  0  0  0  0  0  0
   -0.1137    5.0616   -0.4254 H   0  0  0  0  0  0  0  0  0  0  0  0
    1.8361    3.5623   -0.6832 H   0  0  0  0  0  0  0  0  0  0  0  0
    3.8481   -1.1342   -2.1122 H   0  0  0  0  0  0  0  0  0  0  0  0
    3.3637   -1.9794   -0.6350 H   0  0  0  0  0  0  0  0  0  0  0  0
    5.7313   -1.5060   -0.5834 H   0  0  0  0  0  0  0  0  0  0  0  0
    4.9740   -0.4629    0.6701 H   0  0  0  0  0  0  0  0  0  0  0  0
    4.8968    1.4163   -0.9237 H   0  0  0  0  0  0  0  0  0  0  0  0
    5.6505    0.4506   -2.1938 H   0  0  0  0  0  0  0  0  0  0  0  0
    6.9740   -1.1163    1.2709 H   0  0  0  0  0  0  0  0  0  0  0  0
    8.3364   -0.2813    2.0442 H   0  0  0  0  0  0  0  0  0  0  0  0
    8.8058   -1.8212   -0.5403 H   0  0  0  0  0  0  0  0  0  0  0  0
    8.9495   -2.5729    1.0781 H   0  0  0  0  0  0  0  0  0  0  0  0
   11.3402    0.5634    0.1820 H   0  0  0  0  0  0  0  0  0  0  0  0
   10.3632   -0.1624   -1.1484 H   0  0  0  0  0  0  0  0  0  0  0  0
    9.3515    1.9744   -0.4780 H   0  0  0  0  0  0  0  0  0  0  0  0
    9.4396    1.5001    1.2592 H   0  0  0  0  0  0  0  0  0  0  0  0
   -2.9370   -1.9821    2.2697 H   0  0  0  0  0  0  0  0  0  0  0  0
   -2.8979   -4.4326    2.4649 H   0  0  0  0  0  0  0  0  0  0  0  0
   -1.9812   -5.8765    0.6945 H   0  0  0  0  0  0  0  0  0  0  0  0
   -1.0670   -4.8481   -1.3599 H   0  0  0  0  0  0  0  0  0  0  0  0
   -1.1102   -2.3829   -1.5730 H   0  0  0  0  0  0  0  0  0  0  0  0
  1  2  3  0
  2  3  1  0
  3  4  2  0
  4  5  1  0
  4  6  1  0
  6  7  2  0
  7  8  1  0
  8  9  2  0
  9 10  1  0
 10 11  1  0
 11 12  1  0
 12 13  1  0
 13 14  1  0
 14 15  1  0
 15 16  2  0
 16 17  1  0
 17 18  2  0
 18 19  1  0
 19 20  2  0
 20 21  1  0
 21 22  1  0
 22 23  3  0
 23 24  1  0
 24 25  1  0
 25 26  1  0
 26 27  1  0
 27 28  2  0
 27 29  1  0
 29 30  1  0
 30 31  1  0
 31 32  1  0
 32 33  1  0
 33 34  1  0
 21 35  2  0
 35 36  1  0
 36 37  2  0
 36 38  1  0
 38 39  1  0
 39 40  2  0
 40 41  1  0
 41 42  2  0
 42 43  1  0
 43 44  2  0
  9  3  1  0
 14 10  1  0
 38 15  1  0
 44 39  1  0
 35 17  1  0
 34 29  1  0
  5 45  1  0
  5 46  1  0
  7 47  1  0
 11 48  1  0
 11 49  1  0
 12 50  1  0
 12 51  1  0
 13 52  1  0
 13 53  1  0
 14 54  1  1
 18 55  1  0
 19 56  1  0
 20 57  1  0
 24 58  1  0
 24 59  1  0
 25 60  1  0
 25 61  1  0
 26 62  1  0
 26 63  1  0
 30 64  1  0
 30 65  1  0
 31 66  1  0
 31 67  1  0
 33 68  1  0
 33 69  1  0
 34 70  1  0
 34 71  1  0
 40 72  1  0
 41 73  1  0
 42 74  1  0
 43 75  1  0
 44 76  1  0
M  END
$$$$
