@<TRIPOS>MOLECULE
*****
 76 81 0 0 0
SMALL
GASTEIGER

@<TRIPOS>ATOM
      1 N          -8.3832   -0.4648   -1.3268 N.1     1  UNL1       -0.1906
      2 C          -8.0402    0.2320   -0.4340 C.1     1  UNL1        0.1061
      3 C          -7.6514    1.0655    0.6470 C.ar    1  UNL1        0.1309
      4 C          -8.5964    1.6558    1.4496 C.ar    1  UNL1        0.1388
      5 N          -9.9601    1.3887    1.1857 N.pl3   1  UNL1       -0.3420
      6 N          -8.2141    2.4634    2.4890 N.ar    1  UNL1       -0.2197
      7 C          -6.9261    2.7157    2.7671 C.ar    1  UNL1        0.1202
      8 N          -5.9966    2.1242    1.9603 N.ar    1  UNL1       -0.2193
      9 C          -6.3092    1.3285    0.9387 C.ar    1  UNL1        0.1445
     10 N          -5.3803    0.6945    0.0907 N.pl3   1  UNL1       -0.3040
     11 C          -5.1888    0.9256   -1.3097 C.3     1  UNL1        0.0143
     12 C          -4.6782   -0.3879   -1.8788 C.3     1  UNL1       -0.0351
     13 C          -4.8109   -1.3176   -0.6885 C.3     1  UNL1       -0.0258
     14 C          -4.4277   -0.3786    0.4517 C.3     1  UNL1        0.0833
     15 C          -3.0595    0.1457    0.2694 C.ar    1  UNL1        0.1381
     16 N          -2.8640    1.5018    0.1866 N.ar    1  UNL1       -0.2312
     17 C          -1.6601    2.0720   -0.0275 C.ar    1  UNL1        0.0794
     18 C          -1.5045    3.4397   -0.1163 C.ar    1  UNL1       -0.0354
     19 C          -0.2641    3.9820   -0.3462 C.ar    1  UNL1       -0.0586
     20 C           0.8518    3.1396   -0.4944 C.ar    1  UNL1       -0.0455
     21 C           0.7021    1.8109   -0.4086 C.ar    1  UNL1        0.0393
     22 C           1.7772    0.8194   -0.6407 C.1     1  UNL1       -0.0655
     23 C           2.6474    0.0121   -0.8081 C.1     1  UNL1       -0.0969
     24 C           3.6930   -0.9531   -0.9988 C.3     1  UNL1        0.0099
     25 C           5.0366   -0.6246   -0.4447 C.3     1  UNL1       -0.0339
     26 C           5.6454    0.5652   -1.0572 C.3     1  UNL1        0.0250
     27 C           6.9892    0.9650   -0.6654 C.2     1  UNL1        0.2157
     28 O           7.3509    2.0671   -1.3126 O.2     1  UNL1       -0.2756
     29 N           7.9541    0.4876    0.1844 N.am    1  UNL1       -0.2971
     30 C           7.8999   -0.6353    1.0531 C.3     1  UNL1        0.0382
     31 C           8.9645   -1.6197    0.5373 C.3     1  UNL1        0.0635
     32 O          10.2084   -1.0092    0.7448 O.3     1  UNL1       -0.3767
     33 C          10.3547    0.1196   -0.0716 C.3     1  UNL1        0.0635
     34 C           9.3059    1.1641    0.2294 C.3     1  UNL1        0.0382
     35 C          -0.5601    1.2556   -0.1692 C.ar    1  UNL1        0.0806
     36 C          -0.7558   -0.0918   -0.0798 C.ar    1  UNL1        0.2675
     37 O           0.2229   -0.8617   -0.2053 O.2     1  UNL1       -0.2665
     38 N          -1.9998   -0.6170    0.1380 N.ar    1  UNL1       -0.2628
     39 C          -2.0202   -2.0299    0.2885 C.ar    1  UNL1        0.0512
     40 C          -2.5310   -2.5920    1.4409 C.ar    1  UNL1       -0.0377
     41 C          -2.5056   -3.9720    1.5664 C.ar    1  UNL1       -0.0598
     42 C          -1.9834   -4.7870    0.5609 C.ar    1  UNL1       -0.0616
     43 C          -1.4822   -4.1972   -0.5672 C.ar    1  UNL1       -0.0598
     44 C          -1.5069   -2.8399   -0.6850 C.ar    1  UNL1       -0.0377
     45 H         -10.4656    0.7484    1.8734 H       1  UNL1        0.1437
     46 H         -10.5053    1.7581    0.3900 H       1  UNL1        0.1437
     47 H          -6.6231    3.3526    3.5785 H       1  UNL1        0.1048
     48 H          -4.4211    1.7193   -1.5383 H       1  UNL1        0.0464
     49 H          -6.1171    1.2493   -1.8252 H       1  UNL1        0.0464
     50 H          -5.2137   -0.7175   -2.7718 H       1  UNL1        0.0281
     51 H          -3.5870   -0.3234   -2.1209 H       1  UNL1        0.0281
     52 H          -5.8608   -1.6145   -0.4926 H       1  UNL1        0.0288
     53 H          -4.2361   -2.2206   -0.7794 H       1  UNL1        0.0288
     54 H          -4.6845   -0.7546    1.4362 H       1  UNL1        0.0581
     55 H          -2.3827    4.0707    0.0022 H       1  UNL1        0.0639
     56 H          -0.1137    5.0616   -0.4254 H       1  UNL1        0.0619
     57 H           1.8361    3.5623   -0.6832 H       1  UNL1        0.0630
     58 H           3.8481   -1.1342   -2.1122 H       1  UNL1        0.0398
     59 H           3.3637   -1.9794   -0.6350 H       1  UNL1        0.0398
     60 H           5.7313   -1.5060   -0.5834 H       1  UNL1        0.0279
     61 H           4.9740   -0.4629    0.6701 H       1  UNL1        0.0279
     62 H           4.8968    1.4163   -0.9237 H       1  UNL1        0.0359
     63 H           5.6505    0.4506   -2.1938 H       1  UNL1        0.0359
     64 H           6.9740   -1.1163    1.2709 H       1  UNL1        0.0487
     65 H           8.3364   -0.2813    2.0442 H       1  UNL1        0.0487
     66 H           8.8058   -1.8212   -0.5403 H       1  UNL1        0.0575
     67 H           8.9495   -2.5729    1.0781 H       1  UNL1        0.0575
     68 H          11.3402    0.5634    0.1820 H       1  UNL1        0.0575
     69 H          10.3632   -0.1624   -1.1484 H       1  UNL1        0.0575
     70 H           9.3515    1.9744   -0.4780 H       1  UNL1        0.0487
     71 H           9.4396    1.5001    1.2592 H       1  UNL1        0.0487
     72 H          -2.9370   -1.9821    2.2697 H       1  UNL1        0.0638
     73 H          -2.8979   -4.4326    2.4649 H       1  UNL1        0.0618
     74 H          -1.9812   -5.8765    0.6945 H       1  UNL1        0.0618
     75 H          -1.0670   -4.8481   -1.3599 H       1  UNL1        0.0618
     76 H          -1.1102   -2.3829   -1.5730 H       1  UNL1        0.0638
@<TRIPOS>BOND
     1     1     2    3
     2     2     3    1
     3     3     4   ar
     4     4     5    1
     5     4     6   ar
     6     6     7   ar
     7     7     8   ar
     8     8     9   ar
     9     9    10    1
    10    10    11    1
    11    11    12    1
    12    12    13    1
    13    13    14    1
    14    14    15    1
    15    15    16   ar
    16    16    17   ar
    17    17    18   ar
    18    18    19   ar
    19    19    20   ar
    20    20    21   ar
    21    21    22    1
    22    22    23    3
    23    23    24    1
    24    24    25    1
    25    25    26    1
    26    26    27    1
    27    27    28    2
    28    27    29   am
    29    29    30    1
    30    30    31    1
    31    31    32    1
    32    32    33    1
    33    33    34    1
    34    21    35   ar
    35    35    36   ar
    36    36    37    2
    37    36    38   ar
    38    38    39    1
    39    39    40   ar
    40    40    41   ar
    41    41    42   ar
    42    42    43   ar
    43    43    44   ar
    44     9     3   ar
    45    14    10    1
    46    38    15   ar
    47    44    39   ar
    48    35    17   ar
    49    34    29    1
    50     5    45    1
    51     5    46    1
    52     7    47    1
    53    11    48    1
    54    11    49    1
    55    12    50    1
    56    12    51    1
    57    13    52    1
    58    13    53    1
    59    14    54    1
    60    18    55    1
    61    19    56    1
    62    20    57    1
    63    24    58    1
    64    24    59    1
    65    25    60    1
    66    25    61    1
    67    26    62    1
    68    26    63    1
    69    30    64    1
    70    30    65    1
    71    31    66    1
    72    31    67    1
    73    33    68    1
    74    33    69    1
    75    34    70    1
    76    34    71    1
    77    40    72    1
    78    41    73    1
    79    42    74    1
    80    43    75    1
    81    44    76    1
