@<TRIPOS>MOLECULE
*****
 38 41 0 0 0
SMALL
GASTEIGER

@<TRIPOS>ATOM
      1 N          -4.0890   -2.5432    1.6988 N.pl3   1  UNL1       -0.3579
      2 C          -4.1563   -1.4402    0.8177 C.ar    1  UNL1        0.0251
      3 C          -5.2708   -1.3580   -0.0148 C.ar    1  UNL1       -0.0410
      4 C          -5.4027   -0.3042   -0.9028 C.ar    1  UNL1       -0.0594
      5 C          -4.3710    0.6393   -0.9033 C.ar    1  UNL1       -0.0538
      6 C          -3.2742    0.5429   -0.0722 C.ar    1  UNL1       -0.0111
      7 C          -3.1658   -0.5040    0.7944 C.ar    1  UNL1       -0.0332
      8 C          -2.2355    1.5661   -0.1254 C.ar    1  UNL1        0.0461
      9 C          -0.8555    1.5185   -0.1533 C.ar    1  UNL1        0.1651
     10 N          -0.0702    0.4344   -0.1380 N.ar    1  UNL1       -0.2124
     11 C           1.2636    0.5371   -0.1694 C.ar    1  UNL1        0.1267
     12 N           2.0554   -0.6276   -0.1703 N.pl3   1  UNL1       -0.2993
     13 C           3.4407   -0.9076   -0.0782 C.ar    1  UNL1        0.0338
     14 C           4.0503   -1.9862   -0.7304 C.ar    1  UNL1       -0.0404
     15 C           5.3984   -2.2158   -0.5858 C.ar    1  UNL1       -0.0586
     16 C           6.1983   -1.4169    0.1885 C.ar    1  UNL1       -0.0433
     17 C           5.6167   -0.3595    0.8319 C.ar    1  UNL1        0.0427
     18 CL          6.6999    0.6260    1.8097 Cl      1  UNL1       -0.0835
     19 C           4.2872   -0.1197    0.6996 C.ar    1  UNL1       -0.0222
     20 C           1.7328    1.8306   -0.2182 C.ar    1  UNL1       -0.0033
     21 C           0.9609    2.9724   -0.2352 C.ar    1  UNL1        0.0347
     22 N          -0.3823    2.7763   -0.2005 N.ar    1  UNL1       -0.2210
     23 N          -1.3787    3.6445   -0.2052 N.ar    1  UNL1       -0.1728
     24 C          -2.5229    2.9257   -0.1597 C.ar    1  UNL1        0.0596
     25 H          -3.5240   -3.3391    1.3168 H       1  UNL1        0.1423
     26 H          -4.5290   -2.6463    2.6601 H       1  UNL1        0.1423
     27 H          -6.0390   -2.1304    0.0375 H       1  UNL1        0.0636
     28 H          -6.2636   -0.2083   -1.5702 H       1  UNL1        0.0618
     29 H          -4.5059    1.4502   -1.6094 H       1  UNL1        0.0624
     30 H          -2.3171   -0.5967    1.4516 H       1  UNL1        0.0642
     31 H           1.5407   -1.5426   -0.2562 H       1  UNL1        0.1536
     32 H           3.4199   -2.6168   -1.3414 H       1  UNL1        0.0636
     33 H           5.8257   -3.0745   -1.1188 H       1  UNL1        0.0619
     34 H           7.2304   -1.6721    0.2403 H       1  UNL1        0.0632
     35 H           3.9644    0.7289    1.2665 H       1  UNL1        0.0651
     36 H           2.7939    2.0188   -0.2593 H       1  UNL1        0.0667
     37 H           1.3661    3.9605   -0.2734 H       1  UNL1        0.0832
     38 H          -3.4920    3.4375   -0.1543 H       1  UNL1        0.0855
@<TRIPOS>BOND
     1     1     2    1
     2     2     3   ar
     3     3     4   ar
     4     4     5   ar
     5     5     6   ar
     6     6     7   ar
     7     6     8    1
     8     8     9   ar
     9     9    10   ar
    10    10    11   ar
    11    11    12    1
    12    12    13    1
    13    13    14   ar
    14    14    15   ar
    15    15    16   ar
    16    16    17   ar
    17    17    18    1
    18    17    19   ar
    19    11    20   ar
    20    20    21   ar
    21    21    22   ar
    22    22    23   ar
    23    23    24   ar
    24     7     2   ar
    25    24     8   ar
    26    22     9   ar
    27    19    13   ar
    28     1    25    1
    29     1    26    1
    30     3    27    1
    31     4    28    1
    32     5    29    1
    33     7    30    1
    34    12    31    1
    35    14    32    1
    36    15    33    1
    37    16    34    1
    38    19    35    1
    39    20    36    1
    40    21    37    1
    41    24    38    1
