
     RDKit          3D

 38 41  0  0  0  0  0  0  0  0999 V2000
   -4.0890   -2.5432    1.6988 N   0  0  0  0  0  0  0  0  0  0  0  0
   -4.1563   -1.4402    0.8177 C   0  0  0  0  0  0  0  0  0  0  0  0
   -5.2708   -1.3580   -0.0148 C   0  0  0  0  0  0  0  0  0  0  0  0
   -5.4027   -0.3042   -0.9028 C   0  0  0  0  0  0  0  0  0  0  0  0
   -4.3710    0.6393   -0.9033 C   0  0  0  0  0  0  0  0  0  0  0  0
   -3.2742    0.5429   -0.0722 C   0  0  0  0  0  0  0  0  0  0  0  0
   -3.1658   -0.5040    0.7944 C   0  0  0  0  0  0  0  0  0  0  0  0
   -2.2355    1.5661   -0.1254 C   0  0  0  0  0  0  0  0  0  0  0  0
   -0.8555    1.5185   -0.1533 C   0  0  0  0  0  0  0  0  0  0  0  0
   -0.0702    0.4344   -0.1380 N   0  0  0  0  0  0  0  0  0  0  0  0
    1.2636    0.5371   -0.1694 C   0  0  0  0  0  0  0  0  0  0  0  0
    2.0554   -0.6276   -0.1703 N   0  0  0  0  0  0  0  0  0  0  0  0
    3.4407   -0.9076   -0.0782 C   0  0  0  0  0  0  0  0  0  0  0  0
    4.0503   -1.9862   -0.7304 C   0  0  0  0  0  0  0  0  0  0  0  0
    5.3984   -2.2158   -0.5858 C   0  0  0  0  0  0  0  0  0  0  0  0
    6.1983   -1.4169    0.1885 C   0  0  0  0  0  0  0  0  0  0  0  0
    5.6167   -0.3595    0.8319 C   0  0  0  0  0  0  0  0  0  0  0  0
    6.6999    0.6260    1.8097 Cl  0  0  0  0  0  0  0  0  0  0  0  0
    4.2872   -0.1197    0.6996 C   0  0  0  0  0  0  0  0  0  0  0  0
    1.7328    1.8306   -0.2182 C   0  0  0  0  0  0  0  0  0  0  0  0
    0.9609    2.9724   -0.2352 C   0  0  0  0  0  0  0  0  0  0  0  0
   -0.3823    2.7763   -0.2005 N   0  0  0  0  0  0  0  0  0  0  0  0
   -1.3787    3.6445   -0.2052 N   0  0  0  0  0  0  0  0  0  0  0  0
   -2.5229    2.9257   -0.1597 C   0  0  0  0  0  0  0  0  0  0  0  0
   -3.5240   -3.3391    1.3168 H   0  0  0  0  0  0  0  0  0  0  0  0
   -4.5290   -2.6463    2.6601 H   0  0  0  0  0  0  0  0  0  0  0  0
   -6.0390   -2.1304    0.0375 H   0  0  0  0  0  0  0  0  0  0  0  0
   -6.2636   -0.2083   -1.5702 H   0  0  0  0  0  0  0  0  0  0  0  0
   -4.5059    1.4502   -1.6094 H   0  0  0  0  0  0  0  0  0  0  0  0
   -2.3171   -0.5967    1.4516 H   0  0  0  0  0  0  0  0  0  0  0  0
    1.5407   -1.5426   -0.2562 H   0  0  0  0  0  0  0  0  0  0  0  0
    3.4199   -2.6168   -1.3414 H   0  0  0  0  0  0  0  0  0  0  0  0
    5.8257   -3.0745   -1.1188 H   0  0  0  0  0  0  0  0  0  0  0  0
    7.2304   -1.6721    0.2403 H   0  0  0  0  0  0  0  0  0  0  0  0
    3.9644    0.7289    1.2665 H   0  0  0  0  0  0  0  0  0  0  0  0
    2.7939    2.0188   -0.2593 H   0  0  0  0  0  0  0  0  0  0  0  0
    1.3661    3.9605   -0.2734 H   0  0  0  0  0  0  0  0  0  0  0  0
   -3.4920    3.4375   -0.1543 H   0  0  0  0  0  0  0  0  0  0  0  0
  1  2  1  0
  2  3  2  0
  3  4  1  0
  4  5  2  0
  5  6  1  0
  6  7  2  0
  6  8  1  0
  8  9  2  0
  9 10  1  0
 10 11  2  0
 11 12  1  0
 12 13  1  0
 13 14  2  0
 14 15  1  0
 15 16  2  0
 16 17  1  0
 17 18  1  0
 17 19  2  0
 11 20  1  0
 20 21  2  0
 21 22  1  0
 22 23  1  0
 23 24  2  0
  7  2  1  0
 24  8  1  0
 22  9  1  0
 19 13  1  0
  1 25  1  0
  1 26  1  0
  3 27  1  0
  4 28  1  0
  5 29  1  0
  7 30  1  0
 12 31  1  0
 14 32  1  0
 15 33  1  0
 16 34  1  0
 19 35  1  0
 20 36  1  0
 21 37  1  0
 24 38  1  0
M  END
$$$$
