@<TRIPOS>MOLECULE
*****
 53 55 0 0 0
SMALL
GASTEIGER

@<TRIPOS>ATOM
      1 C           6.3819    1.8477   -1.5222 C.3     1  UNL1        0.0790
      2 O           6.2519    1.3964   -0.1955 O.3     1  UNL1       -0.4899
      3 C           5.0473    0.8212    0.2280 C.ar    1  UNL1        0.1815
      4 C           3.9857    0.6926   -0.6428 C.ar    1  UNL1       -0.0114
      5 C           2.8129    0.1218   -0.1936 C.ar    1  UNL1       -0.0179
      6 C           2.6642   -0.3265    1.1009 C.ar    1  UNL1        0.1270
      7 N           1.4881   -0.9038    1.5856 N.pl3   1  UNL1       -0.2974
      8 C           0.3575   -1.1994    0.7572 C.ar    1  UNL1        0.0683
      9 C          -0.8050   -0.4848    0.9847 C.ar    1  UNL1        0.0034
     10 C          -1.9050   -0.7465    0.2043 C.ar    1  UNL1        0.1433
     11 N          -3.1439   -0.0570    0.3873 N.pl3   1  UNL1       -0.3233
     12 C          -4.2370   -0.3713   -0.4724 C.3     1  UNL1        0.0371
     13 C          -3.8942    0.0324   -1.8850 C.3     1  UNL1       -0.0331
     14 C          -3.6116    1.5199   -1.8903 C.3     1  UNL1       -0.0513
     15 C          -4.7407    2.3283   -1.3208 C.3     1  UNL1       -0.0515
     16 C          -5.2187    1.8120    0.0168 C.3     1  UNL1       -0.0360
     17 C          -5.5093    0.3540   -0.0997 C.3     1  UNL1        0.0234
     18 N          -6.1297   -0.1998    1.0826 N.3     1  UNL1       -0.3257
     19 N          -1.7528   -1.6952   -0.7330 N.ar    1  UNL1       -0.1336
     20 N          -0.6802   -2.3716   -0.9593 N.ar    1  UNL1       -0.1409
     21 C           0.4414   -2.1484   -0.2078 C.ar    1  UNL1        0.1685
     22 C           1.6062   -2.9874   -0.4450 C.2     1  UNL1        0.2635
     23 N           1.6079   -3.8619   -1.5546 N.am    1  UNL1       -0.3240
     24 O           2.5870   -2.9434    0.3088 O.2     1  UNL1       -0.2686
     25 N           3.7272   -0.1809    1.9169 N.ar    1  UNL1       -0.1947
     26 C           4.8814    0.3684    1.5157 C.ar    1  UNL1        0.2594
     27 O           5.9297    0.4868    2.4046 O.3     1  UNL1       -0.4772
     28 C           5.8519    0.0517    3.7420 C.3     1  UNL1        0.0805
     29 H           6.5354    1.0244   -2.2502 H       1  UNL1        0.0660
     30 H           5.5292    2.4675   -1.8161 H       1  UNL1        0.0660
     31 H           7.2748    2.5372   -1.5549 H       1  UNL1        0.0660
     32 H           4.0893    1.0441   -1.6767 H       1  UNL1        0.0657
     33 H           2.0095    0.0391   -0.9015 H       1  UNL1        0.0653
     34 H           1.3943   -1.1458    2.6028 H       1  UNL1        0.1536
     35 H          -0.8670    0.2686    1.7558 H       1  UNL1        0.0672
     36 H          -3.1758    0.6512    1.1565 H       1  UNL1        0.1478
     37 H          -4.3806   -1.4863   -0.4102 H       1  UNL1        0.0513
     38 H          -3.0138   -0.4730   -2.2670 H       1  UNL1        0.0284
     39 H          -4.8173   -0.1980   -2.4888 H       1  UNL1        0.0284
     40 H          -3.5106    1.8092   -2.9693 H       1  UNL1        0.0266
     41 H          -2.6529    1.7031   -1.4101 H       1  UNL1        0.0266
     42 H          -5.5998    2.3590   -2.0071 H       1  UNL1        0.0266
     43 H          -4.3662    3.3629   -1.1664 H       1  UNL1        0.0266
     44 H          -4.5805    2.0985    0.8564 H       1  UNL1        0.0281
     45 H          -6.2100    2.3232    0.1991 H       1  UNL1        0.0281
     46 H          -6.2235    0.2155   -0.9381 H       1  UNL1        0.0476
     47 H          -6.6965   -1.0447    0.8695 H       1  UNL1        0.1185
     48 H          -5.4635   -0.3363    1.8727 H       1  UNL1        0.1185
     49 H           1.0579   -4.7613   -1.4572 H       1  UNL1        0.1453
     50 H           2.1055   -3.6900   -2.4542 H       1  UNL1        0.1453
     51 H           6.2015    0.8847    4.3967 H       1  UNL1        0.0660
     52 H           4.8245   -0.2012    4.0428 H       1  UNL1        0.0660
     53 H           6.5421   -0.8072    3.8772 H       1  UNL1        0.0660
@<TRIPOS>BOND
     1     1     2    1
     2     2     3    1
     3     3     4   ar
     4     4     5   ar
     5     5     6   ar
     6     6     7    1
     7     7     8    1
     8     8     9   ar
     9     9    10   ar
    10    10    11    1
    11    11    12    1
    12    12    13    1
    13    13    14    1
    14    14    15    1
    15    15    16    1
    16    16    17    1
    17    17    18    1
    18    10    19   ar
    19    19    20   ar
    20    20    21   ar
    21    21    22    1
    22    22    23   am
    23    22    24    2
    24     6    25   ar
    25    25    26   ar
    26    26    27    1
    27    27    28    1
    28    26     3   ar
    29    21     8   ar
    30    17    12    1
    31     1    29    1
    32     1    30    1
    33     1    31    1
    34     4    32    1
    35     5    33    1
    36     7    34    1
    37     9    35    1
    38    11    36    1
    39    12    37    1
    40    13    38    1
    41    13    39    1
    42    14    40    1
    43    14    41    1
    44    15    42    1
    45    15    43    1
    46    16    44    1
    47    16    45    1
    48    17    46    1
    49    18    47    1
    50    18    48    1
    51    23    49    1
    52    23    50    1
    53    28    51    1
    54    28    52    1
    55    28    53    1
