
     RDKit          3D

 53 55  0  0  0  0  0  0  0  0999 V2000
    6.3819    1.8477   -1.5222 C   0  0  0  0  0  0  0  0  0  0  0  0
    6.2519    1.3964   -0.1955 O   0  0  0  0  0  0  0  0  0  0  0  0
    5.0473    0.8212    0.2280 C   0  0  0  0  0  0  0  0  0  0  0  0
    3.9857    0.6926   -0.6428 C   0  0  0  0  0  0  0  0  0  0  0  0
    2.8129    0.1218   -0.1936 C   0  0  0  0  0  0  0  0  0  0  0  0
    2.6642   -0.3265    1.1009 C   0  0  0  0  0  0  0  0  0  0  0  0
    1.4881   -0.9038    1.5856 N   0  0  0  0  0  0  0  0  0  0  0  0
    0.3575   -1.1994    0.7572 C   0  0  0  0  0  0  0  0  0  0  0  0
   -0.8050   -0.4848    0.9847 C   0  0  0  0  0  0  0  0  0  0  0  0
   -1.9050   -0.7465    0.2043 C   0  0  0  0  0  0  0  0  0  0  0  0
   -3.1439   -0.0570    0.3873 N   0  0  0  0  0  0  0  0  0  0  0  0
   -4.2370   -0.3713   -0.4724 C   0  0  2  0  0  0  0  0  0  0  0  0
   -3.8942    0.0324   -1.8850 C   0  0  0  0  0  0  0  0  0  0  0  0
   -3.6116    1.5199   -1.8903 C   0  0  0  0  0  0  0  0  0  0  0  0
   -4.7407    2.3283   -1.3208 C   0  0  0  0  0  0  0  0  0  0  0  0
   -5.2187    1.8120    0.0168 C   0  0  0  0  0  0  0  0  0  0  0  0
   -5.5093    0.3540   -0.0997 C   0  0  2  0  0  0  0  0  0  0  0  0
   -6.1297   -0.1998    1.0826 N   0  0  0  0  0  0  0  0  0  0  0  0
   -1.7528   -1.6952   -0.7330 N   0  0  0  0  0  0  0  0  0  0  0  0
   -0.6802   -2.3716   -0.9593 N   0  0  0  0  0  0  0  0  0  0  0  0
    0.4414   -2.1484   -0.2078 C   0  0  0  0  0  0  0  0  0  0  0  0
    1.6062   -2.9874   -0.4450 C   0  0  0  0  0  0  0  0  0  0  0  0
    1.6079   -3.8619   -1.5546 N   0  0  0  0  0  0  0  0  0  0  0  0
    2.5870   -2.9434    0.3088 O   0  0  0  0  0  0  0  0  0  0  0  0
    3.7272   -0.1809    1.9169 N   0  0  0  0  0  0  0  0  0  0  0  0
    4.8814    0.3684    1.5157 C   0  0  0  0  0  0  0  0  0  0  0  0
    5.9297    0.4868    2.4046 O   0  0  0  0  0  0  0  0  0  0  0  0
    5.8519    0.0517    3.7420 C   0  0  0  0  0  0  0  0  0  0  0  0
    6.5354    1.0244   -2.2502 H   0  0  0  0  0  0  0  0  0  0  0  0
    5.5292    2.4675   -1.8161 H   0  0  0  0  0  0  0  0  0  0  0  0
    7.2748    2.5372   -1.5549 H   0  0  0  0  0  0  0  0  0  0  0  0
    4.0893    1.0441   -1.6767 H   0  0  0  0  0  0  0  0  0  0  0  0
    2.0095    0.0391   -0.9015 H   0  0  0  0  0  0  0  0  0  0  0  0
    1.3943   -1.1458    2.6028 H   0  0  0  0  0  0  0  0  0  0  0  0
   -0.8670    0.2686    1.7558 H   0  0  0  0  0  0  0  0  0  0  0  0
   -3.1758    0.6512    1.1565 H   0  0  0  0  0  0  0  0  0  0  0  0
   -4.3806   -1.4863   -0.4102 H   0  0  0  0  0  0  0  0  0  0  0  0
   -3.0138   -0.4730   -2.2670 H   0  0  0  0  0  0  0  0  0  0  0  0
   -4.8173   -0.1980   -2.4888 H   0  0  0  0  0  0  0  0  0  0  0  0
   -3.5106    1.8092   -2.9693 H   0  0  0  0  0  0  0  0  0  0  0  0
   -2.6529    1.7031   -1.4101 H   0  0  0  0  0  0  0  0  0  0  0  0
   -5.5998    2.3590   -2.0071 H   0  0  0  0  0  0  0  0  0  0  0  0
   -4.3662    3.3629   -1.1664 H   0  0  0  0  0  0  0  0  0  0  0  0
   -4.5805    2.0985    0.8564 H   0  0  0  0  0  0  0  0  0  0  0  0
   -6.2100    2.3232    0.1991 H   0  0  0  0  0  0  0  0  0  0  0  0
   -6.2235    0.2155   -0.9381 H   0  0  0  0  0  0  0  0  0  0  0  0
   -6.6965   -1.0447    0.8695 H   0  0  0  0  0  0  0  0  0  0  0  0
   -5.4635   -0.3363    1.8727 H   0  0  0  0  0  0  0  0  0  0  0  0
    1.0579   -4.7613   -1.4572 H   0  0  0  0  0  0  0  0  0  0  0  0
    2.1055   -3.6900   -2.4542 H   0  0  0  0  0  0  0  0  0  0  0  0
    6.2015    0.8847    4.3967 H   0  0  0  0  0  0  0  0  0  0  0  0
    4.8245   -0.2012    4.0428 H   0  0  0  0  0  0  0  0  0  0  0  0
    6.5421   -0.8072    3.8772 H   0  0  0  0  0  0  0  0  0  0  0  0
  1  2  1  0
  2  3  1  0
  3  4  2  0
  4  5  1  0
  5  6  2  0
  6  7  1  0
  7  8  1  0
  8  9  2  0
  9 10  1  0
 10 11  1  0
 11 12  1  0
 12 13  1  0
 13 14  1  0
 14 15  1  0
 15 16  1  0
 16 17  1  0
 17 18  1  0
 10 19  2  0
 19 20  1  0
 20 21  2  0
 21 22  1  0
 22 23  1  0
 22 24  2  0
  6 25  1  0
 25 26  2  0
 26 27  1  0
 27 28  1  0
 26  3  1  0
 21  8  1  0
 17 12  1  0
  1 29  1  0
  1 30  1  0
  1 31  1  0
  4 32  1  0
  5 33  1  0
  7 34  1  0
  9 35  1  0
 11 36  1  0
 12 37  1  6
 13 38  1  0
 13 39  1  0
 14 40  1  0
 14 41  1  0
 15 42  1  0
 15 43  1  0
 16 44  1  0
 16 45  1  0
 17 46  1  6
 18 47  1  0
 18 48  1  0
 23 49  1  0
 23 50  1  0
 28 51  1  0
 28 52  1  0
 28 53  1  0
M  END
$$$$
