
     RDKit          3D

 43 45  0  0  0  0  0  0  0  0999 V2000
   -3.9326   -3.3253   -0.9067 C   0  0  0  0  0  0  0  0  0  0  0  0
   -3.0922   -2.1933   -0.5030 C   0  0  0  0  0  0  0  0  0  0  0  0
   -2.4514   -2.2900    0.7339 C   0  0  0  0  0  0  0  0  0  0  0  0
   -1.6642   -1.2546    1.1370 C   0  0  0  0  0  0  0  0  0  0  0  0
   -1.4082   -0.0974    0.4709 C   0  0  0  0  0  0  0  0  0  0  0  0
   -2.0400    0.0128   -0.7628 C   0  0  0  0  0  0  0  0  0  0  0  0
   -2.8609   -1.0196   -1.2265 C   0  0  0  0  0  0  0  0  0  0  0  0
   -0.4976    0.9932    0.6577 C   0  0  0  0  0  0  0  0  0  0  0  0
    0.6755    0.8221    1.2337 C   0  0  0  0  0  0  0  0  0  0  0  0
    1.4420   -0.2905    1.8150 C   0  0  0  0  0  0  0  0  0  0  0  0
    2.7153   -0.3686    1.0776 N   0  0  0  0  0  0  0  0  0  0  0  0
    3.5591   -1.4253    1.5557 C   0  0  0  0  0  0  0  0  0  0  0  0
    4.4250   -1.8460    0.3908 C   0  0  0  0  0  0  0  0  0  0  0  0
    3.9475   -0.9397   -0.7508 C   0  0  0  0  0  0  0  0  0  0  0  0
    2.4970   -0.7420   -0.3113 C   0  0  0  0  0  0  0  0  0  0  0  0
   -0.7638    2.3697    0.2751 C   0  0  0  0  0  0  0  0  0  0  0  0
   -1.9875    2.8280   -0.1122 C   0  0  0  0  0  0  0  0  0  0  0  0
   -2.2989    4.0953   -0.5278 C   0  0  0  0  0  0  0  0  0  0  0  0
   -1.2669    5.0354   -0.5647 C   0  0  0  0  0  0  0  0  0  0  0  0
   -0.0535    4.5657   -0.1747 C   0  0  0  0  0  0  0  0  0  0  0  0
    0.1744    3.3144    0.2178 N   0  0  0  0  0  0  0  0  0  0  0  0
   -3.3089   -4.0586   -1.4369 H   0  0  0  0  0  0  0  0  0  0  0  0
   -4.7040   -2.9315   -1.6019 H   0  0  0  0  0  0  0  0  0  0  0  0
   -4.4077   -3.7731   -0.0001 H   0  0  0  0  0  0  0  0  0  0  0  0
   -2.5657   -3.1525    1.3639 H   0  0  0  0  0  0  0  0  0  0  0  0
   -1.2141   -1.3288    2.1052 H   0  0  0  0  0  0  0  0  0  0  0  0
   -2.0684    0.7372   -1.5744 H   0  0  0  0  0  0  0  0  0  0  0  0
   -3.4204   -1.0879   -2.1629 H   0  0  0  0  0  0  0  0  0  0  0  0
    1.3617    1.6755    1.3876 H   0  0  0  0  0  0  0  0  0  0  0  0
    0.9142   -1.2616    1.6151 H   0  0  0  0  0  0  0  0  0  0  0  0
    1.7072   -0.1742    2.8706 H   0  0  0  0  0  0  0  0  0  0  0  0
    2.9894   -2.2704    1.9885 H   0  0  0  0  0  0  0  0  0  0  0  0
    4.2407   -1.0165    2.3414 H   0  0  0  0  0  0  0  0  0  0  0  0
    5.5055   -1.6786    0.5649 H   0  0  0  0  0  0  0  0  0  0  0  0
    4.2137   -2.8922    0.1046 H   0  0  0  0  0  0  0  0  0  0  0  0
    4.4203    0.0666   -0.6567 H   0  0  0  0  0  0  0  0  0  0  0  0
    4.0504   -1.3958   -1.7347 H   0  0  0  0  0  0  0  0  0  0  0  0
    2.0019    0.0551   -0.8815 H   0  0  0  0  0  0  0  0  0  0  0  0
    1.9305   -1.6883   -0.4041 H   0  0  0  0  0  0  0  0  0  0  0  0
   -2.8562    2.1825   -0.0756 H   0  0  0  0  0  0  0  0  0  0  0  0
   -3.2841    4.4068   -0.8250 H   0  0  0  0  0  0  0  0  0  0  0  0
   -1.3987    6.0522   -0.8728 H   0  0  0  0  0  0  0  0  0  0  0  0
    0.7745    5.2899   -0.1953 H   0  0  0  0  0  0  0  0  0  0  0  0
  1  2  1  0
  2  3  2  0
  3  4  1  0
  4  5  2  0
  5  6  1  0
  6  7  2  0
  5  8  1  0
  8  9  2  0
  9 10  1  0
 10 11  1  0
 11 12  1  0
 12 13  1  0
 13 14  1  0
 14 15  1  0
  8 16  1  0
 16 17  2  0
 17 18  1  0
 18 19  2  0
 19 20  1  0
 20 21  2  0
  7  2  1  0
 15 11  1  0
 21 16  1  0
  1 22  1  0
  1 23  1  0
  1 24  1  0
  3 25  1  0
  4 26  1  0
  6 27  1  0
  7 28  1  0
  9 29  1  0
 10 30  1  0
 10 31  1  0
 12 32  1  0
 12 33  1  0
 13 34  1  0
 13 35  1  0
 14 36  1  0
 14 37  1  0
 15 38  1  0
 15 39  1  0
 17 40  1  0
 18 41  1  0
 19 42  1  0
 20 43  1  0
M  END
$$$$
