@<TRIPOS>MOLECULE
*****
 43 45 0 0 0
SMALL
GASTEIGER

@<TRIPOS>ATOM
      1 C          -3.9326   -3.3253   -0.9067 C.3     1  UNL1       -0.0397
      2 C          -3.0922   -2.1933   -0.5030 C.ar    1  UNL1       -0.0504
      3 C          -2.4514   -2.2900    0.7339 C.ar    1  UNL1       -0.0583
      4 C          -1.6642   -1.2546    1.1370 C.ar    1  UNL1       -0.0537
      5 C          -1.4082   -0.0974    0.4709 C.ar    1  UNL1       -0.0161
      6 C          -2.0400    0.0128   -0.7628 C.ar    1  UNL1       -0.0537
      7 C          -2.8609   -1.0196   -1.2265 C.ar    1  UNL1       -0.0583
      8 C          -0.4976    0.9932    0.6577 C.2     1  UNL1        0.0048
      9 C           0.6755    0.8221    1.2337 C.2     1  UNL1       -0.0603
     10 C           1.4420   -0.2905    1.8150 C.3     1  UNL1        0.0180
     11 N           2.7153   -0.3686    1.0776 N.3     1  UNL1       -0.2987
     12 C           3.5591   -1.4253    1.5557 C.3     1  UNL1       -0.0008
     13 C           4.4250   -1.8460    0.3908 C.3     1  UNL1       -0.0390
     14 C           3.9475   -0.9397   -0.7508 C.3     1  UNL1       -0.0390
     15 C           2.4970   -0.7420   -0.3113 C.3     1  UNL1       -0.0008
     16 C          -0.7638    2.3697    0.2751 C.ar    1  UNL1        0.0713
     17 C          -1.9875    2.8280   -0.1122 C.ar    1  UNL1       -0.0357
     18 C          -2.2989    4.0953   -0.5278 C.ar    1  UNL1       -0.0583
     19 C          -1.2669    5.0354   -0.5647 C.ar    1  UNL1       -0.0436
     20 C          -0.0535    4.5657   -0.1747 C.ar    1  UNL1        0.0283
     21 N           0.1744    3.3144    0.2178 N.ar    1  UNL1       -0.2550
     22 H          -3.3089   -4.0586   -1.4369 H       1  UNL1        0.0278
     23 H          -4.7040   -2.9315   -1.6019 H       1  UNL1        0.0278
     24 H          -4.4077   -3.7731   -0.0001 H       1  UNL1        0.0278
     25 H          -2.5657   -3.1525    1.3639 H       1  UNL1        0.0620
     26 H          -1.2141   -1.3288    2.1052 H       1  UNL1        0.0624
     27 H          -2.0684    0.7372   -1.5744 H       1  UNL1        0.0624
     28 H          -3.4204   -1.0879   -2.1629 H       1  UNL1        0.0620
     29 H           1.3617    1.6755    1.3876 H       1  UNL1        0.0591
     30 H           0.9142   -1.2616    1.6151 H       1  UNL1        0.0470
     31 H           1.7072   -0.1742    2.8706 H       1  UNL1        0.0470
     32 H           2.9894   -2.2704    1.9885 H       1  UNL1        0.0427
     33 H           4.2407   -1.0165    2.3414 H       1  UNL1        0.0427
     34 H           5.5055   -1.6786    0.5649 H       1  UNL1        0.0278
     35 H           4.2137   -2.8922    0.1046 H       1  UNL1        0.0278
     36 H           4.4203    0.0666   -0.6567 H       1  UNL1        0.0278
     37 H           4.0504   -1.3958   -1.7347 H       1  UNL1        0.0278
     38 H           2.0019    0.0551   -0.8815 H       1  UNL1        0.0427
     39 H           1.9305   -1.6883   -0.4041 H       1  UNL1        0.0427
     40 H          -2.8562    2.1825   -0.0756 H       1  UNL1        0.0639
     41 H          -3.2841    4.4068   -0.8250 H       1  UNL1        0.0619
     42 H          -1.3987    6.0522   -0.8728 H       1  UNL1        0.0633
     43 H           0.7745    5.2899   -0.1953 H       1  UNL1        0.0830
@<TRIPOS>BOND
     1     1     2    1
     2     2     3   ar
     3     3     4   ar
     4     4     5   ar
     5     5     6   ar
     6     6     7   ar
     7     5     8    1
     8     8     9    2
     9     9    10    1
    10    10    11    1
    11    11    12    1
    12    12    13    1
    13    13    14    1
    14    14    15    1
    15     8    16    1
    16    16    17   ar
    17    17    18   ar
    18    18    19   ar
    19    19    20   ar
    20    20    21   ar
    21     7     2   ar
    22    15    11    1
    23    21    16   ar
    24     1    22    1
    25     1    23    1
    26     1    24    1
    27     3    25    1
    28     4    26    1
    29     6    27    1
    30     7    28    1
    31     9    29    1
    32    10    30    1
    33    10    31    1
    34    12    32    1
    35    12    33    1
    36    13    34    1
    37    13    35    1
    38    14    36    1
    39    14    37    1
    40    15    38    1
    41    15    39    1
    42    17    40    1
    43    18    41    1
    44    19    42    1
    45    20    43    1
