
     RDKit          3D

 62 67  0  0  0  0  0  0  0  0999 V2000
   -3.9439   -1.3194    0.2626 O   0  0  0  0  0  0  0  0  0  0  0  0
   -4.0696   -0.0917   -0.0439 C   0  0  0  0  0  0  0  0  0  0  0  0
   -5.3805    0.4197   -0.1743 N   0  0  0  0  0  0  0  0  0  0  0  0
   -6.5638   -0.4153    0.0318 C   0  0  1  0  0  0  0  0  0  0  0  0
   -7.3459    0.1948    1.1558 C   0  0  0  0  0  0  0  0  0  0  0  0
   -8.8102   -0.0665    1.0525 C   0  0  0  0  0  0  0  0  0  0  0  0
   -9.1648   -1.3350    0.3081 C   0  0  2  0  0  0  0  0  0  0  0  0
   -8.8491   -2.4723    1.0807 O   0  0  0  0  0  0  0  0  0  0  0  0
   -8.5493   -1.3896   -1.0538 C   0  0  0  0  0  0  0  0  0  0  0  0
   -7.3986   -0.4179   -1.2086 C   0  0  0  0  0  0  0  0  0  0  0  0
   -2.8429    0.6677   -0.2306 C   0  0  0  0  0  0  0  0  0  0  0  0
   -2.8843    2.0034   -0.5610 C   0  0  0  0  0  0  0  0  0  0  0  0
   -1.7124    2.7513   -0.7443 C   0  0  0  0  0  0  0  0  0  0  0  0
   -0.4992    2.1164   -0.5855 C   0  0  0  0  0  0  0  0  0  0  0  0
   -0.4168    0.7825   -0.2555 C   0  0  0  0  0  0  0  0  0  0  0  0
   -1.5968    0.0910   -0.0862 C   0  0  0  0  0  0  0  0  0  0  0  0
    1.0135    0.3586   -0.1482 C   0  0  0  0  0  0  0  0  0  0  0  0
    1.7809    1.5792   -0.4496 C   0  0  0  0  0  0  0  0  0  0  0  0
    3.0713    2.0798   -0.5720 C   0  0  0  0  0  0  0  0  0  0  0  0
    4.3135    1.3589   -0.3922 C   0  0  0  0  0  0  0  0  0  0  0  0
    5.3898    1.4630   -1.2594 C   0  0  0  0  0  0  0  0  0  0  0  0
    6.5553    0.7439   -1.0307 C   0  0  0  0  0  0  0  0  0  0  0  0
    6.6814   -0.0825    0.0451 C   0  0  0  0  0  0  0  0  0  0  0  0
    7.8825   -0.8669    0.3409 C   0  0  0  0  0  0  0  0  0  0  0  0
    8.2316   -1.1543    1.6515 C   0  0  0  0  0  0  0  0  0  0  0  0
    9.3660   -1.8974    1.9663 C   0  0  0  0  0  0  0  0  0  0  0  0
   10.1772   -2.3688    0.9527 C   0  0  0  0  0  0  0  0  0  0  0  0
   11.3194   -3.1152    1.2328 O   0  0  0  0  0  0  0  0  0  0  0  0
    9.8200   -2.0768   -0.3471 C   0  0  0  0  0  0  0  0  0  0  0  0
    8.7010   -1.3435   -0.6631 C   0  0  0  0  0  0  0  0  0  0  0  0
    5.6209   -0.1966    0.9159 C   0  0  0  0  0  0  0  0  0  0  0  0
    4.4726    0.5140    0.6876 C   0  0  0  0  0  0  0  0  0  0  0  0
    2.9268    3.3714   -0.8918 N   0  0  0  0  0  0  0  0  0  0  0  0
    1.6434    3.6872   -0.9714 N   0  0  0  0  0  0  0  0  0  0  0  0
    0.8765    2.5897   -0.7007 C   0  0  0  0  0  0  0  0  0  0  0  0
   -5.4932    1.4234   -0.4249 H   0  0  0  0  0  0  0  0  0  0  0  0
   -6.3016   -1.4411    0.2903 H   0  0  0  0  0  0  0  0  0  0  0  0
   -6.9047   -0.1804    2.1043 H   0  0  0  0  0  0  0  0  0  0  0  0
   -7.1528    1.3078    1.1798 H   0  0  0  0  0  0  0  0  0  0  0  0
   -9.3300   -0.0571    2.0192 H   0  0  0  0  0  0  0  0  0  0  0  0
   -9.2721    0.7717    0.4553 H   0  0  0  0  0  0  0  0  0  0  0  0
  -10.2668   -1.3514    0.1987 H   0  0  0  0  0  0  0  0  0  0  0  0
   -9.6189   -2.8208    1.5643 H   0  0  0  0  0  0  0  0  0  0  0  0
   -9.3107   -1.1025   -1.8012 H   0  0  0  0  0  0  0  0  0  0  0  0
   -8.2493   -2.4225   -1.2592 H   0  0  0  0  0  0  0  0  0  0  0  0
   -6.8608   -0.6786   -2.1296 H   0  0  0  0  0  0  0  0  0  0  0  0
   -7.7871    0.6190   -1.3511 H   0  0  0  0  0  0  0  0  0  0  0  0
   -3.8413    2.5105   -0.6877 H   0  0  0  0  0  0  0  0  0  0  0  0
   -1.7719    3.8018   -1.0040 H   0  0  0  0  0  0  0  0  0  0  0  0
   -1.5834   -0.9773    0.1781 H   0  0  0  0  0  0  0  0  0  0  0  0
    1.2428   -0.0745    0.8306 H   0  0  0  0  0  0  0  0  0  0  0  0
    1.1872   -0.4514   -0.9141 H   0  0  0  0  0  0  0  0  0  0  0  0
    5.2996    2.1156   -2.1149 H   0  0  0  0  0  0  0  0  0  0  0  0
    7.4140    0.8129   -1.7035 H   0  0  0  0  0  0  0  0  0  0  0  0
    7.5985   -0.7859    2.4322 H   0  0  0  0  0  0  0  0  0  0  0  0
    9.6320   -2.1173    2.9831 H   0  0  0  0  0  0  0  0  0  0  0  0
   12.1567   -3.1040    0.6887 H   0  0  0  0  0  0  0  0  0  0  0  0
   10.4644   -2.4524   -1.1319 H   0  0  0  0  0  0  0  0  0  0  0  0
    8.4171   -1.1118   -1.6874 H   0  0  0  0  0  0  0  0  0  0  0  0
    5.6598   -0.8371    1.7893 H   0  0  0  0  0  0  0  0  0  0  0  0
    3.6487    0.4123    1.3824 H   0  0  0  0  0  0  0  0  0  0  0  0
    1.2082    4.6134   -1.2012 H   0  0  0  0  0  0  0  0  0  0  0  0
  1  2  2  0
  2  3  1  0
  3  4  1  0
  4  5  1  0
  5  6  1  0
  6  7  1  0
  7  8  1  0
  7  9  1  0
  9 10  1  0
  2 11  1  0
 11 12  2  0
 12 13  1  0
 13 14  2  0
 14 15  1  0
 15 16  2  0
 15 17  1  0
 17 18  1  0
 18 19  1  0
 19 20  1  0
 20 21  2  0
 21 22  1  0
 22 23  2  0
 23 24  1  0
 24 25  2  0
 25 26  1  0
 26 27  2  0
 27 28  1  0
 27 29  1  0
 29 30  2  0
 23 31  1  0
 31 32  2  0
 19 33  2  0
 33 34  1  0
 34 35  1  0
 10  4  1  0
 16 11  1  0
 35 18  2  0
 35 14  1  0
 32 20  1  0
 30 24  1  0
  3 36  1  0
  4 37  1  1
  5 38  1  0
  5 39  1  0
  6 40  1  0
  6 41  1  0
  7 42  1  6
  8 43  1  0
  9 44  1  0
  9 45  1  0
 10 46  1  0
 10 47  1  0
 12 48  1  0
 13 49  1  0
 16 50  1  0
 17 51  1  0
 17 52  1  0
 21 53  1  0
 22 54  1  0
 25 55  1  0
 26 56  1  0
 28 57  1  0
 29 58  1  0
 30 59  1  0
 31 60  1  0
 32 61  1  0
 34 62  1  0
M  END
$$$$
