@<TRIPOS>MOLECULE
*****
 62 67 0 0 0
SMALL
GASTEIGER

@<TRIPOS>ATOM
      1 O          -3.9439   -1.3194    0.2626 O.2     1  UNL1       -0.2702
      2 C          -4.0696   -0.0917   -0.0439 C.2     1  UNL1        0.2443
      3 N          -5.3805    0.4197   -0.1743 N.am    1  UNL1       -0.3085
      4 C          -6.5638   -0.4153    0.0318 C.3     1  UNL1        0.0236
      5 C          -7.3459    0.1948    1.1558 C.3     1  UNL1       -0.0322
      6 C          -8.8102   -0.0665    1.0525 C.3     1  UNL1       -0.0252
      7 C          -9.1648   -1.3350    0.3081 C.3     1  UNL1        0.0554
      8 O          -8.8491   -2.4723    1.0807 O.3     1  UNL1       -0.3918
      9 C          -8.5493   -1.3896   -1.0538 C.3     1  UNL1       -0.0252
     10 C          -7.3986   -0.4179   -1.2086 C.3     1  UNL1       -0.0322
     11 C          -2.8429    0.6677   -0.2306 C.ar    1  UNL1        0.0370
     12 C          -2.8843    2.0034   -0.5610 C.ar    1  UNL1       -0.0490
     13 C          -1.7124    2.7513   -0.7443 C.ar    1  UNL1       -0.0516
     14 C          -0.4992    2.1164   -0.5855 C.ar    1  UNL1        0.0036
     15 C          -0.4168    0.7825   -0.2555 C.ar    1  UNL1       -0.0331
     16 C          -1.5968    0.0910   -0.0862 C.ar    1  UNL1       -0.0455
     17 C           1.0135    0.3586   -0.1482 C.3     1  UNL1        0.0023
     18 C           1.7809    1.5792   -0.4496 C.ar    1  UNL1        0.0099
     19 C           3.0713    2.0798   -0.5720 C.ar    1  UNL1        0.0966
     20 C           4.3135    1.3589   -0.3922 C.ar    1  UNL1        0.0024
     21 C           5.3898    1.4630   -1.2594 C.ar    1  UNL1       -0.0519
     22 C           6.5553    0.7439   -1.0307 C.ar    1  UNL1       -0.0534
     23 C           6.6814   -0.0825    0.0451 C.ar    1  UNL1       -0.0178
     24 C           7.8825   -0.8669    0.3409 C.ar    1  UNL1       -0.0177
     25 C           8.2316   -1.1543    1.6515 C.ar    1  UNL1       -0.0506
     26 C           9.3660   -1.8974    1.9663 C.ar    1  UNL1       -0.0196
     27 C          10.1772   -2.3688    0.9527 C.ar    1  UNL1        0.1169
     28 O          11.3194   -3.1152    1.2328 O.3     1  UNL1       -0.5068
     29 C           9.8200   -2.0768   -0.3471 C.ar    1  UNL1       -0.0196
     30 C           8.7010   -1.3435   -0.6631 C.ar    1  UNL1       -0.0506
     31 C           5.6209   -0.1966    0.9159 C.ar    1  UNL1       -0.0534
     32 C           4.4726    0.5140    0.6876 C.ar    1  UNL1       -0.0519
     33 N           2.9268    3.3714   -0.8918 N.ar    1  UNL1       -0.1730
     34 N           1.6434    3.6872   -0.9714 N.ar    1  UNL1       -0.2761
     35 C           0.8765    2.5897   -0.7007 C.ar    1  UNL1        0.0701
     36 H          -5.4932    1.4234   -0.4249 H       1  UNL1        0.1493
     37 H          -6.3016   -1.4411    0.2903 H       1  UNL1        0.0498
     38 H          -6.9047   -0.1804    2.1043 H       1  UNL1        0.0284
     39 H          -7.1528    1.3078    1.1798 H       1  UNL1        0.0284
     40 H          -9.3300   -0.0571    2.0192 H       1  UNL1        0.0291
     41 H          -9.2721    0.7717    0.4553 H       1  UNL1        0.0291
     42 H         -10.2668   -1.3514    0.1987 H       1  UNL1        0.0593
     43 H          -9.6189   -2.8208    1.5643 H       1  UNL1        0.2098
     44 H          -9.3107   -1.1025   -1.8012 H       1  UNL1        0.0291
     45 H          -8.2493   -2.4225   -1.2592 H       1  UNL1        0.0291
     46 H          -6.8608   -0.6786   -2.1296 H       1  UNL1        0.0284
     47 H          -7.7871    0.6190   -1.3511 H       1  UNL1        0.0284
     48 H          -3.8413    2.5105   -0.6877 H       1  UNL1        0.0625
     49 H          -1.7719    3.8018   -1.0040 H       1  UNL1        0.0624
     50 H          -1.5834   -0.9773    0.1781 H       1  UNL1        0.0628
     51 H           1.2428   -0.0745    0.8306 H       1  UNL1        0.0363
     52 H           1.1872   -0.4514   -0.9141 H       1  UNL1        0.0363
     53 H           5.2996    2.1156   -2.1149 H       1  UNL1        0.0624
     54 H           7.4140    0.8129   -1.7035 H       1  UNL1        0.0624
     55 H           7.5985   -0.7859    2.4322 H       1  UNL1        0.0625
     56 H           9.6320   -2.1173    2.9831 H       1  UNL1        0.0654
     57 H          12.1567   -3.1040    0.6887 H       1  UNL1        0.2921
     58 H          10.4644   -2.4524   -1.1319 H       1  UNL1        0.0654
     59 H           8.4171   -1.1118   -1.6874 H       1  UNL1        0.0625
     60 H           5.6598   -0.8371    1.7893 H       1  UNL1        0.0624
     61 H           3.6487    0.4123    1.3824 H       1  UNL1        0.0624
     62 H           1.2082    4.6134   -1.2012 H       1  UNL1        0.1889
@<TRIPOS>BOND
     1     1     2    2
     2     2     3   am
     3     3     4    1
     4     4     5    1
     5     5     6    1
     6     6     7    1
     7     7     8    1
     8     7     9    1
     9     9    10    1
    10     2    11    1
    11    11    12   ar
    12    12    13   ar
    13    13    14   ar
    14    14    15   ar
    15    15    16   ar
    16    15    17    1
    17    17    18    1
    18    18    19   ar
    19    19    20    1
    20    20    21   ar
    21    21    22   ar
    22    22    23   ar
    23    23    24    1
    24    24    25   ar
    25    25    26   ar
    26    26    27   ar
    27    27    28    1
    28    27    29   ar
    29    29    30   ar
    30    23    31   ar
    31    31    32   ar
    32    19    33   ar
    33    33    34   ar
    34    34    35   ar
    35    10     4    1
    36    16    11   ar
    37    35    18   ar
    38    35    14    1
    39    32    20   ar
    40    30    24   ar
    41     3    36    1
    42     4    37    1
    43     5    38    1
    44     5    39    1
    45     6    40    1
    46     6    41    1
    47     7    42    1
    48     8    43    1
    49     9    44    1
    50     9    45    1
    51    10    46    1
    52    10    47    1
    53    12    48    1
    54    13    49    1
    55    16    50    1
    56    17    51    1
    57    17    52    1
    58    21    53    1
    59    22    54    1
    60    25    55    1
    61    26    56    1
    62    28    57    1
    63    29    58    1
    64    30    59    1
    65    31    60    1
    66    32    61    1
    67    34    62    1
