@<TRIPOS>MOLECULE
*****
 63 66 0 0 0
SMALL
GASTEIGER

@<TRIPOS>ATOM
      1 C           0.9042   -2.6091    1.5196 C.3     1  UNL1       -0.0421
      2 C           1.0123   -1.0655    1.4302 C.3     1  UNL1        0.0515
      3 C           2.3127   -0.7942    0.8038 C.ar    1  UNL1       -0.0271
      4 C           3.1873    0.0864    1.4545 C.ar    1  UNL1       -0.0562
      5 C           4.4323    0.3785    0.9496 C.ar    1  UNL1       -0.0537
      6 C           4.8664   -0.1923   -0.2273 C.ar    1  UNL1       -0.0177
      7 C           6.2086    0.1452   -0.7468 C.ar    1  UNL1       -0.0114
      8 C           7.2496    0.4398    0.0936 C.ar    1  UNL1       -0.0378
      9 C           8.4817    0.7539   -0.4281 C.ar    1  UNL1        0.0055
     10 N           8.7124    0.7846   -1.7615 N.ar    1  UNL1       -0.3291
     11 C           7.6731    0.4909   -2.5683 C.ar    1  UNL1        0.2493
     12 O           7.8352    0.5051   -3.8375 O.2     1  UNL1       -0.2679
     13 C           6.4165    0.1690   -2.1043 C.ar    1  UNL1        0.0105
     14 C           4.0103   -1.0579   -0.8685 C.ar    1  UNL1       -0.0537
     15 C           2.7374   -1.3616   -0.3593 C.ar    1  UNL1       -0.0562
     16 N          -0.1425   -0.5971    0.7399 N.am    1  UNL1       -0.2605
     17 C          -0.5086   -0.7925   -0.6284 C.3     1  UNL1        0.0224
     18 C          -1.5886    0.1229   -1.1327 C.3     1  UNL1        0.0075
     19 C          -2.8105    0.1865   -0.2100 C.3     1  UNL1        0.1428
     20 C          -3.7172   -0.9649   -0.4118 C.3     1  UNL1        0.0095
     21 C          -4.9259   -1.0394    0.4676 C.3     1  UNL1        0.0557
     22 C          -4.4432   -1.1199    1.9249 C.3     1  UNL1       -0.0468
     23 C          -5.7101   -2.3364    0.1813 C.3     1  UNL1       -0.0468
     24 C          -5.8888    0.0373    0.3236 C.1     1  UNL1        0.0688
     25 N          -6.6293    0.8851    0.2262 N.1     1  UNL1       -0.1960
     26 C          -3.4042    1.5208   -0.5105 C.ar    1  UNL1       -0.0041
     27 C          -3.1283    2.5576    0.3439 C.ar    1  UNL1       -0.0548
     28 C          -3.6323    3.8216    0.0762 C.ar    1  UNL1       -0.0614
     29 C          -4.4115    4.0425   -1.0468 C.ar    1  UNL1       -0.0617
     30 C          -4.7007    3.0110   -1.9193 C.ar    1  UNL1       -0.0614
     31 C          -4.1834    1.7595   -1.6255 C.ar    1  UNL1       -0.0548
     32 O          -2.4024    0.2086    1.1397 O.3     1  UNL1       -0.4388
     33 C          -1.0727    0.1860    1.5254 C.2     1  UNL1        0.4042
     34 O          -0.6995    0.8267    2.5240 O.2     1  UNL1       -0.2262
     35 H           1.9064   -3.0499    1.7552 H       1  UNL1        0.0251
     36 H           0.2335   -2.9063    2.3400 H       1  UNL1        0.0251
     37 H           0.6099   -3.0132    0.5343 H       1  UNL1        0.0251
     38 H           1.0245   -0.7367    2.4984 H       1  UNL1        0.0549
     39 H           2.8475    0.5356    2.3764 H       1  UNL1        0.0621
     40 H           5.1309    1.0654    1.4411 H       1  UNL1        0.0624
     41 H           7.0840    0.4193    1.1772 H       1  UNL1        0.0638
     42 H           9.2933    0.9835    0.2573 H       1  UNL1        0.0808
     43 H           9.6539    1.0255   -2.1641 H       1  UNL1        0.1683
     44 H           5.6113   -0.0608   -2.8151 H       1  UNL1        0.0678
     45 H           4.3333   -1.5095   -1.7894 H       1  UNL1        0.0624
     46 H           2.0933   -2.0584   -0.8770 H       1  UNL1        0.0621
     47 H           0.3654   -0.5976   -1.2993 H       1  UNL1        0.0467
     48 H          -0.8504   -1.8418   -0.8378 H       1  UNL1        0.0467
     49 H          -1.8908   -0.2402   -2.1291 H       1  UNL1        0.0322
     50 H          -1.1440    1.1301   -1.2123 H       1  UNL1        0.0322
     51 H          -4.0656   -1.0952   -1.4603 H       1  UNL1        0.0322
     52 H          -3.0884   -1.8935   -0.2366 H       1  UNL1        0.0322
     53 H          -5.1980   -1.7513    2.4537 H       1  UNL1        0.0245
     54 H          -3.4906   -1.6724    1.9885 H       1  UNL1        0.0245
     55 H          -4.3250   -0.1399    2.3835 H       1  UNL1        0.0245
     56 H          -5.0325   -3.1811    0.0404 H       1  UNL1        0.0245
     57 H          -6.3911   -2.4469    1.0551 H       1  UNL1        0.0245
     58 H          -6.3579   -2.1258   -0.6871 H       1  UNL1        0.0245
     59 H          -2.5142    2.4348    1.2513 H       1  UNL1        0.0622
     60 H          -3.3942    4.6194    0.7739 H       1  UNL1        0.0618
     61 H          -4.7998    5.0332   -1.2476 H       1  UNL1        0.0618
     62 H          -5.3041    3.1556   -2.8024 H       1  UNL1        0.0618
     63 H          -4.3812    0.9291   -2.2725 H       1  UNL1        0.0622
@<TRIPOS>BOND
     1     1     2    1
     2     2     3    1
     3     3     4   ar
     4     4     5   ar
     5     5     6   ar
     6     6     7    1
     7     7     8   ar
     8     8     9   ar
     9     9    10   ar
    10    10    11   ar
    11    11    12    2
    12    11    13   ar
    13     6    14   ar
    14    14    15   ar
    15     2    16    1
    16    16    17    1
    17    17    18    1
    18    18    19    1
    19    19    20    1
    20    20    21    1
    21    21    22    1
    22    21    23    1
    23    21    24    1
    24    24    25    3
    25    19    26    1
    26    26    27   ar
    27    27    28   ar
    28    28    29   ar
    29    29    30   ar
    30    30    31   ar
    31    19    32    1
    32    32    33    1
    33    33    34    2
    34    15     3   ar
    35    33    16   am
    36    13     7   ar
    37    31    26   ar
    38     1    35    1
    39     1    36    1
    40     1    37    1
    41     2    38    1
    42     4    39    1
    43     5    40    1
    44     8    41    1
    45     9    42    1
    46    10    43    1
    47    13    44    1
    48    14    45    1
    49    15    46    1
    50    17    47    1
    51    17    48    1
    52    18    49    1
    53    18    50    1
    54    20    51    1
    55    20    52    1
    56    22    53    1
    57    22    54    1
    58    22    55    1
    59    23    56    1
    60    23    57    1
    61    23    58    1
    62    27    59    1
    63    28    60    1
    64    29    61    1
    65    30    62    1
    66    31    63    1
