
     RDKit          3D

 20 20  0  0  0  0  0  0  0  0999 V2000
    4.2144   -0.0975   -0.9483 O   0  0  0  0  0  0  0  0  0  0  0  0
    2.9989   -0.5845    0.1430 P   0  0  0  0  0  0  0  0  0  0  0  0
    2.3111   -2.0420   -0.3401 O   0  0  0  0  0  0  0  0  0  0  0  0
    3.7032   -0.8387    1.4740 O   0  0  0  0  0  0  0  0  0  0  0  0
    1.8978    0.6771    0.3241 O   0  0  0  0  0  0  0  0  0  0  0  0
    0.5366    0.5070    0.1340 C   0  0  0  0  0  0  0  0  0  0  0  0
   -0.0147   -0.1180   -0.9861 C   0  0  0  0  0  0  0  0  0  0  0  0
   -1.3987   -0.2583   -1.1181 C   0  0  0  0  0  0  0  0  0  0  0  0
   -2.1931    0.2402   -0.1077 C   0  0  0  0  0  0  0  0  0  0  0  0
   -1.7159    0.8671    1.0227 C   0  0  0  0  0  0  0  0  0  0  0  0
   -0.3240    0.9815    1.1054 C   0  0  0  0  0  0  0  0  0  0  0  0
   -3.6088    0.1248   -0.1901 N   0  0  0  0  0  4  0  0  0  0  0  0
   -4.3973    0.6229    0.8191 O   0  0  0  0  0  1  0  0  0  0  0  0
   -4.3223   -0.3733   -1.0567 O   0  0  0  0  0  0  0  0  0  0  0  0
    4.3358    0.8913   -0.9499 H   0  0  0  0  0  0  0  0  0  0  0  0
    1.3541   -2.0904   -0.0275 H   0  0  0  0  0  0  0  0  0  0  0  0
    0.6539   -0.4916   -1.7501 H   0  0  0  0  0  0  0  0  0  0  0  0
   -1.7988   -0.7457   -1.9943 H   0  0  0  0  0  0  0  0  0  0  0  0
   -2.3410    1.2557    1.8108 H   0  0  0  0  0  0  0  0  0  0  0  0
    0.1087    1.4724    1.9851 H   0  0  0  0  0  0  0  0  0  0  0  0
  1  2  1  0
  2  3  1  0
  2  4  2  0
  2  5  1  0
  5  6  1  0
  6  7  2  0
  7  8  1  0
  8  9  2  0
  9 10  1  0
 10 11  2  0
  9 12  1  0
 12 13  1  0
 12 14  2  0
 11  6  1  0
  1 15  1  0
  3 16  1  0
  7 17  1  0
  8 18  1  0
 10 19  1  0
 11 20  1  0
M  CHG  2  12   1  13  -1
M  END
$$$$
