
     RDKit          3D

 48 50  0  0  0  0  0  0  0  0999 V2000
    0.4587   -1.5504   -0.0688 C   0  0  1  0  0  0  0  0  0  0  0  0
   -1.0509   -1.3563    0.0262 C   0  0  0  0  0  0  0  0  0  0  0  0
   -1.6330   -1.1804   -1.2042 O   0  0  0  0  0  0  0  0  0  0  0  0
   -3.2979   -0.9618   -1.1723 P   0  0  0  0  0  0  0  0  0  0  0  0
   -4.1068   -2.4615   -1.0229 O   0  0  0  0  0  0  0  0  0  0  0  0
   -3.7403   -0.3785   -2.4986 O   0  0  0  0  0  0  0  0  0  0  0  0
   -3.8044    0.1048    0.0362 O   0  0  0  0  0  0  0  0  0  0  0  0
   -5.4116   -0.1514    0.4612 P   0  0  0  0  0  0  0  0  0  0  0  0
   -5.5573   -1.1527    1.8204 O   0  0  0  0  0  0  0  0  0  0  0  0
   -6.2011   -0.7743   -0.6776 O   0  0  0  0  0  0  0  0  0  0  0  0
   -6.1053    1.3307    0.8757 O   0  0  0  0  0  0  0  0  0  0  0  0
   -7.4827    1.5999   -0.0583 P   0  0  0  0  0  0  0  0  0  0  0  0
   -8.1605    0.1568   -0.5645 O   0  0  0  0  0  0  0  0  0  0  0  0
   -7.1146    2.5403   -1.4038 O   0  0  0  0  0  0  0  0  0  0  0  0
   -8.6717    2.4110    0.9239 S   0  0  0  0  0  0  0  0  0  0  0  0
    1.0815   -0.4737   -0.6464 O   0  0  0  0  0  0  0  0  0  0  0  0
    2.3477   -0.3833   -0.0733 C   0  0  1  0  0  0  0  0  0  0  0  0
    2.9912    0.8583   -0.3574 N   0  0  0  0  0  0  0  0  0  0  0  0
    2.3994    2.0520   -0.5210 C   0  0  0  0  0  0  0  0  0  0  0  0
    3.4041    2.9320   -0.7719 N   0  0  0  0  0  0  0  0  0  0  0  0
    4.5726    2.3069   -0.7639 C   0  0  0  0  0  0  0  0  0  0  0  0
    4.3302    0.9756   -0.4998 C   0  0  0  0  0  0  0  0  0  0  0  0
    5.3402    0.0836   -0.4289 N   0  0  0  0  0  0  0  0  0  0  0  0
    6.6220    0.4476   -0.6111 C   0  0  0  0  0  0  0  0  0  0  0  0
    7.6392   -0.3457   -0.5587 N   0  0  0  0  0  0  0  0  0  0  0  0
    6.9293    1.7506   -0.8759 N   0  0  0  0  0  0  0  0  0  0  0  0
    5.9153    2.6503   -0.9478 C   0  0  0  0  0  0  0  0  0  0  0  0
    6.2048    3.9917   -1.2180 O   0  0  0  0  0  0  0  0  0  0  0  0
    2.0228   -0.5750    1.3968 C   0  0  2  0  0  0  0  0  0  0  0  0
    3.1581   -0.9504    2.1171 O   0  0  0  0  0  0  0  0  0  0  0  0
    1.0135   -1.7026    1.3267 C   0  0  2  0  0  0  0  0  0  0  0  0
    1.7722   -2.8900    1.4336 O   0  0  0  0  0  0  0  0  0  0  0  0
    0.6921   -2.4361   -0.6947 H   0  0  0  0  0  0  0  0  0  0  0  0
   -1.4869   -2.1519    0.6512 H   0  0  0  0  0  0  0  0  0  0  0  0
   -1.2133   -0.4013    0.5945 H   0  0  0  0  0  0  0  0  0  0  0  0
   -3.7525   -2.9201   -0.2110 H   0  0  0  0  0  0  0  0  0  0  0  0
   -5.7264   -2.1019    1.5875 H   0  0  0  0  0  0  0  0  0  0  0  0
   -8.4793   -0.3989    0.1915 H   0  0  0  0  0  0  0  0  0  0  0  0
   -6.3190    3.1058   -1.2675 H   0  0  0  0  0  0  0  0  0  0  0  0
    2.9861   -1.2653   -0.3659 H   0  0  0  0  0  0  0  0  0  0  0  0
    1.3441    2.3086   -0.4722 H   0  0  0  0  0  0  0  0  0  0  0  0
    5.1524   -0.9308   -0.2274 H   0  0  0  0  0  0  0  0  0  0  0  0
    7.5073   -1.3694   -0.3606 H   0  0  0  0  0  0  0  0  0  0  0  0
    6.3953    4.5743   -0.4026 H   0  0  0  0  0  0  0  0  0  0  0  0
    1.5626    0.3668    1.8136 H   0  0  0  0  0  0  0  0  0  0  0  0
    3.6702   -0.1314    2.3355 H   0  0  0  0  0  0  0  0  0  0  0  0
    0.2418   -1.6500    2.1174 H   0  0  0  0  0  0  0  0  0  0  0  0
    1.5607   -3.5024    0.6729 H   0  0  0  0  0  0  0  0  0  0  0  0
  1  2  1  0
  2  3  1  0
  3  4  1  0
  4  5  1  0
  4  6  2  0
  4  7  1  0
  7  8  1  0
  8  9  1  0
  8 10  2  0
  8 11  1  0
 11 12  1  0
 12 13  1  0
 12 14  1  0
 12 15  2  0
  1 16  1  0
 16 17  1  0
 17 18  1  0
 18 19  1  0
 19 20  2  0
 20 21  1  0
 21 22  2  0
 22 23  1  0
 23 24  1  0
 24 25  2  3
 24 26  1  0
 26 27  2  0
 27 28  1  0
 17 29  1  0
 29 30  1  0
 29 31  1  0
 31 32  1  0
 31  1  1  0
 22 18  1  0
 27 21  1  0
  1 33  1  6
  2 34  1  0
  2 35  1  0
  5 36  1  0
  9 37  1  0
 13 38  1  0
 14 39  1  0
 17 40  1  6
 19 41  1  0
 23 42  1  0
 25 43  1  0
 28 44  1  0
 29 45  1  1
 30 46  1  0
 31 47  1  1
 32 48  1  0
M  END
$$$$
