@<TRIPOS>MOLECULE
*****
 48 50 0 0 0
SMALL
GASTEIGER

@<TRIPOS>ATOM
      1 C           0.4587   -1.5504   -0.0688 C.3     1  UNL1        0.1134
      2 C          -1.0509   -1.3563    0.0262 C.3     1  UNL1        0.0879
      3 O          -1.6330   -1.1804   -1.2042 O.3     1  UNL1       -0.2837
      4 P          -3.2979   -0.9618   -1.1723 P.3     1  UNL1        0.4835
      5 O          -4.1068   -2.4615   -1.0229 O.3     1  UNL1       -0.3022
      6 O          -3.7403   -0.3785   -2.4986 O.2     1  UNL1       -0.2269
      7 O          -3.8044    0.1048    0.0362 O.3     1  UNL1       -0.1858
      8 P          -5.4116   -0.1514    0.4612 P.3     1  UNL1        0.4901
      9 O          -5.5573   -1.1527    1.8204 O.3     1  UNL1       -0.3020
     10 O          -6.2011   -0.7743   -0.6776 O.2     1  UNL1       -0.2265
     11 O          -6.1053    1.3307    0.8757 O.3     1  UNL1       -0.2108
     12 P          -7.4827    1.5999   -0.0583 P.3     1  UNL1        0.3115
     13 O          -8.1605    0.1568   -0.5645 O.3     1  UNL1       -0.3266
     14 O          -7.1146    2.5403   -1.4038 O.3     1  UNL1       -0.3266
     15 S          -8.6717    2.4110    0.9239 S.2     1  UNL1        0.0226
     16 O           1.0815   -0.4737   -0.6464 O.3     1  UNL1       -0.3456
     17 C           2.3477   -0.3833   -0.0733 C.3     1  UNL1        0.1666
     18 N           2.9912    0.8583   -0.3574 N.ar    1  UNL1       -0.2869
     19 C           2.3994    2.0520   -0.5210 C.ar    1  UNL1        0.1004
     20 N           3.4041    2.9320   -0.7719 N.ar    1  UNL1       -0.2287
     21 C           4.5726    2.3069   -0.7639 C.ar    1  UNL1        0.1672
     22 C           4.3302    0.9756   -0.4998 C.ar    1  UNL1        0.1483
     23 N           5.3402    0.0836   -0.4289 N.ar    1  UNL1       -0.3088
     24 C           6.6220    0.4476   -0.6111 C.ar    1  UNL1        0.2252
     25 N           7.6392   -0.3457   -0.5587 N.2     1  UNL1       -0.2664
     26 N           6.9293    1.7506   -0.8759 N.ar    1  UNL1       -0.1758
     27 C           5.9153    2.6503   -0.9478 C.ar    1  UNL1        0.2453
     28 O           6.2048    3.9917   -1.2180 O.3     1  UNL1       -0.4908
     29 C           2.0228   -0.5750    1.3968 C.3     1  UNL1        0.1285
     30 O           3.1581   -0.9504    2.1171 O.3     1  UNL1       -0.3847
     31 C           1.0135   -1.7026    1.3267 C.3     1  UNL1        0.1135
     32 O           1.7722   -2.8900    1.4336 O.3     1  UNL1       -0.3864
     33 H           0.6921   -2.4361   -0.6947 H       1  UNL1        0.0647
     34 H          -1.4869   -2.1519    0.6512 H       1  UNL1        0.0592
     35 H          -1.2133   -0.4013    0.5945 H       1  UNL1        0.0592
     36 H          -3.7525   -2.9201   -0.2110 H       1  UNL1        0.2220
     37 H          -5.7264   -2.1019    1.5875 H       1  UNL1        0.2220
     38 H          -8.4793   -0.3989    0.1915 H       1  UNL1        0.2195
     39 H          -6.3190    3.1058   -1.2675 H       1  UNL1        0.2195
     40 H           2.9861   -1.2653   -0.3659 H       1  UNL1        0.0866
     41 H           1.3441    2.3086   -0.4722 H       1  UNL1        0.1030
     42 H           5.1524   -0.9308   -0.2274 H       1  UNL1        0.1703
     43 H           7.5073   -1.3694   -0.3606 H       1  UNL1        0.1898
     44 H           6.3953    4.5743   -0.4026 H       1  UNL1        0.2938
     45 H           1.5626    0.3668    1.8136 H       1  UNL1        0.0665
     46 H           3.6702   -0.1314    2.3355 H       1  UNL1        0.2101
     47 H           0.2418   -1.6500    2.1174 H       1  UNL1        0.0647
     48 H           1.5607   -3.5024    0.6729 H       1  UNL1        0.2100
@<TRIPOS>BOND
     1     1     2    1
     2     2     3    1
     3     3     4    1
     4     4     5    1
     5     4     6    2
     6     4     7    1
     7     7     8    1
     8     8     9    1
     9     8    10    2
    10     8    11    1
    11    11    12    1
    12    12    13    1
    13    12    14    1
    14    12    15    2
    15     1    16    1
    16    16    17    1
    17    17    18    1
    18    18    19   ar
    19    19    20   ar
    20    20    21   ar
    21    21    22   ar
    22    22    23   ar
    23    23    24   ar
    24    24    25    2
    25    24    26   ar
    26    26    27   ar
    27    27    28    1
    28    17    29    1
    29    29    30    1
    30    29    31    1
    31    31    32    1
    32    31     1    1
    33    22    18   ar
    34    27    21   ar
    35     1    33    1
    36     2    34    1
    37     2    35    1
    38     5    36    1
    39     9    37    1
    40    13    38    1
    41    14    39    1
    42    17    40    1
    43    19    41    1
    44    23    42    1
    45    25    43    1
    46    28    44    1
    47    29    45    1
    48    30    46    1
    49    31    47    1
    50    32    48    1
