@<TRIPOS>MOLECULE
*****
 62 67 0 0 0
SMALL
GASTEIGER

@<TRIPOS>ATOM
      1 C          -1.2206    0.0253   -2.4104 C.3     1  UNL1       -0.0351
      2 C          -0.3543   -0.8694   -1.5392 C.3     1  UNL1        0.0935
      3 C           1.0646   -0.5456   -1.9038 C.ar    1  UNL1        0.0158
      4 C           1.9652   -0.1837   -0.9404 C.ar    1  UNL1       -0.0463
      5 C           3.2714    0.1119   -1.2683 C.ar    1  UNL1       -0.0217
      6 C           4.1910    0.4975   -0.2006 C.2     1  UNL1       -0.0172
      7 C           5.4527    0.1104   -0.1732 C.2     1  UNL1        0.1492
      8 F           5.8337   -0.6817   -1.2232 F       1  UNL1       -0.2032
      9 C           6.3909    0.4794    0.8738 C.ar    1  UNL1        0.0990
     10 C           6.0984    1.2642    1.9585 C.ar    1  UNL1       -0.0322
     11 C           7.0706    1.5713    2.9200 C.ar    1  UNL1       -0.0408
     12 C           8.3498    1.0837    2.7884 C.ar    1  UNL1        0.0699
     13 C           9.3859    1.3728    3.7525 C.1     1  UNL1        0.1007
     14 N          10.2327    1.6224    4.5232 N.1     1  UNL1       -0.1908
     15 C           8.6144    0.2984    1.6897 C.ar    1  UNL1        0.0457
     16 N           7.6593    0.0111    0.7672 N.ar    1  UNL1       -0.2514
     17 C           3.6315    0.0292   -2.5929 C.ar    1  UNL1       -0.0518
     18 C           2.7232   -0.3369   -3.5695 C.ar    1  UNL1       -0.0255
     19 C           1.4282   -0.6259   -3.2161 C.ar    1  UNL1        0.1289
     20 F           0.5381   -0.9886   -4.2021 F       1  UNL1       -0.2051
     21 N          -0.5743   -2.2284   -1.9493 N.2     1  UNL1       -0.2521
     22 C          -1.6148   -2.8780   -1.6407 C.2     1  UNL1        0.1485
     23 N          -1.7860   -4.2134   -2.0698 N.pl3   1  UNL1       -0.3380
     24 S          -2.8560   -2.0778   -0.6458 S.3     1  UNL1       -0.0746
     25 C          -1.9104   -0.9657    0.4670 C.3     1  UNL1        0.1054
     26 C          -2.6476   -0.0989    1.4037 C.2     1  UNL1        0.2326
     27 O          -2.0449    0.1896    2.4973 O.2     1  UNL1       -0.2741
     28 N          -3.9463    0.4240    1.1843 N.am    1  UNL1       -0.2954
     29 C          -4.5624    1.2842    2.1741 C.3     1  UNL1        0.0383
     30 C          -5.2743    2.4641    1.5807 C.3     1  UNL1        0.0642
     31 O          -5.6292    2.2998    0.2500 O.3     1  UNL1       -0.3703
     32 C          -5.9752    0.9821    0.0556 C.3     1  UNL1        0.0854
     33 C          -7.2144    0.4154    0.6585 C.3     1  UNL1       -0.0196
     34 C          -7.0896    0.6276   -0.8579 C.3     1  UNL1       -0.0196
     35 C          -4.7072    0.1187   -0.0014 C.3     1  UNL1        0.0439
     36 C          -0.5828   -1.5615    0.9542 C.3     1  UNL1       -0.0220
     37 C          -0.6292   -0.5643   -0.1075 C.3     1  UNL1        0.0134
     38 H          -1.6515   -0.5575   -3.2283 H       1  UNL1        0.0256
     39 H          -1.9957    0.5246   -1.7941 H       1  UNL1        0.0256
     40 H          -0.5829    0.8061   -2.9125 H       1  UNL1        0.0256
     41 H           1.6809   -0.1162    0.1238 H       1  UNL1        0.0628
     42 H           3.8511    1.1256    0.6142 H       1  UNL1        0.0653
     43 H           5.1070    1.6470    2.0688 H       1  UNL1        0.0640
     44 H           6.8450    2.1868    3.7726 H       1  UNL1        0.0631
     45 H           9.6199   -0.0834    1.5893 H       1  UNL1        0.0843
     46 H           4.6366    0.2499   -2.9167 H       1  UNL1        0.0624
     47 H           2.9982   -0.4047   -4.6152 H       1  UNL1        0.0646
     48 H          -1.2163   -4.6285   -2.8563 H       1  UNL1        0.1442
     49 H          -2.4837   -4.8787   -1.6410 H       1  UNL1        0.1442
     50 H          -3.7908    1.5811    2.9206 H       1  UNL1        0.0487
     51 H          -5.3464    0.6412    2.6700 H       1  UNL1        0.0487
     52 H          -6.2450    2.6355    2.1291 H       1  UNL1        0.0576
     53 H          -4.6575    3.4038    1.6450 H       1  UNL1        0.0576
     54 H          -7.9183    1.0540    1.2160 H       1  UNL1        0.0294
     55 H          -7.1234   -0.6197    1.0317 H       1  UNL1        0.0294
     56 H          -7.7707    1.4057   -1.2563 H       1  UNL1        0.0294
     57 H          -6.9794   -0.3246   -1.4382 H       1  UNL1        0.0294
     58 H          -4.1792    0.2413   -0.9417 H       1  UNL1        0.0493
     59 H          -5.0886   -0.9299    0.1506 H       1  UNL1        0.0493
     60 H          -0.4247   -2.6404    0.7867 H       1  UNL1        0.0287
     61 H          -0.2849   -1.2503    1.9957 H       1  UNL1        0.0287
     62 H          -0.2817    0.4678    0.1983 H       1  UNL1        0.0346
@<TRIPOS>BOND
     1     2     1    1
     2     2     3    1
     3     3     4   ar
     4     4     5   ar
     5     5     6    1
     6     6     7    2
     7     7     8    1
     8     7     9    1
     9     9    10   ar
    10    10    11   ar
    11    11    12   ar
    12    12    13    1
    13    13    14    3
    14    12    15   ar
    15    15    16   ar
    16     5    17   ar
    17    17    18   ar
    18    18    19   ar
    19    19    20    1
    20     2    21    1
    21    21    22    2
    22    22    23    1
    23    22    24    1
    24    24    25    1
    25    25    26    1
    26    26    27    2
    27    26    28   am
    28    28    29    1
    29    29    30    1
    30    30    31    1
    31    31    32    1
    32    32    33    1
    33    33    34    1
    34    32    35    1
    35    25    36    1
    36    36    37    1
    37    37     2    1
    38    19     3   ar
    39    37    25    1
    40    16     9   ar
    41    35    28    1
    42    34    32    1
    43     1    38    1
    44     1    39    1
    45     1    40    1
    46     4    41    1
    47     6    42    1
    48    10    43    1
    49    11    44    1
    50    15    45    1
    51    17    46    1
    52    18    47    1
    53    23    48    1
    54    23    49    1
    55    29    50    1
    56    29    51    1
    57    30    52    1
    58    30    53    1
    59    33    54    1
    60    33    55    1
    61    34    56    1
    62    34    57    1
    63    35    58    1
    64    35    59    1
    65    36    60    1
    66    36    61    1
    67    37    62    1
