@<TRIPOS>MOLECULE
*****
 56 58 0 0 0
SMALL
GASTEIGER

@<TRIPOS>ATOM
      1 C          -3.0247    4.8104    1.7314 C.3     1  UNL1        0.0788
      2 O          -2.1884    3.9404    1.0109 O.3     1  UNL1       -0.4951
      3 C          -2.7061    2.8996    0.2592 C.ar    1  UNL1        0.1204
      4 C          -4.0728    2.7249    0.2261 C.ar    1  UNL1       -0.0199
      5 C          -4.6077    1.6926   -0.5178 C.ar    1  UNL1       -0.0580
      6 C          -3.7688    0.8538   -1.2141 C.ar    1  UNL1       -0.0568
      7 C          -2.3743    1.0005   -1.2045 C.ar    1  UNL1       -0.0266
      8 C          -1.5721    0.0582   -1.9763 C.3     1  UNL1        0.0413
      9 N          -1.0419   -1.0760   -1.2918 N.am    1  UNL1       -0.2798
     10 C          -1.8373   -2.2823   -1.1821 C.3     1  UNL1        0.0292
     11 C          -2.6266   -2.3930    0.0851 C.3     1  UNL1        0.0142
     12 N          -3.3687   -3.6125    0.0769 N.3     1  UNL1       -0.3069
     13 C          -4.4255   -3.6958   -0.8814 C.3     1  UNL1       -0.0130
     14 C          -2.6028   -4.8162    0.1897 C.3     1  UNL1       -0.0130
     15 C           0.2525   -1.0701   -0.7529 C.2     1  UNL1        0.3068
     16 O           0.6383   -2.0849   -0.1373 O.2     1  UNL1       -0.2523
     17 N           1.1144    0.0306   -0.8863 N.am    1  UNL1       -0.2693
     18 C           2.4406    0.1480   -0.3780 C.ar    1  UNL1        0.0348
     19 C           3.1109   -0.7844    0.3344 C.ar    1  UNL1       -0.0399
     20 C           4.3985   -0.5628    0.7805 C.ar    1  UNL1       -0.0522
     21 C           5.0502    0.6038    0.5233 C.ar    1  UNL1       -0.0148
     22 C           6.4214    0.8522    0.9959 C.ar    1  UNL1        0.0193
     23 C           7.4165   -0.0770    1.1652 C.ar    1  UNL1        0.0568
     24 N           8.5046    0.5960    1.6127 N.ar    1  UNL1       -0.1817
     25 N           8.2401    1.8838    1.7291 N.ar    1  UNL1       -0.2841
     26 C           6.9541    2.0610    1.3513 C.ar    1  UNL1        0.0300
     27 C           4.3689    1.5544   -0.2023 C.ar    1  UNL1       -0.0522
     28 C           3.1024    1.3489   -0.6469 C.ar    1  UNL1       -0.0399
     29 C          -1.8768    2.0289   -0.4609 C.ar    1  UNL1       -0.0153
     30 H          -3.6862    4.2575    2.4377 H       1  UNL1        0.0660
     31 H          -3.6109    5.4449    1.0416 H       1  UNL1        0.0660
     32 H          -2.3882    5.4917    2.3449 H       1  UNL1        0.0660
     33 H          -4.7174    3.4076    0.7896 H       1  UNL1        0.0654
     34 H          -5.6880    1.5904   -0.5182 H       1  UNL1        0.0619
     35 H          -4.2193    0.0563   -1.7857 H       1  UNL1        0.0621
     36 H          -0.7737    0.5857   -2.5793 H       1  UNL1        0.0514
     37 H          -2.2082   -0.3972   -2.8264 H       1  UNL1        0.0514
     38 H          -1.1093   -3.1440   -1.2129 H       1  UNL1        0.0478
     39 H          -2.5339   -2.3764   -2.0495 H       1  UNL1        0.0478
     40 H          -3.2824   -1.5185    0.1962 H       1  UNL1        0.0442
     41 H          -1.9068   -2.4713    0.9427 H       1  UNL1        0.0442
     42 H          -5.0985   -4.5413   -0.5989 H       1  UNL1        0.0391
     43 H          -5.0625   -2.8046   -0.9169 H       1  UNL1        0.0391
     44 H          -3.9429   -3.8990   -1.8803 H       1  UNL1        0.0391
     45 H          -2.8934   -5.4682   -0.6849 H       1  UNL1        0.0391
     46 H          -1.5366   -4.5934    0.1339 H       1  UNL1        0.0391
     47 H          -2.8746   -5.4158    1.0897 H       1  UNL1        0.0391
     48 H           0.7565    0.8684   -1.4288 H       1  UNL1        0.1564
     49 H           2.6193   -1.7360    0.5621 H       1  UNL1        0.0636
     50 H           4.8690   -1.3587    1.3445 H       1  UNL1        0.0624
     51 H           7.3826   -1.1423    0.9889 H       1  UNL1        0.0854
     52 H           8.8338    2.6773    2.0385 H       1  UNL1        0.1882
     53 H           6.4225    2.9964    1.3281 H       1  UNL1        0.0830
     54 H           4.9135    2.4873   -0.3978 H       1  UNL1        0.0624
     55 H           2.6254    2.1536   -1.2194 H       1  UNL1        0.0636
     56 H          -0.8087    2.2162   -0.3967 H       1  UNL1        0.0657
@<TRIPOS>BOND
     1     1     2    1
     2     2     3    1
     3     3     4   ar
     4     4     5   ar
     5     5     6   ar
     6     6     7   ar
     7     7     8    1
     8     8     9    1
     9     9    10    1
    10    10    11    1
    11    11    12    1
    12    12    13    1
    13    12    14    1
    14     9    15   am
    15    15    16    2
    16    15    17   am
    17    17    18    1
    18    18    19   ar
    19    19    20   ar
    20    20    21   ar
    21    21    22    1
    22    22    23   ar
    23    23    24   ar
    24    24    25   ar
    25    25    26   ar
    26    21    27   ar
    27    27    28   ar
    28     7    29   ar
    29    29     3   ar
    30    28    18   ar
    31    26    22   ar
    32     1    30    1
    33     1    31    1
    34     1    32    1
    35     4    33    1
    36     5    34    1
    37     6    35    1
    38     8    36    1
    39     8    37    1
    40    10    38    1
    41    10    39    1
    42    11    40    1
    43    11    41    1
    44    13    42    1
    45    13    43    1
    46    13    44    1
    47    14    45    1
    48    14    46    1
    49    14    47    1
    50    17    48    1
    51    19    49    1
    52    20    50    1
    53    23    51    1
    54    25    52    1
    55    26    53    1
    56    27    54    1
    57    28    55    1
    58    29    56    1
