@<TRIPOS>MOLECULE
*****
 58 62 0 0 0
SMALL
GASTEIGER

@<TRIPOS>ATOM
      1 C           3.2365    3.3083    0.0317 C.3     1  UNL1        0.0333
      2 C           3.5648    1.8517   -0.0275 C.2     1  UNL1        0.3049
      3 O           4.7279    1.4678   -0.3122 O.2     1  UNL1       -0.2511
      4 O           2.6138    0.9067    0.2252 O.3     1  UNL1       -0.4500
      5 C           2.7896   -0.4896    0.2075 C.3     1  UNL1        0.1759
      6 C           3.7631   -0.9962    1.1682 C.2     1  UNL1        0.1741
      7 C           4.4596   -0.0806    2.1073 C.3     1  UNL1       -0.0020
      8 O           4.0102   -2.1872    1.2043 O.2     1  UNL1       -0.2934
      9 C           3.0801   -0.9812   -1.2194 C.3     1  UNL1       -0.0049
     10 C           1.7218   -1.2307   -1.8685 C.3     1  UNL1       -0.0450
     11 C           0.8224   -0.5676   -0.9242 C.3     1  UNL1       -0.0248
     12 C          -0.6212   -0.8718   -0.9150 C.3     1  UNL1       -0.0141
     13 C          -1.2506   -0.9205   -2.2341 C.2     1  UNL1       -0.0617
     14 C          -2.4853   -0.5250   -2.4066 C.2     1  UNL1        0.0412
     15 CL         -3.2080   -0.5977   -4.0013 Cl      1  UNL1       -0.0836
     16 C          -3.2702   -0.0164   -1.2727 C.2     1  UNL1       -0.0196
     17 C          -4.5448    0.2682   -1.4856 C.2     1  UNL1       -0.0138
     18 C          -5.3456    0.7782   -0.3778 C.2     1  UNL1        0.1598
     19 O          -6.5434    0.4260   -0.2725 O.2     1  UNL1       -0.2924
     20 C          -4.6446    1.6975    0.5522 C.3     1  UNL1        0.0255
     21 C          -3.5987    2.6234   -0.0089 C.3     1  UNL1       -0.0386
     22 C          -3.2004    1.4142    0.7198 C.3     1  UNL1       -0.0208
     23 C          -2.6981    0.1585    0.0701 C.3     1  UNL1        0.0013
     24 C          -3.0894   -1.0400    0.9044 C.3     1  UNL1       -0.0549
     25 C          -1.2060    0.2869   -0.0850 C.3     1  UNL1       -0.0247
     26 C          -0.4439    0.4922    1.1784 C.3     1  UNL1       -0.0482
     27 C           0.6166   -0.5006    1.4982 C.3     1  UNL1       -0.0430
     28 C           1.3961   -1.0704    0.4001 C.3     1  UNL1        0.0182
     29 C           1.5230   -2.5719    0.4322 C.3     1  UNL1       -0.0552
     30 H           3.9671    3.8777   -0.5976 H       1  UNL1        0.0342
     31 H           3.3353    3.7083    1.0600 H       1  UNL1        0.0342
     32 H           2.2130    3.4914   -0.3717 H       1  UNL1        0.0342
     33 H           3.9505    0.8871    2.2441 H       1  UNL1        0.0307
     34 H           5.5498    0.0374    1.8685 H       1  UNL1        0.0307
     35 H           4.4657   -0.5371    3.1429 H       1  UNL1        0.0307
     36 H           3.5926   -0.1926   -1.8048 H       1  UNL1        0.0308
     37 H           3.7198   -1.8647   -1.2311 H       1  UNL1        0.0308
     38 H           1.5372   -2.2869   -2.0683 H       1  UNL1        0.0270
     39 H           1.6638   -0.7069   -2.8641 H       1  UNL1        0.0270
     40 H           1.0348    0.5333   -0.9502 H       1  UNL1        0.0313
     41 H          -0.8551   -1.8270   -0.3850 H       1  UNL1        0.0349
     42 H          -0.7043   -1.2879   -3.1046 H       1  UNL1        0.0589
     43 H          -4.9937    0.1095   -2.4842 H       1  UNL1        0.0656
     44 H          -5.2049    1.9558    1.4579 H       1  UNL1        0.0384
     45 H          -3.4844    2.6371   -1.1274 H       1  UNL1        0.0275
     46 H          -3.5066    3.6041    0.4552 H       1  UNL1        0.0275
     47 H          -2.7626    1.6120    1.7416 H       1  UNL1        0.0316
     48 H          -3.1735   -1.9199    0.2400 H       1  UNL1        0.0238
     49 H          -2.4232   -1.2206    1.7540 H       1  UNL1        0.0238
     50 H          -4.1057   -0.8383    1.3080 H       1  UNL1        0.0238
     51 H          -1.0440    1.1803   -0.7275 H       1  UNL1        0.0315
     52 H          -1.1156    0.5154    2.0905 H       1  UNL1        0.0269
     53 H           0.0462    1.5122    1.2111 H       1  UNL1        0.0269
     54 H           0.1395   -1.3565    2.0651 H       1  UNL1        0.0272
     55 H           1.2806   -0.0290    2.2819 H       1  UNL1        0.0272
     56 H           2.3311   -2.9505   -0.2244 H       1  UNL1        0.0237
     57 H           1.7865   -2.8276    1.4947 H       1  UNL1        0.0237
     58 H           0.5846   -3.1103    0.2372 H       1  UNL1        0.0237
@<TRIPOS>BOND
     1     1     2    1
     2     2     3    2
     3     2     4    1
     4     5     4    1
     5     5     6    1
     6     6     7    1
     7     6     8    2
     8     5     9    1
     9     9    10    1
    10    10    11    1
    11    11    12    1
    12    12    13    1
    13    13    14    2
    14    14    15    1
    15    14    16    1
    16    16    17    2
    17    17    18    1
    18    18    19    2
    19    18    20    1
    20    20    21    1
    21    21    22    1
    22    22    23    1
    23    23    24    1
    24    23    25    1
    25    25    26    1
    26    26    27    1
    27    27    28    1
    28    28    29    1
    29    28     5    1
    30    28    11    1
    31    25    12    1
    32    23    16    1
    33    22    20    1
    34     1    30    1
    35     1    31    1
    36     1    32    1
    37     7    33    1
    38     7    34    1
    39     7    35    1
    40     9    36    1
    41     9    37    1
    42    10    38    1
    43    10    39    1
    44    11    40    1
    45    12    41    1
    46    13    42    1
    47    17    43    1
    48    20    44    1
    49    21    45    1
    50    21    46    1
    51    22    47    1
    52    24    48    1
    53    24    49    1
    54    24    50    1
    55    25    51    1
    56    26    52    1
    57    26    53    1
    58    27    54    1
    59    27    55    1
    60    29    56    1
    61    29    57    1
    62    29    58    1
