
     RDKit          3D

 58 62  0  0  0  0  0  0  0  0999 V2000
    3.2365    3.3083    0.0317 C   0  0  0  0  0  0  0  0  0  0  0  0
    3.5648    1.8517   -0.0275 C   0  0  0  0  0  0  0  0  0  0  0  0
    4.7279    1.4678   -0.3122 O   0  0  0  0  0  0  0  0  0  0  0  0
    2.6138    0.9067    0.2252 O   0  0  0  0  0  0  0  0  0  0  0  0
    2.7896   -0.4896    0.2075 C   0  0  2  0  0  0  0  0  0  0  0  0
    3.7631   -0.9962    1.1682 C   0  0  0  0  0  0  0  0  0  0  0  0
    4.4596   -0.0806    2.1073 C   0  0  0  0  0  0  0  0  0  0  0  0
    4.0102   -2.1872    1.2043 O   0  0  0  0  0  0  0  0  0  0  0  0
    3.0801   -0.9812   -1.2194 C   0  0  0  0  0  0  0  0  0  0  0  0
    1.7218   -1.2307   -1.8685 C   0  0  0  0  0  0  0  0  0  0  0  0
    0.8224   -0.5676   -0.9242 C   0  0  1  0  0  0  0  0  0  0  0  0
   -0.6212   -0.8718   -0.9150 C   0  0  2  0  0  0  0  0  0  0  0  0
   -1.2506   -0.9205   -2.2341 C   0  0  0  0  0  0  0  0  0  0  0  0
   -2.4853   -0.5250   -2.4066 C   0  0  0  0  0  0  0  0  0  0  0  0
   -3.2080   -0.5977   -4.0013 Cl  0  0  0  0  0  0  0  0  0  0  0  0
   -3.2702   -0.0164   -1.2727 C   0  0  0  0  0  0  0  0  0  0  0  0
   -4.5448    0.2682   -1.4856 C   0  0  0  0  0  0  0  0  0  0  0  0
   -5.3456    0.7782   -0.3778 C   0  0  0  0  0  0  0  0  0  0  0  0
   -6.5434    0.4260   -0.2725 O   0  0  0  0  0  0  0  0  0  0  0  0
   -4.6446    1.6975    0.5522 C   0  0  2  0  0  0  0  0  0  0  0  0
   -3.5987    2.6234   -0.0089 C   0  0  0  0  0  0  0  0  0  0  0  0
   -3.2004    1.4142    0.7198 C   0  0  2  0  0  0  0  0  0  0  0  0
   -2.6981    0.1585    0.0701 C   0  0  1  0  0  0  0  0  0  0  0  0
   -3.0894   -1.0400    0.9044 C   0  0  0  0  0  0  0  0  0  0  0  0
   -1.2060    0.2869   -0.0850 C   0  0  1  0  0  0  0  0  0  0  0  0
   -0.4439    0.4922    1.1784 C   0  0  0  0  0  0  0  0  0  0  0  0
    0.6166   -0.5006    1.4982 C   0  0  0  0  0  0  0  0  0  0  0  0
    1.3961   -1.0704    0.4001 C   0  0  2  0  0  0  0  0  0  0  0  0
    1.5230   -2.5719    0.4322 C   0  0  0  0  0  0  0  0  0  0  0  0
    3.9671    3.8777   -0.5976 H   0  0  0  0  0  0  0  0  0  0  0  0
    3.3353    3.7083    1.0600 H   0  0  0  0  0  0  0  0  0  0  0  0
    2.2130    3.4914   -0.3717 H   0  0  0  0  0  0  0  0  0  0  0  0
    3.9505    0.8871    2.2441 H   0  0  0  0  0  0  0  0  0  0  0  0
    5.5498    0.0374    1.8685 H   0  0  0  0  0  0  0  0  0  0  0  0
    4.4657   -0.5371    3.1429 H   0  0  0  0  0  0  0  0  0  0  0  0
    3.5926   -0.1926   -1.8048 H   0  0  0  0  0  0  0  0  0  0  0  0
    3.7198   -1.8647   -1.2311 H   0  0  0  0  0  0  0  0  0  0  0  0
    1.5372   -2.2869   -2.0683 H   0  0  0  0  0  0  0  0  0  0  0  0
    1.6638   -0.7069   -2.8641 H   0  0  0  0  0  0  0  0  0  0  0  0
    1.0348    0.5333   -0.9502 H   0  0  0  0  0  0  0  0  0  0  0  0
   -0.8551   -1.8270   -0.3850 H   0  0  0  0  0  0  0  0  0  0  0  0
   -0.7043   -1.2879   -3.1046 H   0  0  0  0  0  0  0  0  0  0  0  0
   -4.9937    0.1095   -2.4842 H   0  0  0  0  0  0  0  0  0  0  0  0
   -5.2049    1.9558    1.4579 H   0  0  0  0  0  0  0  0  0  0  0  0
   -3.4844    2.6371   -1.1274 H   0  0  0  0  0  0  0  0  0  0  0  0
   -3.5066    3.6041    0.4552 H   0  0  0  0  0  0  0  0  0  0  0  0
   -2.7626    1.6120    1.7416 H   0  0  0  0  0  0  0  0  0  0  0  0
   -3.1735   -1.9199    0.2400 H   0  0  0  0  0  0  0  0  0  0  0  0
   -2.4232   -1.2206    1.7540 H   0  0  0  0  0  0  0  0  0  0  0  0
   -4.1057   -0.8383    1.3080 H   0  0  0  0  0  0  0  0  0  0  0  0
   -1.0440    1.1803   -0.7275 H   0  0  0  0  0  0  0  0  0  0  0  0
   -1.1156    0.5154    2.0905 H   0  0  0  0  0  0  0  0  0  0  0  0
    0.0462    1.5122    1.2111 H   0  0  0  0  0  0  0  0  0  0  0  0
    0.1395   -1.3565    2.0651 H   0  0  0  0  0  0  0  0  0  0  0  0
    1.2806   -0.0290    2.2819 H   0  0  0  0  0  0  0  0  0  0  0  0
    2.3311   -2.9505   -0.2244 H   0  0  0  0  0  0  0  0  0  0  0  0
    1.7865   -2.8276    1.4947 H   0  0  0  0  0  0  0  0  0  0  0  0
    0.5846   -3.1103    0.2372 H   0  0  0  0  0  0  0  0  0  0  0  0
  1  2  1  0
  2  3  2  0
  2  4  1  0
  5  4  1  6
  5  6  1  0
  6  7  1  0
  6  8  2  0
  5  9  1  0
  9 10  1  0
 10 11  1  0
 11 12  1  0
 12 13  1  0
 13 14  2  0
 14 15  1  0
 14 16  1  0
 16 17  2  0
 17 18  1  0
 18 19  2  0
 18 20  1  0
 20 21  1  0
 21 22  1  0
 22 23  1  0
 23 24  1  1
 23 25  1  0
 25 26  1  0
 26 27  1  0
 27 28  1  0
 28 29  1  6
 28  5  1  0
 28 11  1  0
 25 12  1  0
 23 16  1  0
 22 20  1  0
  1 30  1  0
  1 31  1  0
  1 32  1  0
  7 33  1  0
  7 34  1  0
  7 35  1  0
  9 36  1  0
  9 37  1  0
 10 38  1  0
 10 39  1  0
 11 40  1  1
 12 41  1  1
 13 42  1  0
 17 43  1  0
 20 44  1  1
 21 45  1  0
 21 46  1  0
 22 47  1  1
 24 48  1  0
 24 49  1  0
 24 50  1  0
 25 51  1  6
 26 52  1  0
 26 53  1  0
 27 54  1  0
 27 55  1  0
 29 56  1  0
 29 57  1  0
 29 58  1  0
M  END
$$$$
