@<TRIPOS>MOLECULE
*****
 72 76 0 0 0
SMALL
GASTEIGER

@<TRIPOS>ATOM
      1 O           0.3231    2.2025    3.3756 O.2     1  UNL1       -0.2817
      2 C           0.6135    2.2024    2.1422 C.2     1  UNL1        0.2496
      3 C           1.8545    2.6560    1.5318 C.2     1  UNL1        0.2915
      4 O           2.8383    3.1234    2.1522 O.2     1  UNL1       -0.2661
      5 N           1.6832    2.4489    0.1345 N.am    1  UNL1       -0.2598
      6 C           2.6901    2.7691   -0.8542 C.3     1  UNL1        0.0452
      7 C           3.5774    1.6000   -1.0509 C.ar    1  UNL1       -0.0295
      8 C           3.3282    0.6325   -1.9927 C.ar    1  UNL1       -0.0536
      9 C           4.1489   -0.4419   -2.1662 C.ar    1  UNL1       -0.0196
     10 C           5.2958   -0.6035   -1.3785 C.ar    1  UNL1        0.1206
     11 O           6.0874   -1.7117   -1.5948 O.3     1  UNL1       -0.4897
     12 C           7.2689   -1.9297   -0.8948 C.3     1  UNL1        0.1128
     13 C           8.2843   -0.8940   -1.2445 C.3     1  UNL1        0.0818
     14 O           9.4967   -1.0358   -0.5698 O.3     1  UNL1       -0.3739
     15 C           9.4041   -0.9630    0.7952 C.3     1  UNL1        0.0760
     16 C          10.8169   -1.1346    1.3415 C.3     1  UNL1        0.1134
     17 F          11.3658   -2.3323    0.9848 F       1  UNL1       -0.2467
     18 C           5.5167    0.3765   -0.4476 C.ar    1  UNL1       -0.0196
     19 C           4.6881    1.4782   -0.2604 C.ar    1  UNL1       -0.0536
     20 C           0.4044    1.8941   -0.1341 C.ar    1  UNL1        0.0481
     21 C          -0.2643    1.5057   -1.2925 C.ar    1  UNL1       -0.0377
     22 C          -1.5566    0.9775   -1.2362 C.ar    1  UNL1       -0.0335
     23 C          -2.1884    0.8337   -0.0276 C.ar    1  UNL1        0.1063
     24 S          -3.8286    0.1776    0.1194 S.O2    1  UNL1        0.0612
     25 O          -4.4513    0.8284    1.2961 O.2     1  UNL1       -0.1528
     26 O          -4.5230    0.6235   -1.1653 O.2     1  UNL1       -0.1528
     27 N          -3.7080   -1.5039    0.1990 N.3     1  UNL1       -0.1703
     28 C          -2.9537   -1.9384    1.3403 C.3     1  UNL1        0.0210
     29 C          -4.0149   -2.3141    2.3864 C.3     1  UNL1       -0.0370
     30 C          -5.1729   -2.8231    1.5547 C.3     1  UNL1       -0.0313
     31 C          -4.8869   -2.2647    0.1997 C.3     1  UNL1        0.0659
     32 C          -6.1032   -1.6229   -0.4259 C.3     1  UNL1        0.1067
     33 O          -6.4894   -0.4422    0.2066 O.3     1  UNL1       -0.4904
     34 C          -7.5877    0.2929   -0.2137 C.ar    1  UNL1        0.1206
     35 C          -8.3696   -0.0712   -1.2639 C.ar    1  UNL1       -0.0199
     36 C          -9.4459    0.7397   -1.5990 C.ar    1  UNL1       -0.0583
     37 C          -9.7526    1.8963   -0.9111 C.ar    1  UNL1       -0.0615
     38 C          -8.9488    2.2524    0.1531 C.ar    1  UNL1       -0.0583
     39 C          -7.8832    1.4490    0.4844 C.ar    1  UNL1       -0.0199
     40 C          -1.5105    1.2238    1.1067 C.ar    1  UNL1       -0.0226
     41 C          -0.2348    1.7457    1.0558 C.ar    1  UNL1        0.0502
     42 H           2.1894    3.0674   -1.8123 H       1  UNL1        0.0518
     43 H           3.2881    3.6454   -0.5077 H       1  UNL1        0.0518
     44 H           2.4359    0.7349   -2.6245 H       1  UNL1        0.0622
     45 H           3.9246   -1.1816   -2.9133 H       1  UNL1        0.0654
     46 H           7.6840   -2.9511   -1.1440 H       1  UNL1        0.0720
     47 H           7.0007   -1.9261    0.1903 H       1  UNL1        0.0720
     48 H           8.5854   -1.1653   -2.3313 H       1  UNL1        0.0594
     49 H           7.9247    0.1241   -1.3535 H       1  UNL1        0.0594
     50 H           8.6926   -1.6361    1.2718 H       1  UNL1        0.0585
     51 H           9.1008    0.0787    1.0950 H       1  UNL1        0.0585
     52 H          11.4236   -0.3326    0.8408 H       1  UNL1        0.0638
     53 H          10.8634   -1.0263    2.4275 H       1  UNL1        0.0638
     54 H           6.3864    0.2845    0.2266 H       1  UNL1        0.0654
     55 H           4.9603    2.1956    0.5074 H       1  UNL1        0.0622
     56 H           0.2545    1.6307   -2.2272 H       1  UNL1        0.0637
     57 H          -2.0631    0.6802   -2.1437 H       1  UNL1        0.0638
     58 H          -2.3647   -2.8618    1.0699 H       1  UNL1        0.0444
     59 H          -2.2214   -1.2323    1.7250 H       1  UNL1        0.0444
     60 H          -3.5650   -3.1499    2.9626 H       1  UNL1        0.0279
     61 H          -4.2788   -1.4655    3.0238 H       1  UNL1        0.0279
     62 H          -5.1777   -3.9377    1.5928 H       1  UNL1        0.0282
     63 H          -6.1515   -2.5076    1.9671 H       1  UNL1        0.0282
     64 H          -4.6878   -3.1669   -0.4603 H       1  UNL1        0.0513
     65 H          -6.9253   -2.3586   -0.3758 H       1  UNL1        0.0713
     66 H          -5.8678   -1.4048   -1.4751 H       1  UNL1        0.0713
     67 H          -8.1291   -0.9764   -1.8017 H       1  UNL1        0.0654
     68 H         -10.0632    0.4392   -2.4393 H       1  UNL1        0.0619
     69 H         -10.6113    2.5002   -1.2147 H       1  UNL1        0.0618
     70 H          -9.1661    3.1442    0.7019 H       1  UNL1        0.0619
     71 H          -7.2467    1.7367    1.3319 H       1  UNL1        0.0654
     72 H          -2.0071    1.1156    2.0695 H       1  UNL1        0.0645
@<TRIPOS>BOND
     1     1     2    2
     2     2     3    1
     3     3     4    2
     4     3     5   am
     5     5     6    1
     6     6     7    1
     7     7     8   ar
     8     8     9   ar
     9     9    10   ar
    10    10    11    1
    11    11    12    1
    12    12    13    1
    13    13    14    1
    14    14    15    1
    15    15    16    1
    16    16    17    1
    17    10    18   ar
    18    18    19   ar
    19     5    20    1
    20    20    21   ar
    21    21    22   ar
    22    22    23   ar
    23    23    24    1
    24    24    25    2
    25    24    26    2
    26    24    27    1
    27    27    28    1
    28    28    29    1
    29    29    30    1
    30    30    31    1
    31    31    32    1
    32    32    33    1
    33    33    34    1
    34    34    35   ar
    35    35    36   ar
    36    36    37   ar
    37    37    38   ar
    38    38    39   ar
    39    23    40   ar
    40    40    41   ar
    41    41     2    1
    42    19     7   ar
    43    41    20   ar
    44    31    27    1
    45    39    34   ar
    46     6    42    1
    47     6    43    1
    48     8    44    1
    49     9    45    1
    50    12    46    1
    51    12    47    1
    52    13    48    1
    53    13    49    1
    54    15    50    1
    55    15    51    1
    56    16    52    1
    57    16    53    1
    58    18    54    1
    59    19    55    1
    60    21    56    1
    61    22    57    1
    62    28    58    1
    63    28    59    1
    64    29    60    1
    65    29    61    1
    66    30    62    1
    67    30    63    1
    68    31    64    1
    69    32    65    1
    70    32    66    1
    71    35    67    1
    72    36    68    1
    73    37    69    1
    74    38    70    1
    75    39    71    1
    76    40    72    1
