
     RDKit          3D

 59 62  0  0  0  0  0  0  0  0999 V2000
   -6.4276   -3.5148    1.1711 C   0  0  0  0  0  0  0  0  0  0  0  0
   -5.8744   -2.7893    0.0442 N   0  0  0  0  0  0  0  0  0  0  0  0
   -5.3859   -3.5389   -1.0819 C   0  0  0  0  0  0  0  0  0  0  0  0
   -5.8026   -1.3470    0.0262 C   0  0  0  0  0  0  0  0  0  0  0  0
   -6.6776   -0.5736   -0.5035 N   0  0  0  0  0  0  0  0  0  0  0  0
   -6.3530    0.8210   -0.3760 C   0  0  0  0  0  0  0  0  0  0  0  0
   -5.1661    0.8446    0.5269 C   0  0  0  0  0  0  0  0  0  0  0  0
   -4.7651   -0.5465    0.5862 N   0  0  0  0  0  0  0  0  0  0  0  0
   -3.5387   -1.0403    1.1156 C   0  0  0  0  0  0  0  0  0  0  0  0
   -2.3300   -0.5104    0.4164 C   0  0  0  0  0  0  0  0  0  0  0  0
   -1.7248    0.6497    0.8443 C   0  0  0  0  0  0  0  0  0  0  0  0
   -0.5896    1.1595    0.2008 C   0  0  0  0  0  0  0  0  0  0  0  0
   -0.0367    0.5179   -0.8849 C   0  0  0  0  0  0  0  0  0  0  0  0
    1.1425    1.0252   -1.5712 C   0  0  0  0  0  0  0  0  0  0  0  0
    1.5912    0.3710   -2.5605 O   0  0  0  0  0  0  0  0  0  0  0  0
    1.8468    2.2067   -1.2260 N   0  0  0  0  0  0  0  0  0  0  0  0
    2.9943    2.6576   -1.9295 C   0  0  0  0  0  0  0  0  0  0  0  0
    2.9504    3.5041   -3.0160 C   0  0  0  0  0  0  0  0  0  0  0  0
    4.0750    3.9260   -3.6796 C   0  0  0  0  0  0  0  0  0  0  0  0
    5.2977    3.4885   -3.2458 C   0  0  0  0  0  0  0  0  0  0  0  0
    6.7559    3.9822   -4.0375 Cl  0  0  0  0  0  0  0  0  0  0  0  0
    5.3909    2.6324   -2.1522 C   0  0  0  0  0  0  0  0  0  0  0  0
    4.2320    2.2230   -1.5011 C   0  0  0  0  0  0  0  0  0  0  0  0
    4.2885    1.3288   -0.3543 C   0  0  0  0  0  0  0  0  0  0  0  0
    3.2317    0.9589    0.2355 O   0  0  0  0  0  0  0  0  0  0  0  0
    5.4950    0.8007    0.1976 N   0  0  0  0  0  0  0  0  0  0  0  0
    5.4933   -0.0704    1.3212 C   0  0  0  0  0  0  0  0  0  0  0  0
    6.7020   -0.5325    1.7870 C   0  0  0  0  0  0  0  0  0  0  0  0
    6.7960   -1.3842    2.8755 C   0  0  0  0  0  0  0  0  0  0  0  0
    5.6517   -1.7765    3.5047 C   0  0  0  0  0  0  0  0  0  0  0  0
    5.6649   -2.8584    4.8989 Cl  0  0  0  0  0  0  0  0  0  0  0  0
    4.4453   -1.3062    3.0280 C   0  0  0  0  0  0  0  0  0  0  0  0
    4.3860   -0.4707    1.9566 N   0  0  0  0  0  0  0  0  0  0  0  0
   -0.6559   -0.6431   -1.3002 C   0  0  0  0  0  0  0  0  0  0  0  0
   -1.7741   -1.1498   -0.6703 C   0  0  0  0  0  0  0  0  0  0  0  0
   -5.8550   -4.4575    1.2938 H   0  0  0  0  0  0  0  0  0  0  0  0
   -6.4385   -2.9012    2.0901 H   0  0  0  0  0  0  0  0  0  0  0  0
   -7.4966   -3.7242    0.9023 H   0  0  0  0  0  0  0  0  0  0  0  0
   -6.0304   -4.3800   -1.3782 H   0  0  0  0  0  0  0  0  0  0  0  0
   -4.3931   -3.9820   -0.8220 H   0  0  0  0  0  0  0  0  0  0  0  0
   -5.3135   -2.8686   -1.9698 H   0  0  0  0  0  0  0  0  0  0  0  0
   -6.1516    1.2663   -1.3729 H   0  0  0  0  0  0  0  0  0  0  0  0
   -7.2469    1.3060    0.1044 H   0  0  0  0  0  0  0  0  0  0  0  0
   -4.3738    1.4438    0.0291 H   0  0  0  0  0  0  0  0  0  0  0  0
   -5.4431    1.2534    1.5141 H   0  0  0  0  0  0  0  0  0  0  0  0
   -3.4361   -0.7763    2.2096 H   0  0  0  0  0  0  0  0  0  0  0  0
   -3.4977   -2.1547    1.0984 H   0  0  0  0  0  0  0  0  0  0  0  0
   -2.1660    1.1480    1.6989 H   0  0  0  0  0  0  0  0  0  0  0  0
   -0.1646    2.0747    0.5885 H   0  0  0  0  0  0  0  0  0  0  0  0
    1.4599    2.7394   -0.4005 H   0  0  0  0  0  0  0  0  0  0  0  0
    1.9926    3.8541   -3.3650 H   0  0  0  0  0  0  0  0  0  0  0  0
    3.9731    4.5817   -4.5142 H   0  0  0  0  0  0  0  0  0  0  0  0
    6.3659    2.2994   -1.8268 H   0  0  0  0  0  0  0  0  0  0  0  0
    6.3844    1.0672   -0.2414 H   0  0  0  0  0  0  0  0  0  0  0  0
    7.6497   -0.2517    1.3229 H   0  0  0  0  0  0  0  0  0  0  0  0
    7.7600   -1.7476    3.2405 H   0  0  0  0  0  0  0  0  0  0  0  0
    3.5509   -1.6202    3.5293 H   0  0  0  0  0  0  0  0  0  0  0  0
   -0.2105   -1.1485   -2.1648 H   0  0  0  0  0  0  0  0  0  0  0  0
   -2.2478   -2.0668   -1.0132 H   0  0  0  0  0  0  0  0  0  0  0  0
  1  2  1  0
  2  3  1  0
  2  4  1  0
  4  5  2  0
  5  6  1  0
  6  7  1  0
  7  8  1  0
  8  9  1  0
  9 10  1  0
 10 11  2  0
 11 12  1  0
 12 13  2  0
 13 14  1  0
 14 15  2  0
 14 16  1  0
 16 17  1  0
 17 18  2  0
 18 19  1  0
 19 20  2  0
 20 21  1  0
 20 22  1  0
 22 23  2  0
 23 24  1  0
 24 25  2  0
 24 26  1  0
 26 27  1  0
 27 28  2  0
 28 29  1  0
 29 30  2  0
 30 31  1  0
 30 32  1  0
 32 33  2  0
 13 34  1  0
 34 35  2  0
  8  4  1  0
 35 10  1  0
 23 17  1  0
 33 27  1  0
  1 36  1  0
  1 37  1  0
  1 38  1  0
  3 39  1  0
  3 40  1  0
  3 41  1  0
  6 42  1  0
  6 43  1  0
  7 44  1  0
  7 45  1  0
  9 46  1  0
  9 47  1  0
 11 48  1  0
 12 49  1  0
 16 50  1  0
 18 51  1  0
 19 52  1  0
 22 53  1  0
 26 54  1  0
 28 55  1  0
 29 56  1  0
 32 57  1  0
 34 58  1  0
 35 59  1  0
M  END
$$$$
