@<TRIPOS>MOLECULE
*****
 59 62 0 0 0
SMALL
GASTEIGER

@<TRIPOS>ATOM
      1 C          -6.4276   -3.5148    1.1711 C.3     1  UNL1        0.0490
      2 N          -5.8744   -2.7893    0.0442 N.pl3   1  UNL1       -0.2302
      3 C          -5.3859   -3.5389   -1.0819 C.3     1  UNL1        0.0490
      4 C          -5.8026   -1.3470    0.0262 C.cat   1  UNL1        0.3692
      5 N          -6.6776   -0.5736   -0.5035 N.2     1  UNL1       -0.1140
      6 C          -6.3530    0.8210   -0.3760 C.3     1  UNL1        0.1330
      7 C          -5.1661    0.8446    0.5269 C.3     1  UNL1        0.0948
      8 N          -4.7651   -0.5465    0.5862 N.pl3   1  UNL1       -0.2176
      9 C          -3.5387   -1.0403    1.1156 C.3     1  UNL1        0.0860
     10 C          -2.3300   -0.5104    0.4164 C.ar    1  UNL1       -0.0158
     11 C          -1.7248    0.6497    0.8443 C.ar    1  UNL1       -0.0550
     12 C          -0.5896    1.1595    0.2008 C.ar    1  UNL1       -0.0493
     13 C          -0.0367    0.5179   -0.8849 C.ar    1  UNL1        0.0370
     14 C           1.1425    1.0252   -1.5712 C.2     1  UNL1        0.2483
     15 O           1.5912    0.3710   -2.5605 O.2     1  UNL1       -0.2699
     16 N           1.8468    2.2067   -1.2260 N.am    1  UNL1       -0.2808
     17 C           2.9943    2.6576   -1.9295 C.ar    1  UNL1        0.0459
     18 C           2.9504    3.5041   -3.0160 C.ar    1  UNL1       -0.0384
     19 C           4.0750    3.9260   -3.6796 C.ar    1  UNL1       -0.0416
     20 C           5.2977    3.4885   -3.2458 C.ar    1  UNL1        0.0418
     21 CL          6.7559    3.9822   -4.0375 Cl      1  UNL1       -0.0835
     22 C           5.3909    2.6324   -2.1522 C.ar    1  UNL1       -0.0295
     23 C           4.2320    2.2230   -1.5011 C.ar    1  UNL1        0.0596
     24 C           4.2885    1.3288   -0.3543 C.2     1  UNL1        0.2511
     25 O           3.2317    0.9589    0.2355 O.2     1  UNL1       -0.2697
     26 N           5.4950    0.8007    0.1976 N.am    1  UNL1       -0.2663
     27 C           5.4933   -0.0704    1.3212 C.ar    1  UNL1        0.1252
     28 C           6.7020   -0.5325    1.7870 C.ar    1  UNL1       -0.0201
     29 C           6.7960   -1.3842    2.8755 C.ar    1  UNL1       -0.0387
     30 C           5.6517   -1.7765    3.5047 C.ar    1  UNL1        0.0592
     31 CL          5.6649   -2.8584    4.8989 Cl      1  UNL1       -0.0820
     32 C           4.4453   -1.3062    3.0280 C.ar    1  UNL1        0.0480
     33 N           4.3860   -0.4707    1.9566 N.ar    1  UNL1       -0.2387
     34 C          -0.6559   -0.6431   -1.3002 C.ar    1  UNL1       -0.0493
     35 C          -1.7741   -1.1498   -0.6703 C.ar    1  UNL1       -0.0550
     36 H          -5.8550   -4.4575    1.2938 H       1  UNL1        0.0597
     37 H          -6.4385   -2.9012    2.0901 H       1  UNL1        0.0597
     38 H          -7.4966   -3.7242    0.9023 H       1  UNL1        0.0597
     39 H          -6.0304   -4.3800   -1.3782 H       1  UNL1        0.0597
     40 H          -4.3931   -3.9820   -0.8220 H       1  UNL1        0.0597
     41 H          -5.3135   -2.8686   -1.9698 H       1  UNL1        0.0597
     42 H          -6.1516    1.2663   -1.3729 H       1  UNL1        0.0723
     43 H          -7.2469    1.3060    0.1044 H       1  UNL1        0.0723
     44 H          -4.3738    1.4438    0.0291 H       1  UNL1        0.0667
     45 H          -5.4431    1.2534    1.5141 H       1  UNL1        0.0667
     46 H          -3.4361   -0.7763    2.2096 H       1  UNL1        0.0685
     47 H          -3.4977   -2.1547    1.0984 H       1  UNL1        0.0685
     48 H          -2.1660    1.1480    1.6989 H       1  UNL1        0.0621
     49 H          -0.1646    2.0747    0.5885 H       1  UNL1        0.0625
     50 H           1.4599    2.7394   -0.4005 H       1  UNL1        0.1552
     51 H           1.9926    3.8541   -3.3650 H       1  UNL1        0.0637
     52 H           3.9731    4.5817   -4.5142 H       1  UNL1        0.0633
     53 H           6.3659    2.2994   -1.8268 H       1  UNL1        0.0640
     54 H           6.3844    1.0672   -0.2414 H       1  UNL1        0.1566
     55 H           7.6497   -0.2517    1.3229 H       1  UNL1        0.0652
     56 H           7.7600   -1.7476    3.2405 H       1  UNL1        0.0634
     57 H           3.5509   -1.6202    3.5293 H       1  UNL1        0.0845
     58 H          -0.2105   -1.1485   -2.1648 H       1  UNL1        0.0625
     59 H          -2.2478   -2.0668   -1.0132 H       1  UNL1        0.0621
@<TRIPOS>BOND
     1     1     2    1
     2     2     3    1
     3     2     4    1
     4     4     5    2
     5     5     6    1
     6     6     7    1
     7     7     8    1
     8     8     9    1
     9     9    10    1
    10    10    11   ar
    11    11    12   ar
    12    12    13   ar
    13    13    14    1
    14    14    15    2
    15    14    16   am
    16    16    17    1
    17    17    18   ar
    18    18    19   ar
    19    19    20   ar
    20    20    21    1
    21    20    22   ar
    22    22    23   ar
    23    23    24    1
    24    24    25    2
    25    24    26   am
    26    26    27    1
    27    27    28   ar
    28    28    29   ar
    29    29    30   ar
    30    30    31    1
    31    30    32   ar
    32    32    33   ar
    33    13    34   ar
    34    34    35   ar
    35     8     4    1
    36    35    10   ar
    37    23    17   ar
    38    33    27   ar
    39     1    36    1
    40     1    37    1
    41     1    38    1
    42     3    39    1
    43     3    40    1
    44     3    41    1
    45     6    42    1
    46     6    43    1
    47     7    44    1
    48     7    45    1
    49     9    46    1
    50     9    47    1
    51    11    48    1
    52    12    49    1
    53    16    50    1
    54    18    51    1
    55    19    52    1
    56    22    53    1
    57    26    54    1
    58    28    55    1
    59    29    56    1
    60    32    57    1
    61    34    58    1
    62    35    59    1
