@<TRIPOS>MOLECULE
*****
 61 68 0 0 0
SMALL
GASTEIGER

@<TRIPOS>ATOM
      1 C           5.2946   -0.2296    0.0164 C.3     1  UNL1       -0.0155
      2 N           4.1767   -1.0093   -0.3999 N.3     1  UNL1       -0.3136
      3 C           3.0440   -1.0341    0.4445 C.3     1  UNL1        0.0423
      4 C           2.0450   -2.0135   -0.1375 C.3     1  UNL1        0.0107
      5 C           0.8810   -1.9832    0.8210 C.3     1  UNL1        0.1402
      6 O           0.9343   -1.0795    1.7884 O.3     1  UNL1       -0.3282
      7 C           1.2048    0.2554    1.5524 C.3     1  UNL1        0.1741
      8 C           1.5673    0.7322    2.9577 C.3     1  UNL1       -0.0136
      9 C           2.3910    0.3382    0.6083 C.3     1  UNL1        0.1214
     10 O           2.1652    0.9233   -0.5671 O.3     1  UNL1       -0.3735
     11 C           2.7720    2.0488   -0.9529 C.3     1  UNL1        0.0371
     12 N           0.0376    0.9225    1.0192 N.ar    1  UNL1       -0.3070
     13 C          -0.2795    2.2327    1.1341 C.ar    1  UNL1        0.0527
     14 C           0.3580    3.2765    1.7276 C.ar    1  UNL1       -0.0375
     15 C          -0.1869    4.5661    1.7019 C.ar    1  UNL1       -0.0598
     16 C          -1.3984    4.8005    1.0628 C.ar    1  UNL1       -0.0611
     17 C          -2.0586    3.7556    0.4552 C.ar    1  UNL1       -0.0520
     18 C          -1.4931    2.5025    0.5010 C.ar    1  UNL1        0.0081
     19 C          -1.9070    1.3141   -0.0068 C.ar    1  UNL1        0.0151
     20 C          -3.0539    0.9826   -0.7471 C.ar    1  UNL1       -0.0078
     21 C          -3.2494   -0.3136   -1.1639 C.ar    1  UNL1        0.0518
     22 C          -2.2909   -1.2777   -0.8359 C.ar    1  UNL1        0.0221
     23 C          -2.1830   -2.6144   -1.0945 C.ar    1  UNL1        0.0085
     24 C          -2.9449   -3.5458   -1.7567 C.ar    1  UNL1       -0.0520
     25 C          -2.5218   -4.8815   -1.8337 C.ar    1  UNL1       -0.0611
     26 C          -1.3470   -5.2502   -1.2458 C.ar    1  UNL1       -0.0598
     27 C          -0.5777   -4.3157   -0.5786 C.ar    1  UNL1       -0.0375
     28 C          -0.9842   -3.0024   -0.4974 C.ar    1  UNL1        0.0524
     29 N          -0.3834   -1.9568    0.0999 N.ar    1  UNL1       -0.3115
     30 C          -1.1812   -0.9047   -0.1065 C.ar    1  UNL1        0.0774
     31 C          -0.9927    0.3879    0.3059 C.ar    1  UNL1        0.0772
     32 C          -4.4965   -0.3668   -1.9049 C.2     1  UNL1        0.2453
     33 O          -5.0676   -1.3318   -2.4633 O.2     1  UNL1       -0.2702
     34 N          -5.0411    0.9488   -1.9168 N.am    1  UNL1       -0.3072
     35 C          -4.1723    1.8055   -1.1922 C.3     1  UNL1        0.0385
     36 H           5.6036    0.4858   -0.7957 H       1  UNL1        0.0388
     37 H           5.0454    0.2808    0.9659 H       1  UNL1        0.0388
     38 H           6.1790   -0.9007    0.1867 H       1  UNL1        0.0388
     39 H           3.9282   -0.7633   -1.3954 H       1  UNL1        0.1220
     40 H           3.3390   -1.4396    1.4362 H       1  UNL1        0.0489
     41 H           1.6956   -1.7653   -1.1323 H       1  UNL1        0.0325
     42 H           2.5611   -2.9932   -0.1875 H       1  UNL1        0.0325
     43 H           0.8937   -2.9983    1.3254 H       1  UNL1        0.0839
     44 H           0.7830    1.2322    3.4967 H       1  UNL1        0.0277
     45 H           1.8435   -0.1351    3.6425 H       1  UNL1        0.0277
     46 H           2.5475    1.2806    2.8855 H       1  UNL1        0.0277
     47 H           3.1528    0.9348    1.1466 H       1  UNL1        0.0660
     48 H           2.4851    2.4225   -1.9666 H       1  UNL1        0.0524
     49 H           2.4019    2.8825   -0.2751 H       1  UNL1        0.0524
     50 H           3.8721    2.1220   -0.8469 H       1  UNL1        0.0524
     51 H           1.2892    3.1148    2.2096 H       1  UNL1        0.0638
     52 H           0.3283    5.3837    2.1763 H       1  UNL1        0.0618
     53 H          -1.8532    5.7889    1.0219 H       1  UNL1        0.0618
     54 H          -2.9937    3.9329   -0.0400 H       1  UNL1        0.0624
     55 H          -3.8526   -3.2620   -2.2105 H       1  UNL1        0.0624
     56 H          -3.1722   -5.5552   -2.3698 H       1  UNL1        0.0618
     57 H          -1.0067   -6.2668   -1.2939 H       1  UNL1        0.0618
     58 H           0.3633   -4.5955   -0.1040 H       1  UNL1        0.0638
     59 H          -5.9547    1.2247   -2.3978 H       1  UNL1        0.1493
     60 H          -4.7161    2.3086   -0.3615 H       1  UNL1        0.0512
     61 H          -3.8239    2.5974   -1.9113 H       1  UNL1        0.0512
@<TRIPOS>BOND
     1     1     2    1
     2     2     3    1
     3     3     4    1
     4     4     5    1
     5     5     6    1
     6     6     7    1
     7     7     8    1
     8     7     9    1
     9     9    10    1
    10    10    11    1
    11     7    12    1
    12    12    13   ar
    13    13    14   ar
    14    14    15   ar
    15    15    16   ar
    16    16    17   ar
    17    17    18   ar
    18    18    19   ar
    19    19    20   ar
    20    20    21   ar
    21    21    22   ar
    22    22    23   ar
    23    23    24   ar
    24    24    25   ar
    25    25    26   ar
    26    26    27   ar
    27    27    28   ar
    28    28    29   ar
    29    29    30   ar
    30    30    31   ar
    31    21    32    1
    32    32    33    2
    33    32    34   am
    34    34    35    1
    35     9     3    1
    36    31    12   ar
    37    29     5    1
    38    18    13   ar
    39    31    19   ar
    40    35    20    1
    41    30    22   ar
    42    28    23   ar
    43     1    36    1
    44     1    37    1
    45     1    38    1
    46     2    39    1
    47     3    40    1
    48     4    41    1
    49     4    42    1
    50     5    43    1
    51     8    44    1
    52     8    45    1
    53     8    46    1
    54     9    47    1
    55    11    48    1
    56    11    49    1
    57    11    50    1
    58    14    51    1
    59    15    52    1
    60    16    53    1
    61    17    54    1
    62    24    55    1
    63    25    56    1
    64    26    57    1
    65    27    58    1
    66    34    59    1
    67    35    60    1
    68    35    61    1
