
     RDKit          3D

 61 68  0  0  0  0  0  0  0  0999 V2000
    5.2946   -0.2296    0.0164 C   0  0  0  0  0  0  0  0  0  0  0  0
    4.1767   -1.0093   -0.3999 N   0  0  0  0  0  0  0  0  0  0  0  0
    3.0440   -1.0341    0.4445 C   0  0  2  0  0  0  0  0  0  0  0  0
    2.0450   -2.0135   -0.1375 C   0  0  0  0  0  0  0  0  0  0  0  0
    0.8810   -1.9832    0.8210 C   0  0  1  0  0  0  0  0  0  0  0  0
    0.9343   -1.0795    1.7884 O   0  0  0  0  0  0  0  0  0  0  0  0
    1.2048    0.2554    1.5524 C   0  0  1  0  0  0  0  0  0  0  0  0
    1.5673    0.7322    2.9577 C   0  0  0  0  0  0  0  0  0  0  0  0
    2.3910    0.3382    0.6083 C   0  0  2  0  0  0  0  0  0  0  0  0
    2.1652    0.9233   -0.5671 O   0  0  0  0  0  0  0  0  0  0  0  0
    2.7720    2.0488   -0.9529 C   0  0  0  0  0  0  0  0  0  0  0  0
    0.0376    0.9225    1.0192 N   0  0  0  0  0  0  0  0  0  0  0  0
   -0.2795    2.2327    1.1341 C   0  0  0  0  0  0  0  0  0  0  0  0
    0.3580    3.2765    1.7276 C   0  0  0  0  0  0  0  0  0  0  0  0
   -0.1869    4.5661    1.7019 C   0  0  0  0  0  0  0  0  0  0  0  0
   -1.3984    4.8005    1.0628 C   0  0  0  0  0  0  0  0  0  0  0  0
   -2.0586    3.7556    0.4552 C   0  0  0  0  0  0  0  0  0  0  0  0
   -1.4931    2.5025    0.5010 C   0  0  0  0  0  0  0  0  0  0  0  0
   -1.9070    1.3141   -0.0068 C   0  0  0  0  0  0  0  0  0  0  0  0
   -3.0539    0.9826   -0.7471 C   0  0  0  0  0  0  0  0  0  0  0  0
   -3.2494   -0.3136   -1.1639 C   0  0  0  0  0  0  0  0  0  0  0  0
   -2.2909   -1.2777   -0.8359 C   0  0  0  0  0  0  0  0  0  0  0  0
   -2.1830   -2.6144   -1.0945 C   0  0  0  0  0  0  0  0  0  0  0  0
   -2.9449   -3.5458   -1.7567 C   0  0  0  0  0  0  0  0  0  0  0  0
   -2.5218   -4.8815   -1.8337 C   0  0  0  0  0  0  0  0  0  0  0  0
   -1.3470   -5.2502   -1.2458 C   0  0  0  0  0  0  0  0  0  0  0  0
   -0.5777   -4.3157   -0.5786 C   0  0  0  0  0  0  0  0  0  0  0  0
   -0.9842   -3.0024   -0.4974 C   0  0  0  0  0  0  0  0  0  0  0  0
   -0.3834   -1.9568    0.0999 N   0  0  0  0  0  0  0  0  0  0  0  0
   -1.1812   -0.9047   -0.1065 C   0  0  0  0  0  0  0  0  0  0  0  0
   -0.9927    0.3879    0.3059 C   0  0  0  0  0  0  0  0  0  0  0  0
   -4.4965   -0.3668   -1.9049 C   0  0  0  0  0  0  0  0  0  0  0  0
   -5.0676   -1.3318   -2.4633 O   0  0  0  0  0  0  0  0  0  0  0  0
   -5.0411    0.9488   -1.9168 N   0  0  0  0  0  0  0  0  0  0  0  0
   -4.1723    1.8055   -1.1922 C   0  0  0  0  0  0  0  0  0  0  0  0
    5.6036    0.4858   -0.7957 H   0  0  0  0  0  0  0  0  0  0  0  0
    5.0454    0.2808    0.9659 H   0  0  0  0  0  0  0  0  0  0  0  0
    6.1790   -0.9007    0.1867 H   0  0  0  0  0  0  0  0  0  0  0  0
    3.9282   -0.7633   -1.3954 H   0  0  0  0  0  0  0  0  0  0  0  0
    3.3390   -1.4396    1.4362 H   0  0  0  0  0  0  0  0  0  0  0  0
    1.6956   -1.7653   -1.1323 H   0  0  0  0  0  0  0  0  0  0  0  0
    2.5611   -2.9932   -0.1875 H   0  0  0  0  0  0  0  0  0  0  0  0
    0.8937   -2.9983    1.3254 H   0  0  0  0  0  0  0  0  0  0  0  0
    0.7830    1.2322    3.4967 H   0  0  0  0  0  0  0  0  0  0  0  0
    1.8435   -0.1351    3.6425 H   0  0  0  0  0  0  0  0  0  0  0  0
    2.5475    1.2806    2.8855 H   0  0  0  0  0  0  0  0  0  0  0  0
    3.1528    0.9348    1.1466 H   0  0  0  0  0  0  0  0  0  0  0  0
    2.4851    2.4225   -1.9666 H   0  0  0  0  0  0  0  0  0  0  0  0
    2.4019    2.8825   -0.2751 H   0  0  0  0  0  0  0  0  0  0  0  0
    3.8721    2.1220   -0.8469 H   0  0  0  0  0  0  0  0  0  0  0  0
    1.2892    3.1148    2.2096 H   0  0  0  0  0  0  0  0  0  0  0  0
    0.3283    5.3837    2.1763 H   0  0  0  0  0  0  0  0  0  0  0  0
   -1.8532    5.7889    1.0219 H   0  0  0  0  0  0  0  0  0  0  0  0
   -2.9937    3.9329   -0.0400 H   0  0  0  0  0  0  0  0  0  0  0  0
   -3.8526   -3.2620   -2.2105 H   0  0  0  0  0  0  0  0  0  0  0  0
   -3.1722   -5.5552   -2.3698 H   0  0  0  0  0  0  0  0  0  0  0  0
   -1.0067   -6.2668   -1.2939 H   0  0  0  0  0  0  0  0  0  0  0  0
    0.3633   -4.5955   -0.1040 H   0  0  0  0  0  0  0  0  0  0  0  0
   -5.9547    1.2247   -2.3978 H   0  0  0  0  0  0  0  0  0  0  0  0
   -4.7161    2.3086   -0.3615 H   0  0  0  0  0  0  0  0  0  0  0  0
   -3.8239    2.5974   -1.9113 H   0  0  0  0  0  0  0  0  0  0  0  0
  1  2  1  0
  2  3  1  0
  3  4  1  0
  4  5  1  0
  5  6  1  0
  6  7  1  0
  7  8  1  1
  7  9  1  0
  9 10  1  0
 10 11  1  0
  7 12  1  0
 12 13  1  0
 13 14  2  0
 14 15  1  0
 15 16  2  0
 16 17  1  0
 17 18  2  0
 18 19  1  0
 19 20  2  0
 20 21  1  0
 21 22  2  0
 22 23  1  0
 23 24  2  0
 24 25  1  0
 25 26  2  0
 26 27  1  0
 27 28  2  0
 28 29  1  0
 29 30  1  0
 30 31  2  0
 21 32  1  0
 32 33  2  0
 32 34  1  0
 34 35  1  0
  9  3  1  0
 31 12  1  0
 29  5  1  0
 18 13  1  0
 31 19  1  0
 35 20  1  0
 30 22  1  0
 28 23  1  0
  1 36  1  0
  1 37  1  0
  1 38  1  0
  2 39  1  0
  3 40  1  1
  4 41  1  0
  4 42  1  0
  5 43  1  1
  8 44  1  0
  8 45  1  0
  8 46  1  0
  9 47  1  1
 11 48  1  0
 11 49  1  0
 11 50  1  0
 14 51  1  0
 15 52  1  0
 16 53  1  0
 17 54  1  0
 24 55  1  0
 25 56  1  0
 26 57  1  0
 27 58  1  0
 34 59  1  0
 35 60  1  0
 35 61  1  0
M  END
$$$$
