@<TRIPOS>MOLECULE
*****
 56 59 0 0 0
SMALL
GASTEIGER

@<TRIPOS>ATOM
      1 O           0.8365   -1.2992   -2.7632 O.2     1  UNL1       -0.2699
      2 C           0.6048   -0.1123   -2.3746 C.2     1  UNL1        0.2483
      3 N           1.6500    0.8184   -2.6141 N.am    1  UNL1       -0.2808
      4 C           2.8755    0.4610   -3.2439 C.ar    1  UNL1        0.0459
      5 C           3.0406    0.5297   -4.6219 C.ar    1  UNL1       -0.0384
      6 C           4.2453    0.1739   -5.1926 C.ar    1  UNL1       -0.0416
      7 C           5.2831   -0.2493   -4.3916 C.ar    1  UNL1        0.0418
      8 CL          6.8037   -0.6966   -5.1293 Cl      1  UNL1       -0.0835
      9 C           5.1037   -0.3121   -3.0251 C.ar    1  UNL1       -0.0295
     10 C           3.9026    0.0398   -2.4254 C.ar    1  UNL1        0.0596
     11 C           3.7033   -0.0230   -0.9824 C.2     1  UNL1        0.2511
     12 O           2.5968    0.3069   -0.4959 O.2     1  UNL1       -0.2697
     13 N           4.6972   -0.4416   -0.0623 N.am    1  UNL1       -0.2663
     14 C           4.4475   -0.4852    1.3563 C.ar    1  UNL1        0.1252
     15 C           5.4471   -0.8992    2.2083 C.ar    1  UNL1       -0.0201
     16 C           5.2678   -0.9631    3.5898 C.ar    1  UNL1       -0.0387
     17 C           4.0380   -0.5948    4.1067 C.ar    1  UNL1        0.0592
     18 CL          3.7204   -0.6440    5.8414 Cl      1  UNL1       -0.0820
     19 C           3.0535   -0.1839    3.2322 C.ar    1  UNL1        0.0480
     20 N           3.2750   -0.1373    1.8851 N.ar    1  UNL1       -0.2387
     21 C          -0.6559    0.1955   -1.7414 C.ar    1  UNL1        0.0370
     22 C          -0.9503    1.4607   -1.3075 C.ar    1  UNL1       -0.0493
     23 C          -2.1720    1.7161   -0.7044 C.ar    1  UNL1       -0.0566
     24 C          -3.1149    0.7285   -0.5230 C.ar    1  UNL1       -0.0333
     25 C          -4.4198    1.0372    0.1188 C.3     1  UNL1        0.0241
     26 N          -4.3469    0.9029    1.5305 N.3     1  UNL1       -0.2958
     27 C          -5.5908    1.1799    2.2090 C.3     1  UNL1        0.0118
     28 C          -6.3633   -0.0831    2.5190 C.3     1  UNL1        0.0087
     29 N          -5.5514   -1.1004    3.1584 N.3     1  UNL1       -0.3136
     30 C          -4.4893   -1.4452    2.2273 C.3     1  UNL1        0.0087
     31 C          -3.6409   -0.2087    2.0504 C.3     1  UNL1        0.0118
     32 C          -2.8153   -0.5595   -0.9648 C.ar    1  UNL1       -0.0566
     33 C          -1.5884   -0.7958   -1.5655 C.ar    1  UNL1       -0.0493
     34 H           1.4931    1.8008   -2.3079 H       1  UNL1        0.1552
     35 H           2.1879    0.8709   -5.2082 H       1  UNL1        0.0637
     36 H           4.3886    0.2207   -6.2471 H       1  UNL1        0.0633
     37 H           5.9319   -0.6466   -2.4214 H       1  UNL1        0.0640
     38 H           5.6172   -0.7201   -0.4192 H       1  UNL1        0.1566
     39 H           6.4085   -1.1857    1.7886 H       1  UNL1        0.0652
     40 H           6.0617   -1.2906    4.2527 H       1  UNL1        0.0634
     41 H           2.1069    0.0964    3.6666 H       1  UNL1        0.0845
     42 H          -0.2494    2.3016   -1.4167 H       1  UNL1        0.0625
     43 H          -2.4136    2.7086   -0.3593 H       1  UNL1        0.0621
     44 H          -4.6555    2.1193   -0.1028 H       1  UNL1        0.0476
     45 H          -5.2527    0.4689   -0.3480 H       1  UNL1        0.0476
     46 H          -5.3533    1.7534    3.1275 H       1  UNL1        0.0439
     47 H          -6.2172    1.7896    1.5335 H       1  UNL1        0.0439
     48 H          -6.7450   -0.5024    1.5680 H       1  UNL1        0.0437
     49 H          -7.1800    0.1974    3.2248 H       1  UNL1        0.0437
     50 H          -5.1828   -0.7684    4.0743 H       1  UNL1        0.1220
     51 H          -4.9362   -1.8022    1.2997 H       1  UNL1        0.0437
     52 H          -3.8670   -2.2133    2.7132 H       1  UNL1        0.0437
     53 H          -2.7547   -0.4432    1.4657 H       1  UNL1        0.0439
     54 H          -3.3120    0.0707    3.0941 H       1  UNL1        0.0439
     55 H          -3.5652   -1.3215   -0.8149 H       1  UNL1        0.0621
     56 H          -1.4042   -1.8204   -1.8929 H       1  UNL1        0.0625
@<TRIPOS>BOND
     1     1     2    2
     2     2     3   am
     3     3     4    1
     4     4     5   ar
     5     5     6   ar
     6     6     7   ar
     7     7     8    1
     8     7     9   ar
     9     9    10   ar
    10    10    11    1
    11    11    12    2
    12    11    13   am
    13    13    14    1
    14    14    15   ar
    15    15    16   ar
    16    16    17   ar
    17    17    18    1
    18    17    19   ar
    19    19    20   ar
    20     2    21    1
    21    21    22   ar
    22    22    23   ar
    23    23    24   ar
    24    24    25    1
    25    25    26    1
    26    26    27    1
    27    27    28    1
    28    28    29    1
    29    29    30    1
    30    30    31    1
    31    24    32   ar
    32    32    33   ar
    33    10     4   ar
    34    20    14   ar
    35    33    21   ar
    36    31    26    1
    37     3    34    1
    38     5    35    1
    39     6    36    1
    40     9    37    1
    41    13    38    1
    42    15    39    1
    43    16    40    1
    44    19    41    1
    45    22    42    1
    46    23    43    1
    47    25    44    1
    48    25    45    1
    49    27    46    1
    50    27    47    1
    51    28    48    1
    52    28    49    1
    53    29    50    1
    54    30    51    1
    55    30    52    1
    56    31    53    1
    57    31    54    1
    58    32    55    1
    59    33    56    1
