
     RDKit          3D

 56 59  0  0  0  0  0  0  0  0999 V2000
    0.8365   -1.2992   -2.7632 O   0  0  0  0  0  0  0  0  0  0  0  0
    0.6048   -0.1123   -2.3746 C   0  0  0  0  0  0  0  0  0  0  0  0
    1.6500    0.8184   -2.6141 N   0  0  0  0  0  0  0  0  0  0  0  0
    2.8755    0.4610   -3.2439 C   0  0  0  0  0  0  0  0  0  0  0  0
    3.0406    0.5297   -4.6219 C   0  0  0  0  0  0  0  0  0  0  0  0
    4.2453    0.1739   -5.1926 C   0  0  0  0  0  0  0  0  0  0  0  0
    5.2831   -0.2493   -4.3916 C   0  0  0  0  0  0  0  0  0  0  0  0
    6.8037   -0.6966   -5.1293 Cl  0  0  0  0  0  0  0  0  0  0  0  0
    5.1037   -0.3121   -3.0251 C   0  0  0  0  0  0  0  0  0  0  0  0
    3.9026    0.0398   -2.4254 C   0  0  0  0  0  0  0  0  0  0  0  0
    3.7033   -0.0230   -0.9824 C   0  0  0  0  0  0  0  0  0  0  0  0
    2.5968    0.3069   -0.4959 O   0  0  0  0  0  0  0  0  0  0  0  0
    4.6972   -0.4416   -0.0623 N   0  0  0  0  0  0  0  0  0  0  0  0
    4.4475   -0.4852    1.3563 C   0  0  0  0  0  0  0  0  0  0  0  0
    5.4471   -0.8992    2.2083 C   0  0  0  0  0  0  0  0  0  0  0  0
    5.2678   -0.9631    3.5898 C   0  0  0  0  0  0  0  0  0  0  0  0
    4.0380   -0.5948    4.1067 C   0  0  0  0  0  0  0  0  0  0  0  0
    3.7204   -0.6440    5.8414 Cl  0  0  0  0  0  0  0  0  0  0  0  0
    3.0535   -0.1839    3.2322 C   0  0  0  0  0  0  0  0  0  0  0  0
    3.2750   -0.1373    1.8851 N   0  0  0  0  0  0  0  0  0  0  0  0
   -0.6559    0.1955   -1.7414 C   0  0  0  0  0  0  0  0  0  0  0  0
   -0.9503    1.4607   -1.3075 C   0  0  0  0  0  0  0  0  0  0  0  0
   -2.1720    1.7161   -0.7044 C   0  0  0  0  0  0  0  0  0  0  0  0
   -3.1149    0.7285   -0.5230 C   0  0  0  0  0  0  0  0  0  0  0  0
   -4.4198    1.0372    0.1188 C   0  0  0  0  0  0  0  0  0  0  0  0
   -4.3469    0.9029    1.5305 N   0  0  0  0  0  0  0  0  0  0  0  0
   -5.5908    1.1799    2.2090 C   0  0  0  0  0  0  0  0  0  0  0  0
   -6.3633   -0.0831    2.5190 C   0  0  0  0  0  0  0  0  0  0  0  0
   -5.5514   -1.1004    3.1584 N   0  0  0  0  0  0  0  0  0  0  0  0
   -4.4893   -1.4452    2.2273 C   0  0  0  0  0  0  0  0  0  0  0  0
   -3.6409   -0.2087    2.0504 C   0  0  0  0  0  0  0  0  0  0  0  0
   -2.8153   -0.5595   -0.9648 C   0  0  0  0  0  0  0  0  0  0  0  0
   -1.5884   -0.7958   -1.5655 C   0  0  0  0  0  0  0  0  0  0  0  0
    1.4931    1.8008   -2.3079 H   0  0  0  0  0  0  0  0  0  0  0  0
    2.1879    0.8709   -5.2082 H   0  0  0  0  0  0  0  0  0  0  0  0
    4.3886    0.2207   -6.2471 H   0  0  0  0  0  0  0  0  0  0  0  0
    5.9319   -0.6466   -2.4214 H   0  0  0  0  0  0  0  0  0  0  0  0
    5.6172   -0.7201   -0.4192 H   0  0  0  0  0  0  0  0  0  0  0  0
    6.4085   -1.1857    1.7886 H   0  0  0  0  0  0  0  0  0  0  0  0
    6.0617   -1.2906    4.2527 H   0  0  0  0  0  0  0  0  0  0  0  0
    2.1069    0.0964    3.6666 H   0  0  0  0  0  0  0  0  0  0  0  0
   -0.2494    2.3016   -1.4167 H   0  0  0  0  0  0  0  0  0  0  0  0
   -2.4136    2.7086   -0.3593 H   0  0  0  0  0  0  0  0  0  0  0  0
   -4.6555    2.1193   -0.1028 H   0  0  0  0  0  0  0  0  0  0  0  0
   -5.2527    0.4689   -0.3480 H   0  0  0  0  0  0  0  0  0  0  0  0
   -5.3533    1.7534    3.1275 H   0  0  0  0  0  0  0  0  0  0  0  0
   -6.2172    1.7896    1.5335 H   0  0  0  0  0  0  0  0  0  0  0  0
   -6.7450   -0.5024    1.5680 H   0  0  0  0  0  0  0  0  0  0  0  0
   -7.1800    0.1974    3.2248 H   0  0  0  0  0  0  0  0  0  0  0  0
   -5.1828   -0.7684    4.0743 H   0  0  0  0  0  0  0  0  0  0  0  0
   -4.9362   -1.8022    1.2997 H   0  0  0  0  0  0  0  0  0  0  0  0
   -3.8670   -2.2133    2.7132 H   0  0  0  0  0  0  0  0  0  0  0  0
   -2.7547   -0.4432    1.4657 H   0  0  0  0  0  0  0  0  0  0  0  0
   -3.3120    0.0707    3.0941 H   0  0  0  0  0  0  0  0  0  0  0  0
   -3.5652   -1.3215   -0.8149 H   0  0  0  0  0  0  0  0  0  0  0  0
   -1.4042   -1.8204   -1.8929 H   0  0  0  0  0  0  0  0  0  0  0  0
  1  2  2  0
  2  3  1  0
  3  4  1  0
  4  5  2  0
  5  6  1  0
  6  7  2  0
  7  8  1  0
  7  9  1  0
  9 10  2  0
 10 11  1  0
 11 12  2  0
 11 13  1  0
 13 14  1  0
 14 15  2  0
 15 16  1  0
 16 17  2  0
 17 18  1  0
 17 19  1  0
 19 20  2  0
  2 21  1  0
 21 22  2  0
 22 23  1  0
 23 24  2  0
 24 25  1  0
 25 26  1  0
 26 27  1  0
 27 28  1  0
 28 29  1  0
 29 30  1  0
 30 31  1  0
 24 32  1  0
 32 33  2  0
 10  4  1  0
 20 14  1  0
 33 21  1  0
 31 26  1  0
  3 34  1  0
  5 35  1  0
  6 36  1  0
  9 37  1  0
 13 38  1  0
 15 39  1  0
 16 40  1  0
 19 41  1  0
 22 42  1  0
 23 43  1  0
 25 44  1  0
 25 45  1  0
 27 46  1  0
 27 47  1  0
 28 48  1  0
 28 49  1  0
 29 50  1  0
 30 51  1  0
 30 52  1  0
 31 53  1  0
 31 54  1  0
 32 55  1  0
 33 56  1  0
M  END
$$$$
