
     RDKit          3D

 66 67  0  0  0  0  0  0  0  0999 V2000
   -5.8554    0.1837    0.4917 C   0  0  0  0  0  0  0  0  0  0  0  0
   -6.1475   -0.2930   -0.8903 C   0  0  0  0  0  0  0  0  0  0  0  0
   -5.0035   -1.1358   -1.4591 C   0  0  2  0  0  0  0  0  0  0  0  0
   -4.7582   -2.3405   -0.6108 C   0  0  0  0  0  0  0  0  0  0  0  0
   -3.8086   -0.3204   -1.7186 C   0  0  0  0  0  0  0  0  0  0  0  0
   -3.3213   -0.2316   -2.8978 O   0  0  0  0  0  0  0  0  0  0  0  0
   -3.1307    0.3968   -0.7445 O   0  0  0  0  0  0  0  0  0  0  0  0
   -1.9832    1.1621   -1.0710 C   0  0  1  0  0  0  0  0  0  0  0  0
   -2.3066    2.5882   -0.6362 C   0  0  0  0  0  0  0  0  0  0  0  0
   -2.7806    2.5480    0.7872 C   0  0  2  0  0  0  0  0  0  0  0  0
   -2.4653    3.7191    1.4880 O   0  0  0  0  0  0  0  0  0  0  0  0
   -2.3582    1.3429    1.5406 C   0  0  0  0  0  0  0  0  0  0  0  0
   -1.4569    0.5068    1.1372 C   0  0  0  0  0  0  0  0  0  0  0  0
   -1.0557   -0.6627    1.8793 C   0  0  0  0  0  0  0  0  0  0  0  0
   -0.6283   -1.7618    1.2352 C   0  0  0  0  0  0  0  0  0  0  0  0
   -0.5882   -1.7255   -0.2469 C   0  0  2  0  0  0  0  0  0  0  0  0
    0.3637   -2.7716   -0.8021 C   0  0  0  0  0  0  0  0  0  0  0  0
   -0.0030   -0.3689   -0.6621 C   0  0  2  0  0  0  0  0  0  0  0  0
    1.3774   -0.3409   -0.0742 C   0  0  0  0  0  0  0  0  0  0  0  0
    2.1818    0.8807   -0.3439 C   0  0  0  0  0  0  0  0  0  0  0  0
    3.5585    0.7321    0.3077 C   0  0  1  0  0  0  0  0  0  0  0  0
    3.4865    0.5625    1.6715 O   0  0  0  0  0  0  0  0  0  0  0  0
    4.4307   -0.2609   -0.3832 C   0  0  0  0  0  0  0  0  0  0  0  0
    5.7634   -0.3480    0.3263 C   0  0  1  0  0  0  0  0  0  0  0  0
    6.5550   -1.2985   -0.3590 O   0  0  0  0  0  0  0  0  0  0  0  0
    6.4945    0.9775    0.2926 C   0  0  0  0  0  0  0  0  0  0  0  0
    7.8091    0.8727    0.9943 C   0  0  0  0  0  0  0  0  0  0  0  0
    8.7588    0.3286    0.3776 O   0  0  0  0  0  0  0  0  0  0  0  0
    7.9792    1.3578    2.2816 O   0  0  0  0  0  0  0  0  0  0  0  0
   -0.8046    0.7684   -0.1662 C   0  0  1  0  0  0  0  0  0  0  0  0
   -6.6023   -0.2212    1.2136 H   0  0  0  0  0  0  0  0  0  0  0  0
   -5.9727    1.2860    0.5316 H   0  0  0  0  0  0  0  0  0  0  0  0
   -4.8152   -0.0201    0.8195 H   0  0  0  0  0  0  0  0  0  0  0  0
   -7.0750   -0.9068   -0.8660 H   0  0  0  0  0  0  0  0  0  0  0  0
   -6.3739    0.5626   -1.5461 H   0  0  0  0  0  0  0  0  0  0  0  0
   -5.3904   -1.5035   -2.4409 H   0  0  0  0  0  0  0  0  0  0  0  0
   -4.7985   -2.1133    0.4730 H   0  0  0  0  0  0  0  0  0  0  0  0
   -3.7923   -2.7933   -0.9217 H   0  0  0  0  0  0  0  0  0  0  0  0
   -5.5254   -3.1232   -0.7888 H   0  0  0  0  0  0  0  0  0  0  0  0
   -1.7175    1.1111   -2.1363 H   0  0  0  0  0  0  0  0  0  0  0  0
   -3.0569    2.9865   -1.3379 H   0  0  0  0  0  0  0  0  0  0  0  0
   -1.3539    3.1608   -0.6860 H   0  0  0  0  0  0  0  0  0  0  0  0
   -3.9074    2.5044    0.7548 H   0  0  0  0  0  0  0  0  0  0  0  0
   -2.2361    4.4199    0.8303 H   0  0  0  0  0  0  0  0  0  0  0  0
   -2.8566    1.1676    2.5076 H   0  0  0  0  0  0  0  0  0  0  0  0
   -1.1108   -0.6409    2.9517 H   0  0  0  0  0  0  0  0  0  0  0  0
   -0.3255   -2.6388    1.7879 H   0  0  0  0  0  0  0  0  0  0  0  0
   -1.5854   -1.8772   -0.6996 H   0  0  0  0  0  0  0  0  0  0  0  0
    0.9383   -2.3909   -1.6718 H   0  0  0  0  0  0  0  0  0  0  0  0
   -0.2112   -3.6549   -1.2026 H   0  0  0  0  0  0  0  0  0  0  0  0
    1.1046   -3.1116   -0.0605 H   0  0  0  0  0  0  0  0  0  0  0  0
    0.0444   -0.3020   -1.7706 H   0  0  0  0  0  0  0  0  0  0  0  0
    1.2313   -0.3943    1.0482 H   0  0  0  0  0  0  0  0  0  0  0  0
    1.9496   -1.2701   -0.2991 H   0  0  0  0  0  0  0  0  0  0  0  0
    1.7703    1.7955    0.1272 H   0  0  0  0  0  0  0  0  0  0  0  0
    2.3943    1.0325   -1.4295 H   0  0  0  0  0  0  0  0  0  0  0  0
    4.0336    1.7447    0.1346 H   0  0  0  0  0  0  0  0  0  0  0  0
    3.2348   -0.3789    1.8597 H   0  0  0  0  0  0  0  0  0  0  0  0
    3.9676   -1.2667   -0.5021 H   0  0  0  0  0  0  0  0  0  0  0  0
    4.6923    0.0790   -1.4302 H   0  0  0  0  0  0  0  0  0  0  0  0
    5.6697   -0.6364    1.3849 H   0  0  0  0  0  0  0  0  0  0  0  0
    6.1913   -1.4691   -1.2555 H   0  0  0  0  0  0  0  0  0  0  0  0
    5.9345    1.7751    0.8108 H   0  0  0  0  0  0  0  0  0  0  0  0
    6.7048    1.3036   -0.7346 H   0  0  0  0  0  0  0  0  0  0  0  0
    8.7059    0.9795    2.8418 H   0  0  0  0  0  0  0  0  0  0  0  0
   -0.1630    1.6535   -0.0423 H   0  0  0  0  0  0  0  0  0  0  0  0
  1  2  1  0
  2  3  1  0
  3  4  1  0
  3  5  1  0
  5  6  2  0
  5  7  1  0
  7  8  1  0
  8  9  1  0
  9 10  1  0
 10 11  1  0
 10 12  1  0
 12 13  2  0
 13 14  1  0
 14 15  2  0
 15 16  1  0
 16 17  1  0
 16 18  1  0
 18 19  1  0
 19 20  1  0
 20 21  1  0
 21 22  1  0
 21 23  1  0
 23 24  1  0
 24 25  1  0
 24 26  1  0
 26 27  1  0
 27 28  2  0
 27 29  1  0
 18 30  1  0
 30  8  1  0
 30 13  1  0
  1 31  1  0
  1 32  1  0
  1 33  1  0
  2 34  1  0
  2 35  1  0
  3 36  1  6
  4 37  1  0
  4 38  1  0
  4 39  1  0
  8 40  1  6
  9 41  1  0
  9 42  1  0
 10 43  1  6
 11 44  1  0
 12 45  1  0
 14 46  1  0
 15 47  1  0
 16 48  1  6
 17 49  1  0
 17 50  1  0
 17 51  1  0
 18 52  1  6
 19 53  1  0
 19 54  1  0
 20 55  1  0
 20 56  1  0
 21 57  1  1
 22 58  1  0
 23 59  1  0
 23 60  1  0
 24 61  1  1
 25 62  1  0
 26 63  1  0
 26 64  1  0
 29 65  1  0
 30 66  1  1
M  END
$$$$
