@<TRIPOS>MOLECULE
*****
 66 67 0 0 0
SMALL
GASTEIGER

@<TRIPOS>ATOM
      1 C          -5.8554    0.1837    0.4917 C.3     1  UNL1       -0.0645
      2 C          -6.1475   -0.2930   -0.8903 C.3     1  UNL1       -0.0432
      3 C          -5.0035   -1.1358   -1.4591 C.3     1  UNL1        0.0534
      4 C          -4.7582   -2.3405   -0.6108 C.3     1  UNL1       -0.0523
      5 C          -3.8086   -0.3204   -1.7186 C.2     1  UNL1        0.3102
      6 O          -3.3213   -0.2316   -2.8978 O.2     1  UNL1       -0.2505
      7 O          -3.1307    0.3968   -0.7445 O.3     1  UNL1       -0.4604
      8 C          -1.9832    1.1621   -1.0710 C.3     1  UNL1        0.1127
      9 C          -2.3066    2.5882   -0.6362 C.3     1  UNL1        0.0146
     10 C          -2.7806    2.5480    0.7872 C.3     1  UNL1        0.0773
     11 O          -2.4653    3.7191    1.4880 O.3     1  UNL1       -0.3876
     12 C          -2.3582    1.3429    1.5406 C.2     1  UNL1       -0.0522
     13 C          -1.4569    0.5068    1.1372 C.2     1  UNL1       -0.0423
     14 C          -1.0557   -0.6627    1.8793 C.2     1  UNL1       -0.0621
     15 C          -0.6283   -1.7618    1.2352 C.2     1  UNL1       -0.0806
     16 C          -0.5882   -1.7255   -0.2469 C.3     1  UNL1       -0.0219
     17 C           0.3637   -2.7716   -0.8021 C.3     1  UNL1       -0.0587
     18 C          -0.0030   -0.3689   -0.6621 C.3     1  UNL1       -0.0247
     19 C           1.3774   -0.3409   -0.0742 C.3     1  UNL1       -0.0467
     20 C           2.1818    0.8807   -0.3439 C.3     1  UNL1       -0.0265
     21 C           3.5585    0.7321    0.3077 C.3     1  UNL1        0.0576
     22 O           3.4865    0.5625    1.6715 O.3     1  UNL1       -0.3917
     23 C           4.4307   -0.2609   -0.3832 C.3     1  UNL1       -0.0002
     24 C           5.7634   -0.3480    0.3263 C.3     1  UNL1        0.0676
     25 O           6.5550   -1.2985   -0.3590 O.3     1  UNL1       -0.3912
     26 C           6.4945    0.9775    0.2926 C.3     1  UNL1        0.0708
     27 C           7.8091    0.8727    0.9943 C.2     1  UNL1        0.3072
     28 O           8.7588    0.3286    0.3776 O.2     1  UNL1       -0.2509
     29 O           7.9792    1.3578    2.2816 O.3     1  UNL1       -0.4806
     30 C          -0.8046    0.7684   -0.1662 C.3     1  UNL1        0.0245
     31 H          -6.6023   -0.2212    1.2136 H       1  UNL1        0.0230
     32 H          -5.9727    1.2860    0.5316 H       1  UNL1        0.0230
     33 H          -4.8152   -0.0201    0.8195 H       1  UNL1        0.0230
     34 H          -7.0750   -0.9068   -0.8660 H       1  UNL1        0.0270
     35 H          -6.3739    0.5626   -1.5461 H       1  UNL1        0.0270
     36 H          -5.3904   -1.5035   -2.4409 H       1  UNL1        0.0410
     37 H          -4.7985   -2.1133    0.4730 H       1  UNL1        0.0238
     38 H          -3.7923   -2.7933   -0.9217 H       1  UNL1        0.0238
     39 H          -5.5254   -3.1232   -0.7888 H       1  UNL1        0.0238
     40 H          -1.7175    1.1111   -2.1363 H       1  UNL1        0.0741
     41 H          -3.0569    2.9865   -1.3379 H       1  UNL1        0.0329
     42 H          -1.3539    3.1608   -0.6860 H       1  UNL1        0.0329
     43 H          -3.9074    2.5044    0.7548 H       1  UNL1        0.0639
     44 H          -2.2361    4.4199    0.8303 H       1  UNL1        0.2102
     45 H          -2.8566    1.1676    2.5076 H       1  UNL1        0.0600
     46 H          -1.1108   -0.6409    2.9517 H       1  UNL1        0.0617
     47 H          -0.3255   -2.6388    1.7879 H       1  UNL1        0.0575
     48 H          -1.5854   -1.8772   -0.6996 H       1  UNL1        0.0343
     49 H           0.9383   -2.3909   -1.6718 H       1  UNL1        0.0235
     50 H          -0.2112   -3.6549   -1.2026 H       1  UNL1        0.0235
     51 H           1.1046   -3.1116   -0.0605 H       1  UNL1        0.0235
     52 H           0.0444   -0.3020   -1.7706 H       1  UNL1        0.0313
     53 H           1.2313   -0.3943    1.0482 H       1  UNL1        0.0269
     54 H           1.9496   -1.2701   -0.2991 H       1  UNL1        0.0269
     55 H           1.7703    1.7955    0.1272 H       1  UNL1        0.0290
     56 H           2.3943    1.0325   -1.4295 H       1  UNL1        0.0290
     57 H           4.0336    1.7447    0.1346 H       1  UNL1        0.0594
     58 H           3.2348   -0.3789    1.8597 H       1  UNL1        0.2098
     59 H           3.9676   -1.2667   -0.5021 H       1  UNL1        0.0315
     60 H           4.6923    0.0790   -1.4302 H       1  UNL1        0.0315
     61 H           5.6697   -0.6364    1.3849 H       1  UNL1        0.0599
     62 H           6.1913   -1.4691   -1.2555 H       1  UNL1        0.2098
     63 H           5.9345    1.7751    0.8108 H       1  UNL1        0.0403
     64 H           6.7048    1.3036   -0.7346 H       1  UNL1        0.0403
     65 H           8.7059    0.9795    2.8418 H       1  UNL1        0.2951
     66 H          -0.1630    1.6535   -0.0423 H       1  UNL1        0.0388
@<TRIPOS>BOND
     1     1     2    1
     2     2     3    1
     3     3     4    1
     4     3     5    1
     5     5     6    2
     6     5     7    1
     7     7     8    1
     8     8     9    1
     9     9    10    1
    10    10    11    1
    11    10    12    1
    12    12    13    2
    13    13    14    1
    14    14    15    2
    15    15    16    1
    16    16    17    1
    17    16    18    1
    18    18    19    1
    19    19    20    1
    20    20    21    1
    21    21    22    1
    22    21    23    1
    23    23    24    1
    24    24    25    1
    25    24    26    1
    26    26    27    1
    27    27    28    2
    28    27    29    1
    29    18    30    1
    30    30     8    1
    31    30    13    1
    32     1    31    1
    33     1    32    1
    34     1    33    1
    35     2    34    1
    36     2    35    1
    37     3    36    1
    38     4    37    1
    39     4    38    1
    40     4    39    1
    41     8    40    1
    42     9    41    1
    43     9    42    1
    44    10    43    1
    45    11    44    1
    46    12    45    1
    47    14    46    1
    48    15    47    1
    49    16    48    1
    50    17    49    1
    51    17    50    1
    52    17    51    1
    53    18    52    1
    54    19    53    1
    55    19    54    1
    56    20    55    1
    57    20    56    1
    58    21    57    1
    59    22    58    1
    60    23    59    1
    61    23    60    1
    62    24    61    1
    63    25    62    1
    64    26    63    1
    65    26    64    1
    66    29    65    1
    67    30    66    1
