
     RDKit          3D

 55 59  0  0  0  0  0  0  0  0999 V2000
   -6.0833   -3.2000   -0.8833 O   0  0  0  0  0  0  0  0  0  0  0  0
   -6.9226   -2.1821   -0.4453 C   0  0  0  0  0  0  0  0  0  0  0  0
   -6.0492   -1.0214   -0.0295 C   0  0  0  0  0  0  0  0  0  0  0  0
   -5.2377   -0.5744   -1.2333 C   0  0  0  0  0  0  0  0  0  0  0  0
   -3.8684   -0.0734   -0.8524 C   0  0  0  0  0  0  0  0  0  0  0  0
   -3.7802    0.4428    0.4853 N   0  0  0  0  0  0  0  0  0  0  0  0
   -3.0436    1.6643    0.6946 C   0  0  0  0  0  0  0  0  0  0  0  0
   -3.5943    2.7552    1.2521 N   0  0  0  0  0  0  0  0  0  0  0  0
   -2.9050    3.9009    1.4585 C   0  0  0  0  0  0  0  0  0  0  0  0
   -1.5864    3.9527    1.0831 C   0  0  0  0  0  0  0  0  0  0  0  0
   -1.0226    2.8665    0.5232 N   0  0  0  0  0  0  0  0  0  0  0  0
   -1.6990    1.7321    0.3169 C   0  0  0  0  0  0  0  0  0  0  0  0
   -1.1325    0.6133   -0.2565 O   0  0  0  0  0  0  0  0  0  0  0  0
    0.2057    0.6534   -0.6338 C   0  0  0  0  0  0  0  0  0  0  0  0
    0.5837    1.1095   -1.8825 C   0  0  0  0  0  0  0  0  0  0  0  0
    1.9045    1.1551   -2.2746 C   0  0  0  0  0  0  0  0  0  0  0  0
    2.9188    0.7480   -1.4417 C   0  0  0  0  0  0  0  0  0  0  0  0
    4.2867    0.7920   -1.8171 N   0  0  0  0  0  0  0  0  0  0  0  0
    5.2766    0.2565   -0.9508 C   0  0  0  0  0  0  0  0  0  0  0  0
    5.8931    0.8525    0.0846 N   0  0  0  0  0  0  0  0  0  0  0  0
    6.7798    0.0356    0.6735 C   0  0  0  0  0  0  0  0  0  0  0  0
    7.6529    0.1371    1.7424 C   0  0  0  0  0  0  0  0  0  0  0  0
    8.4500   -0.9291    2.0955 C   0  0  0  0  0  0  0  0  0  0  0  0
    8.3534   -2.1054    1.3506 C   0  0  0  0  0  0  0  0  0  0  0  0
    7.4970   -2.2443    0.2811 C   0  0  0  0  0  0  0  0  0  0  0  0
    6.7087   -1.1397   -0.0405 C   0  0  0  0  0  0  0  0  0  0  0  0
    5.8011   -1.0033   -1.0199 N   0  0  0  0  0  0  0  0  0  0  0  0
    2.5325    0.2869   -0.1781 C   0  0  0  0  0  0  0  0  0  0  0  0
    1.2136    0.2409    0.2149 C   0  0  0  0  0  0  0  0  0  0  0  0
   -4.4086   -0.2430    1.5848 C   0  0  0  0  0  0  0  0  0  0  0  0
   -5.1233   -1.4574    1.0830 C   0  0  0  0  0  0  0  0  0  0  0  0
   -6.5788   -4.0349   -1.0708 H   0  0  0  0  0  0  0  0  0  0  0  0
   -7.5210   -1.8323   -1.3281 H   0  0  0  0  0  0  0  0  0  0  0  0
   -7.5765   -2.4926    0.3882 H   0  0  0  0  0  0  0  0  0  0  0  0
   -6.6452   -0.1564    0.3183 H   0  0  0  0  0  0  0  0  0  0  0  0
   -5.1080   -1.3902   -1.9750 H   0  0  0  0  0  0  0  0  0  0  0  0
   -5.7866    0.2338   -1.7815 H   0  0  0  0  0  0  0  0  0  0  0  0
   -3.1563   -0.9197   -1.0003 H   0  0  0  0  0  0  0  0  0  0  0  0
   -3.5903    0.7088   -1.6188 H   0  0  0  0  0  0  0  0  0  0  0  0
   -3.3866    4.7736    1.9171 H   0  0  0  0  0  0  0  0  0  0  0  0
   -1.0307    4.8552    1.2421 H   0  0  0  0  0  0  0  0  0  0  0  0
   -0.1941    1.4458   -2.5842 H   0  0  0  0  0  0  0  0  0  0  0  0
    2.1693    1.5199   -3.2637 H   0  0  0  0  0  0  0  0  0  0  0  0
    4.6004    1.2054   -2.7142 H   0  0  0  0  0  0  0  0  0  0  0  0
    7.7265    1.0478    2.3172 H   0  0  0  0  0  0  0  0  0  0  0  0
    9.1449   -0.8912    2.9240 H   0  0  0  0  0  0  0  0  0  0  0  0
    8.9907   -2.9305    1.6478 H   0  0  0  0  0  0  0  0  0  0  0  0
    7.4492   -3.1746   -0.2767 H   0  0  0  0  0  0  0  0  0  0  0  0
    5.4957   -1.6830   -1.7405 H   0  0  0  0  0  0  0  0  0  0  0  0
    3.3557   -0.0272    0.4561 H   0  0  0  0  0  0  0  0  0  0  0  0
    0.9502   -0.1212    1.2014 H   0  0  0  0  0  0  0  0  0  0  0  0
   -3.6630   -0.4988    2.3831 H   0  0  0  0  0  0  0  0  0  0  0  0
   -5.1445    0.4616    2.0439 H   0  0  0  0  0  0  0  0  0  0  0  0
   -4.3544   -2.1812    0.6871 H   0  0  0  0  0  0  0  0  0  0  0  0
   -5.7477   -1.9399    1.8599 H   0  0  0  0  0  0  0  0  0  0  0  0
  1  2  1  0
  2  3  1  0
  3  4  1  0
  4  5  1  0
  5  6  1  0
  6  7  1  0
  7  8  2  0
  8  9  1  0
  9 10  2  0
 10 11  1  0
 11 12  2  0
 12 13  1  0
 13 14  1  0
 14 15  2  0
 15 16  1  0
 16 17  2  0
 17 18  1  0
 18 19  1  0
 19 20  2  0
 20 21  1  0
 21 22  2  0
 22 23  1  0
 23 24  2  0
 24 25  1  0
 25 26  2  0
 26 27  1  0
 17 28  1  0
 28 29  2  0
  6 30  1  0
 30 31  1  0
 31  3  1  0
 12  7  1  0
 29 14  1  0
 27 19  1  0
 26 21  1  0
  1 32  1  0
  2 33  1  0
  2 34  1  0
  3 35  1  0
  4 36  1  0
  4 37  1  0
  5 38  1  0
  5 39  1  0
  9 40  1  0
 10 41  1  0
 15 42  1  0
 16 43  1  0
 18 44  1  0
 22 45  1  0
 23 46  1  0
 24 47  1  0
 25 48  1  0
 27 49  1  0
 28 50  1  0
 29 51  1  0
 30 52  1  0
 30 53  1  0
 31 54  1  0
 31 55  1  0
M  END
$$$$
