@<TRIPOS>MOLECULE
*****
 55 59 0 0 0
SMALL
GASTEIGER

@<TRIPOS>ATOM
      1 O          -6.0833   -3.2000   -0.8833 O.3     1  UNL1       -0.3947
      2 C          -6.9226   -2.1821   -0.4453 C.3     1  UNL1        0.0471
      3 C          -6.0492   -1.0214   -0.0295 C.3     1  UNL1       -0.0150
      4 C          -5.2377   -0.5744   -1.2333 C.3     1  UNL1       -0.0322
      5 C          -3.8684   -0.0734   -0.8524 C.3     1  UNL1        0.0140
      6 N          -3.7802    0.4428    0.4853 N.pl3   1  UNL1       -0.3109
      7 C          -3.0436    1.6643    0.6946 C.ar    1  UNL1        0.1843
      8 N          -3.5943    2.7552    1.2521 N.ar    1  UNL1       -0.2338
      9 C          -2.9050    3.9009    1.4585 C.ar    1  UNL1        0.0480
     10 C          -1.5864    3.9527    1.0831 C.ar    1  UNL1        0.0496
     11 N          -1.0226    2.8665    0.5232 N.ar    1  UNL1       -0.2166
     12 C          -1.6990    1.7321    0.3169 C.ar    1  UNL1        0.2615
     13 O          -1.1325    0.6133   -0.2565 O.3     1  UNL1       -0.4353
     14 C           0.2057    0.6534   -0.6338 C.ar    1  UNL1        0.1306
     15 C           0.5837    1.1095   -1.8825 C.ar    1  UNL1       -0.0175
     16 C           1.9045    1.1551   -2.2746 C.ar    1  UNL1       -0.0370
     17 C           2.9188    0.7480   -1.4417 C.ar    1  UNL1        0.0337
     18 N           4.2867    0.7920   -1.8171 N.pl3   1  UNL1       -0.2851
     19 C           5.2766    0.2565   -0.9508 C.ar    1  UNL1        0.1983
     20 N           5.8931    0.8525    0.0846 N.ar    1  UNL1       -0.2144
     21 C           6.7798    0.0356    0.6735 C.ar    1  UNL1        0.0907
     22 C           7.6529    0.1371    1.7424 C.ar    1  UNL1       -0.0342
     23 C           8.4500   -0.9291    2.0955 C.ar    1  UNL1       -0.0596
     24 C           8.3534   -2.1054    1.3506 C.ar    1  UNL1       -0.0597
     25 C           7.4970   -2.2443    0.2811 C.ar    1  UNL1       -0.0362
     26 C           6.7087   -1.1397   -0.0405 C.ar    1  UNL1        0.0674
     27 N           5.8011   -1.0033   -1.0199 N.ar    1  UNL1       -0.3258
     28 C           2.5325    0.2869   -0.1781 C.ar    1  UNL1       -0.0370
     29 C           1.2136    0.2409    0.2149 C.ar    1  UNL1       -0.0175
     30 C          -4.4086   -0.2430    1.5848 C.3     1  UNL1        0.0140
     31 C          -5.1233   -1.4574    1.0830 C.3     1  UNL1       -0.0322
     32 H          -6.5788   -4.0349   -1.0708 H       1  UNL1        0.2094
     33 H          -7.5210   -1.8323   -1.3281 H       1  UNL1        0.0560
     34 H          -7.5765   -2.4926    0.3882 H       1  UNL1        0.0560
     35 H          -6.6452   -0.1564    0.3183 H       1  UNL1        0.0324
     36 H          -5.1080   -1.3902   -1.9750 H       1  UNL1        0.0284
     37 H          -5.7866    0.2338   -1.7815 H       1  UNL1        0.0284
     38 H          -3.1563   -0.9197   -1.0003 H       1  UNL1        0.0464
     39 H          -3.5903    0.7088   -1.6188 H       1  UNL1        0.0464
     40 H          -3.3866    4.7736    1.9171 H       1  UNL1        0.0846
     41 H          -1.0307    4.8552    1.2421 H       1  UNL1        0.0846
     42 H          -0.1941    1.4458   -2.5842 H       1  UNL1        0.0655
     43 H           2.1693    1.5199   -3.2637 H       1  UNL1        0.0637
     44 H           4.6004    1.2054   -2.7142 H       1  UNL1        0.1550
     45 H           7.7265    1.0478    2.3172 H       1  UNL1        0.0639
     46 H           9.1449   -0.8912    2.9240 H       1  UNL1        0.0618
     47 H           8.9907   -2.9305    1.6478 H       1  UNL1        0.0618
     48 H           7.4492   -3.1746   -0.2767 H       1  UNL1        0.0639
     49 H           5.4957   -1.6830   -1.7405 H       1  UNL1        0.1686
     50 H           3.3557   -0.0272    0.4561 H       1  UNL1        0.0637
     51 H           0.9502   -0.1212    1.2014 H       1  UNL1        0.0655
     52 H          -3.6630   -0.4988    2.3831 H       1  UNL1        0.0464
     53 H          -5.1445    0.4616    2.0439 H       1  UNL1        0.0464
     54 H          -4.3544   -2.1812    0.6871 H       1  UNL1        0.0284
     55 H          -5.7477   -1.9399    1.8599 H       1  UNL1        0.0284
@<TRIPOS>BOND
     1     1     2    1
     2     2     3    1
     3     3     4    1
     4     4     5    1
     5     5     6    1
     6     6     7    1
     7     7     8   ar
     8     8     9   ar
     9     9    10   ar
    10    10    11   ar
    11    11    12   ar
    12    12    13    1
    13    13    14    1
    14    14    15   ar
    15    15    16   ar
    16    16    17   ar
    17    17    18    1
    18    18    19    1
    19    19    20   ar
    20    20    21   ar
    21    21    22   ar
    22    22    23   ar
    23    23    24   ar
    24    24    25   ar
    25    25    26   ar
    26    26    27   ar
    27    17    28   ar
    28    28    29   ar
    29     6    30    1
    30    30    31    1
    31    31     3    1
    32    12     7   ar
    33    29    14   ar
    34    27    19   ar
    35    26    21   ar
    36     1    32    1
    37     2    33    1
    38     2    34    1
    39     3    35    1
    40     4    36    1
    41     4    37    1
    42     5    38    1
    43     5    39    1
    44     9    40    1
    45    10    41    1
    46    15    42    1
    47    16    43    1
    48    18    44    1
    49    22    45    1
    50    23    46    1
    51    24    47    1
    52    25    48    1
    53    27    49    1
    54    28    50    1
    55    29    51    1
    56    30    52    1
    57    30    53    1
    58    31    54    1
    59    31    55    1
