
     RDKit          3D

 41 41  0  0  0  0  0  0  0  0999 V2000
    5.2910   -0.2206    2.7597 C   0  0  0  0  0  0  0  0  0  0  0  0
    4.1599    0.6292    2.8021 O   0  0  0  0  0  0  0  0  0  0  0  0
    3.2811    0.6328    1.7370 C   0  0  0  0  0  0  0  0  0  0  0  0
    2.1896    1.4889    1.8383 C   0  0  0  0  0  0  0  0  0  0  0  0
    1.2768    1.5376    0.8073 C   0  0  0  0  0  0  0  0  0  0  0  0
    1.4014    0.7576   -0.3454 C   0  0  0  0  0  0  0  0  0  0  0  0
    2.5070   -0.0807   -0.3997 C   0  0  0  0  0  0  0  0  0  0  0  0
    3.4250   -0.1381    0.6232 C   0  0  0  0  0  0  0  0  0  0  0  0
    0.1734    0.9382   -1.5403 S   0  0  0  0  0  0  0  0  0  0  0  0
   -0.1215    2.4012   -1.6564 O   0  0  0  0  0  0  0  0  0  0  0  0
    0.9098    0.6318   -2.8595 O   0  0  0  0  0  0  0  0  0  0  0  0
   -1.1650    0.0152   -1.5210 N   0  0  0  0  0  0  0  0  0  0  0  0
   -1.9510    0.1846   -0.3290 C   0  0  0  0  0  0  0  0  0  0  0  0
   -3.1685    1.0141   -0.4191 C   0  0  0  0  0  0  0  0  0  0  0  0
   -3.7935    1.0023    0.9919 C   0  0  0  0  0  0  0  0  0  0  0  0
   -2.9830    2.4595   -0.7846 C   0  0  0  0  0  0  0  0  0  0  0  0
   -1.1596   -1.3338   -1.9415 C   0  0  0  0  0  0  0  0  0  0  0  0
   -0.8592   -2.2864   -0.8065 C   0  0  0  0  0  0  0  0  0  0  0  0
   -0.5924   -2.4193    0.4381 O   0  0  0  0  0  0  0  0  0  0  0  0
   -0.8686   -3.6434   -1.3008 N   0  0  0  0  0  0  0  0  0  0  0  0
   -0.6250   -4.6842   -0.4686 O   0  0  0  0  0  0  0  0  0  0  0  0
    5.8268   -0.2570    3.7229 H   0  0  0  0  0  0  0  0  0  0  0  0
    5.9187    0.1216    1.9156 H   0  0  0  0  0  0  0  0  0  0  0  0
    4.9176   -1.2581    2.5464 H   0  0  0  0  0  0  0  0  0  0  0  0
    2.0560    2.1095    2.7133 H   0  0  0  0  0  0  0  0  0  0  0  0
    0.4389    2.2248    0.9352 H   0  0  0  0  0  0  0  0  0  0  0  0
    2.5700   -0.6684   -1.3058 H   0  0  0  0  0  0  0  0  0  0  0  0
    4.2728   -0.8010    0.5480 H   0  0  0  0  0  0  0  0  0  0  0  0
   -1.3283    0.6499    0.5028 H   0  0  0  0  0  0  0  0  0  0  0  0
   -2.2438   -0.7938    0.1263 H   0  0  0  0  0  0  0  0  0  0  0  0
   -3.9491    0.6213   -1.1019 H   0  0  0  0  0  0  0  0  0  0  0  0
   -3.1104    1.6098    1.6276 H   0  0  0  0  0  0  0  0  0  0  0  0
   -4.7842    1.4976    0.9452 H   0  0  0  0  0  0  0  0  0  0  0  0
   -3.8429   -0.0234    1.3989 H   0  0  0  0  0  0  0  0  0  0  0  0
   -2.2630    2.9759   -0.1204 H   0  0  0  0  0  0  0  0  0  0  0  0
   -3.9801    2.9733   -0.5871 H   0  0  0  0  0  0  0  0  0  0  0  0
   -2.8029    2.6220   -1.8638 H   0  0  0  0  0  0  0  0  0  0  0  0
   -0.3849   -1.5408   -2.7056 H   0  0  0  0  0  0  0  0  0  0  0  0
   -2.1880   -1.6240   -2.2490 H   0  0  0  0  0  0  0  0  0  0  0  0
   -1.0353   -4.0862   -2.2523 H   0  0  0  0  0  0  0  0  0  0  0  0
   -1.4155   -5.2395   -0.2909 H   0  0  0  0  0  0  0  0  0  0  0  0
  1  2  1  0
  2  3  1  0
  3  4  2  0
  4  5  1  0
  5  6  2  0
  6  7  1  0
  7  8  2  0
  6  9  1  0
  9 10  2  0
  9 11  2  0
  9 12  1  0
 12 13  1  0
 13 14  1  0
 14 15  1  0
 14 16  1  0
 12 17  1  0
 17 18  1  0
 18 19  2  0
 18 20  1  0
 20 21  1  0
  8  3  1  0
  1 22  1  0
  1 23  1  0
  1 24  1  0
  4 25  1  0
  5 26  1  0
  7 27  1  0
  8 28  1  0
 13 29  1  0
 13 30  1  0
 14 31  1  0
 15 32  1  0
 15 33  1  0
 15 34  1  0
 16 35  1  0
 16 36  1  0
 16 37  1  0
 17 38  1  0
 17 39  1  0
 20 40  1  0
 21 41  1  0
M  END
$$$$
