@<TRIPOS>MOLECULE
*****
 41 41 0 0 0
SMALL
GASTEIGER

@<TRIPOS>ATOM
      1 C           5.2910   -0.2206    2.7597 C.3     1  UNL1        0.0788
      2 O           4.1599    0.6292    2.8021 O.3     1  UNL1       -0.4951
      3 C           3.2811    0.6328    1.7370 C.ar    1  UNL1        0.1202
      4 C           2.1896    1.4889    1.8383 C.ar    1  UNL1       -0.0181
      5 C           1.2768    1.5376    0.8073 C.ar    1  UNL1       -0.0319
      6 C           1.4014    0.7576   -0.3454 C.ar    1  UNL1        0.1057
      7 C           2.5070   -0.0807   -0.3997 C.ar    1  UNL1       -0.0319
      8 C           3.4250   -0.1381    0.6232 C.ar    1  UNL1       -0.0181
      9 S           0.1734    0.9382   -1.5403 S.O2    1  UNL1        0.0613
     10 O          -0.1215    2.4012   -1.6564 O.2     1  UNL1       -0.1528
     11 O           0.9098    0.6318   -2.8595 O.2     1  UNL1       -0.1528
     12 N          -1.1650    0.0152   -1.5210 N.3     1  UNL1       -0.1675
     13 C          -1.9510    0.1846   -0.3290 C.3     1  UNL1        0.0234
     14 C          -3.1685    1.0141   -0.4191 C.3     1  UNL1       -0.0323
     15 C          -3.7935    1.0023    0.9919 C.3     1  UNL1       -0.0615
     16 C          -2.9830    2.4595   -0.7846 C.3     1  UNL1       -0.0615
     17 C          -1.1596   -1.3338   -1.9415 C.3     1  UNL1        0.0988
     18 C          -0.8592   -2.2864   -0.8065 C.2     1  UNL1        0.2512
     19 O          -0.5924   -2.4193    0.4381 O.2     1  UNL1       -0.2723
     20 N          -0.8686   -3.6434   -1.3008 N.am    1  UNL1       -0.1964
     21 O          -0.6250   -4.6842   -0.4686 O.3     1  UNL1       -0.2952
     22 H           5.8268   -0.2570    3.7229 H       1  UNL1        0.0660
     23 H           5.9187    0.1216    1.9156 H       1  UNL1        0.0660
     24 H           4.9176   -1.2581    2.5464 H       1  UNL1        0.0660
     25 H           2.0560    2.1095    2.7133 H       1  UNL1        0.0655
     26 H           0.4389    2.2248    0.9352 H       1  UNL1        0.0638
     27 H           2.5700   -0.6684   -1.3058 H       1  UNL1        0.0638
     28 H           4.2728   -0.8010    0.5480 H       1  UNL1        0.0655
     29 H          -1.3283    0.6499    0.5028 H       1  UNL1        0.0447
     30 H          -2.2438   -0.7938    0.1263 H       1  UNL1        0.0447
     31 H          -3.9491    0.6213   -1.1019 H       1  UNL1        0.0308
     32 H          -3.1104    1.6098    1.6276 H       1  UNL1        0.0233
     33 H          -4.7842    1.4976    0.9452 H       1  UNL1        0.0233
     34 H          -3.8429   -0.0234    1.3989 H       1  UNL1        0.0233
     35 H          -2.2630    2.9759   -0.1204 H       1  UNL1        0.0233
     36 H          -3.9801    2.9733   -0.5871 H       1  UNL1        0.0233
     37 H          -2.8029    2.6220   -1.8638 H       1  UNL1        0.0233
     38 H          -0.3849   -1.5408   -2.7056 H       1  UNL1        0.0540
     39 H          -2.1880   -1.6240   -2.2490 H       1  UNL1        0.0540
     40 H          -1.0353   -4.0862   -2.2523 H       1  UNL1        0.1822
     41 H          -1.4155   -5.2395   -0.2909 H       1  UNL1        0.2414
@<TRIPOS>BOND
     1     1     2    1
     2     2     3    1
     3     3     4   ar
     4     4     5   ar
     5     5     6   ar
     6     6     7   ar
     7     7     8   ar
     8     6     9    1
     9     9    10    2
    10     9    11    2
    11     9    12    1
    12    12    13    1
    13    13    14    1
    14    14    15    1
    15    14    16    1
    16    12    17    1
    17    17    18    1
    18    18    19    2
    19    18    20   am
    20    20    21    1
    21     8     3   ar
    22     1    22    1
    23     1    23    1
    24     1    24    1
    25     4    25    1
    26     5    26    1
    27     7    27    1
    28     8    28    1
    29    13    29    1
    30    13    30    1
    31    14    31    1
    32    15    32    1
    33    15    33    1
    34    15    34    1
    35    16    35    1
    36    16    36    1
    37    16    37    1
    38    17    38    1
    39    17    39    1
    40    20    40    1
    41    21    41    1
