
     RDKit          3D

 56 58  0  0  0  0  0  0  0  0999 V2000
    6.6651    0.3799    2.3871 O   0  0  0  0  0  0  0  0  0  0  0  0
    7.0121    0.1885    1.2065 C   0  0  0  0  0  0  0  0  0  0  0  0
    7.9308   -0.8378    0.9751 O   0  0  0  0  0  0  0  0  0  0  0  0
    6.4929    0.9901    0.1033 C   0  0  0  0  0  0  0  0  0  0  0  0
    5.5833    1.9222    0.5021 O   0  0  0  0  0  0  0  0  0  0  0  0
    4.4329    1.4754    1.0860 C   0  0  0  0  0  0  0  0  0  0  0  0
    3.6806    0.5660    0.1038 C   0  0  1  0  0  0  0  0  0  0  0  0
    2.4283    0.1184    0.8291 C   0  0  0  0  0  0  0  0  0  0  0  0
    1.4405   -0.5251   -0.1238 C   0  0  0  0  0  0  0  0  0  0  0  0
    1.0915    0.4444   -1.2345 C   0  0  2  0  0  0  0  0  0  0  0  0
    0.1401   -0.2522   -2.1588 C   0  0  0  0  0  0  0  0  0  0  0  0
   -1.0457   -0.6679   -1.5634 O   0  0  0  0  0  0  0  0  0  0  0  0
   -1.9411    0.1823   -0.9704 C   0  0  0  0  0  0  0  0  0  0  0  0
   -1.6348    1.4329   -0.9848 O   0  0  0  0  0  0  0  0  0  0  0  0
   -3.1199   -0.2671   -0.3816 N   0  0  0  0  0  0  0  0  0  0  0  0
   -3.9589    0.7638    0.2029 C   0  0  0  0  0  0  0  0  0  0  0  0
   -3.7693    1.1079    1.5229 C   0  0  0  0  0  0  0  0  0  0  0  0
   -4.5473    2.0891    2.1285 C   0  0  0  0  0  0  0  0  0  0  0  0
   -5.5030    2.6944    1.3624 C   0  0  0  0  0  0  0  0  0  0  0  0
   -5.6900    2.3420    0.0274 C   0  0  0  0  0  0  0  0  0  0  0  0
   -4.9235    1.3776   -0.5631 C   0  0  0  0  0  0  0  0  0  0  0  0
   -3.5511   -1.5998   -0.3095 C   0  0  0  0  0  0  0  0  0  0  0  0
   -4.7822   -1.8750    0.3302 C   0  0  0  0  0  0  0  0  0  0  0  0
   -5.2446   -3.1520    0.4261 C   0  0  0  0  0  0  0  0  0  0  0  0
   -4.5729   -4.2368   -0.0747 C   0  0  0  0  0  0  0  0  0  0  0  0
   -5.1914   -5.8689    0.0629 Cl  0  0  0  0  0  0  0  0  0  0  0  0
   -3.3759   -4.0087   -0.7015 C   0  0  0  0  0  0  0  0  0  0  0  0
   -2.8955   -2.7005   -0.8034 C   0  0  0  0  0  0  0  0  0  0  0  0
    2.3641    0.7074   -2.0192 C   0  0  0  0  0  0  0  0  0  0  0  0
    3.3807    1.3680   -1.1187 C   0  0  0  0  0  0  0  0  0  0  0  0
    8.0062   -1.5750    1.6535 H   0  0  0  0  0  0  0  0  0  0  0  0
    7.3521    1.5413   -0.3738 H   0  0  0  0  0  0  0  0  0  0  0  0
    6.1201    0.3203   -0.7030 H   0  0  0  0  0  0  0  0  0  0  0  0
    4.5031    1.0314    2.0736 H   0  0  0  0  0  0  0  0  0  0  0  0
    3.7543    2.3670    1.1913 H   0  0  0  0  0  0  0  0  0  0  0  0
    4.2637   -0.3205   -0.1701 H   0  0  0  0  0  0  0  0  0  0  0  0
    1.9280    0.9449    1.3555 H   0  0  0  0  0  0  0  0  0  0  0  0
    2.7194   -0.6504    1.5723 H   0  0  0  0  0  0  0  0  0  0  0  0
    0.5277   -0.7524    0.4629 H   0  0  0  0  0  0  0  0  0  0  0  0
    1.8687   -1.4240   -0.5669 H   0  0  0  0  0  0  0  0  0  0  0  0
    0.6851    1.3877   -0.8698 H   0  0  0  0  0  0  0  0  0  0  0  0
    0.6609   -1.1699   -2.5406 H   0  0  0  0  0  0  0  0  0  0  0  0
   -0.0413    0.3788   -3.0558 H   0  0  0  0  0  0  0  0  0  0  0  0
   -3.0199    0.6473    2.1592 H   0  0  0  0  0  0  0  0  0  0  0  0
   -4.3926    2.3538    3.1652 H   0  0  0  0  0  0  0  0  0  0  0  0
   -6.1327    3.4574    1.7741 H   0  0  0  0  0  0  0  0  0  0  0  0
   -6.4565    2.8389   -0.5580 H   0  0  0  0  0  0  0  0  0  0  0  0
   -5.0794    1.1145   -1.5988 H   0  0  0  0  0  0  0  0  0  0  0  0
   -5.3386   -1.0407    0.7372 H   0  0  0  0  0  0  0  0  0  0  0  0
   -6.1958   -3.3507    0.9220 H   0  0  0  0  0  0  0  0  0  0  0  0
   -2.7686   -4.8058   -1.1318 H   0  0  0  0  0  0  0  0  0  0  0  0
   -1.9311   -2.5629   -1.3142 H   0  0  0  0  0  0  0  0  0  0  0  0
    2.7188   -0.2248   -2.4762 H   0  0  0  0  0  0  0  0  0  0  0  0
    2.1004    1.4686   -2.8012 H   0  0  0  0  0  0  0  0  0  0  0  0
    4.3004    1.5159   -1.6999 H   0  0  0  0  0  0  0  0  0  0  0  0
    2.9520    2.3511   -0.8251 H   0  0  0  0  0  0  0  0  0  0  0  0
  1  2  2  0
  2  3  1  0
  2  4  1  0
  4  5  1  0
  5  6  1  0
  6  7  1  0
  7  8  1  0
  8  9  1  0
  9 10  1  0
 10 11  1  0
 11 12  1  0
 12 13  1  0
 13 14  2  0
 13 15  1  0
 15 16  1  0
 16 17  2  0
 17 18  1  0
 18 19  2  0
 19 20  1  0
 20 21  2  0
 15 22  1  0
 22 23  2  0
 23 24  1  0
 24 25  2  0
 25 26  1  0
 25 27  1  0
 27 28  2  0
 10 29  1  0
 29 30  1  0
 30  7  1  0
 21 16  1  0
 28 22  1  0
  3 31  1  0
  4 32  1  0
  4 33  1  0
  6 34  1  0
  6 35  1  0
  7 36  1  6
  8 37  1  0
  8 38  1  0
  9 39  1  0
  9 40  1  0
 10 41  1  1
 11 42  1  0
 11 43  1  0
 17 44  1  0
 18 45  1  0
 19 46  1  0
 20 47  1  0
 21 48  1  0
 23 49  1  0
 24 50  1  0
 27 51  1  0
 28 52  1  0
 29 53  1  0
 29 54  1  0
 30 55  1  0
 30 56  1  0
M  END
$$$$
