@<TRIPOS>MOLECULE
*****
 56 58 0 0 0
SMALL
GASTEIGER

@<TRIPOS>ATOM
      1 O           6.6651    0.3799    2.3871 O.2     1  UNL1       -0.2484
      2 C           7.0121    0.1885    1.2065 C.2     1  UNL1        0.3308
      3 O           7.9308   -0.8378    0.9751 O.3     1  UNL1       -0.4790
      4 C           6.4929    0.9901    0.1033 C.3     1  UNL1        0.1443
      5 O           5.5833    1.9222    0.5021 O.3     1  UNL1       -0.3684
      6 C           4.4329    1.4754    1.0860 C.3     1  UNL1        0.0512
      7 C           3.6806    0.5660    0.1038 C.3     1  UNL1       -0.0175
      8 C           2.4283    0.1184    0.8291 C.3     1  UNL1       -0.0478
      9 C           1.4405   -0.5251   -0.1238 C.3     1  UNL1       -0.0468
     10 C           1.0915    0.4444   -1.2345 C.3     1  UNL1       -0.0066
     11 C           0.1401   -0.2522   -2.1588 C.3     1  UNL1        0.0969
     12 O          -1.0457   -0.6679   -1.5634 O.3     1  UNL1       -0.4495
     13 C          -1.9411    0.1823   -0.9704 C.2     1  UNL1        0.4117
     14 O          -1.6348    1.4329   -0.9848 O.2     1  UNL1       -0.2255
     15 N          -3.1199   -0.2671   -0.3816 N.am    1  UNL1       -0.2062
     16 C          -3.9589    0.7638    0.2029 C.ar    1  UNL1        0.0445
     17 C          -3.7693    1.1079    1.5229 C.ar    1  UNL1       -0.0398
     18 C          -4.5473    2.0891    2.1285 C.ar    1  UNL1       -0.0600
     19 C          -5.5030    2.6944    1.3624 C.ar    1  UNL1       -0.0616
     20 C          -5.6900    2.3420    0.0274 C.ar    1  UNL1       -0.0600
     21 C          -4.9235    1.3776   -0.5631 C.ar    1  UNL1       -0.0398
     22 C          -3.5511   -1.5998   -0.3095 C.ar    1  UNL1        0.0446
     23 C          -4.7822   -1.8750    0.3302 C.ar    1  UNL1       -0.0384
     24 C          -5.2446   -3.1520    0.4261 C.ar    1  UNL1       -0.0416
     25 C          -4.5729   -4.2368   -0.0747 C.ar    1  UNL1        0.0411
     26 CL         -5.1914   -5.8689    0.0629 Cl      1  UNL1       -0.0835
     27 C          -3.3759   -4.0087   -0.7015 C.ar    1  UNL1       -0.0416
     28 C          -2.8955   -2.7005   -0.8034 C.ar    1  UNL1       -0.0384
     29 C           2.3641    0.7074   -2.0192 C.3     1  UNL1       -0.0468
     30 C           3.3807    1.3680   -1.1187 C.3     1  UNL1       -0.0478
     31 H           8.0062   -1.5750    1.6535 H       1  UNL1        0.2951
     32 H           7.3521    1.5413   -0.3738 H       1  UNL1        0.0676
     33 H           6.1201    0.3203   -0.7030 H       1  UNL1        0.0676
     34 H           4.5031    1.0314    2.0736 H       1  UNL1        0.0563
     35 H           3.7543    2.3670    1.1913 H       1  UNL1        0.0563
     36 H           4.2637   -0.3205   -0.1701 H       1  UNL1        0.0323
     37 H           1.9280    0.9449    1.3555 H       1  UNL1        0.0269
     38 H           2.7194   -0.6504    1.5723 H       1  UNL1        0.0269
     39 H           0.5277   -0.7524    0.4629 H       1  UNL1        0.0269
     40 H           1.8687   -1.4240   -0.5669 H       1  UNL1        0.0269
     41 H           0.6851    1.3877   -0.8698 H       1  UNL1        0.0334
     42 H           0.6609   -1.1699   -2.5406 H       1  UNL1        0.0701
     43 H          -0.0413    0.3788   -3.0558 H       1  UNL1        0.0701
     44 H          -3.0199    0.6473    2.1592 H       1  UNL1        0.0636
     45 H          -4.3926    2.3538    3.1652 H       1  UNL1        0.0618
     46 H          -6.1327    3.4574    1.7741 H       1  UNL1        0.0618
     47 H          -6.4565    2.8389   -0.5580 H       1  UNL1        0.0618
     48 H          -5.0794    1.1145   -1.5988 H       1  UNL1        0.0636
     49 H          -5.3386   -1.0407    0.7372 H       1  UNL1        0.0637
     50 H          -6.1958   -3.3507    0.9220 H       1  UNL1        0.0633
     51 H          -2.7686   -4.8058   -1.1318 H       1  UNL1        0.0633
     52 H          -1.9311   -2.5629   -1.3142 H       1  UNL1        0.0637
     53 H           2.7188   -0.2248   -2.4762 H       1  UNL1        0.0269
     54 H           2.1004    1.4686   -2.8012 H       1  UNL1        0.0269
     55 H           4.3004    1.5159   -1.6999 H       1  UNL1        0.0269
     56 H           2.9520    2.3511   -0.8251 H       1  UNL1        0.0269
@<TRIPOS>BOND
     1     1     2    2
     2     2     3    1
     3     2     4    1
     4     4     5    1
     5     5     6    1
     6     6     7    1
     7     7     8    1
     8     8     9    1
     9     9    10    1
    10    10    11    1
    11    11    12    1
    12    12    13    1
    13    13    14    2
    14    13    15   am
    15    15    16    1
    16    16    17   ar
    17    17    18   ar
    18    18    19   ar
    19    19    20   ar
    20    20    21   ar
    21    15    22    1
    22    22    23   ar
    23    23    24   ar
    24    24    25   ar
    25    25    26    1
    26    25    27   ar
    27    27    28   ar
    28    10    29    1
    29    29    30    1
    30    30     7    1
    31    21    16   ar
    32    28    22   ar
    33     3    31    1
    34     4    32    1
    35     4    33    1
    36     6    34    1
    37     6    35    1
    38     7    36    1
    39     8    37    1
    40     8    38    1
    41     9    39    1
    42     9    40    1
    43    10    41    1
    44    11    42    1
    45    11    43    1
    46    17    44    1
    47    18    45    1
    48    19    46    1
    49    20    47    1
    50    21    48    1
    51    23    49    1
    52    24    50    1
    53    27    51    1
    54    28    52    1
    55    29    53    1
    56    29    54    1
    57    30    55    1
    58    30    56    1
