@<TRIPOS>MOLECULE
*****
 41 43 0 0 0
SMALL
GASTEIGER

@<TRIPOS>ATOM
      1 C          -4.2906    0.2695    3.1631 C.3     1  UNL1        0.0788
      2 O          -4.9484   -0.2142    2.0144 O.3     1  UNL1       -0.4949
      3 C          -4.3239   -0.1602    0.7816 C.ar    1  UNL1        0.1253
      4 C          -3.0631    0.3661    0.6840 C.ar    1  UNL1        0.0015
      5 C          -2.4343    0.4194   -0.5645 C.ar    1  UNL1        0.0407
      6 N          -1.1295    0.9813   -0.5665 N.am    1  UNL1       -0.2788
      7 C           0.0137    0.1629   -0.3748 C.2     1  UNL1        0.2836
      8 O          -0.2008   -1.0609   -0.2073 O.2     1  UNL1       -0.2665
      9 C           1.3709    0.6949   -0.3691 C.ar    1  UNL1        0.1902
     10 C           1.7955    1.9808   -0.5327 C.ar    1  UNL1       -0.0106
     11 C           3.1718    1.9722   -0.4460 C.ar    1  UNL1       -0.0151
     12 C           3.5343    0.6812   -0.2330 C.ar    1  UNL1        0.1359
     13 C           4.8925    0.1340   -0.0679 C.ar    1  UNL1        0.0174
     14 C           5.9932    0.9548   -0.1208 C.ar    1  UNL1       -0.0497
     15 C           7.2821    0.4334    0.0361 C.ar    1  UNL1       -0.0427
     16 C           7.4659   -0.9056    0.2451 C.ar    1  UNL1        0.0410
     17 CL          9.0543   -1.6235    0.4496 Cl      1  UNL1       -0.0835
     18 C           6.3537   -1.7388    0.2990 C.ar    1  UNL1       -0.0427
     19 C           5.1008   -1.2017    0.1421 C.ar    1  UNL1       -0.0497
     20 O           2.4428   -0.0368   -0.1946 O.2     1  UNL1       -0.4502
     21 C          -3.0460   -0.0442   -1.7109 C.ar    1  UNL1        0.0015
     22 C          -4.3199   -0.5716   -1.5874 C.ar    1  UNL1        0.1253
     23 O          -4.9648   -1.0453   -2.7102 O.3     1  UNL1       -0.4949
     24 C          -6.2505   -1.5801   -2.5998 C.3     1  UNL1        0.0788
     25 C          -4.9439   -0.6266   -0.3611 C.ar    1  UNL1        0.0219
     26 H          -5.0129    0.2351    4.0201 H       1  UNL1        0.0660
     27 H          -3.9619    1.3127    2.9748 H       1  UNL1        0.0660
     28 H          -3.4467   -0.3748    3.4460 H       1  UNL1        0.0660
     29 H          -2.5783    0.7311    1.5789 H       1  UNL1        0.0673
     30 H          -1.0102    2.0046   -0.7103 H       1  UNL1        0.1552
     31 H           1.1678    2.8447   -0.6991 H       1  UNL1        0.0657
     32 H           3.8639    2.8139   -0.5274 H       1  UNL1        0.0656
     33 H           5.9088    2.0194   -0.2831 H       1  UNL1        0.0625
     34 H           8.1557    1.0595   -0.0021 H       1  UNL1        0.0632
     35 H           6.5150   -2.7908    0.4643 H       1  UNL1        0.0632
     36 H           4.2548   -1.8684    0.1880 H       1  UNL1        0.0625
     37 H          -2.5204    0.0197   -2.6435 H       1  UNL1        0.0673
     38 H          -6.6016   -2.0798   -3.5178 H       1  UNL1        0.0660
     39 H          -6.3339   -2.3327   -1.7710 H       1  UNL1        0.0660
     40 H          -7.0058   -0.7958   -2.3497 H       1  UNL1        0.0660
     41 H          -5.9502   -1.0392   -0.2409 H       1  UNL1        0.0691
@<TRIPOS>BOND
     1     1     2    1
     2     2     3    1
     3     3     4   ar
     4     4     5   ar
     5     5     6    1
     6     6     7   am
     7     7     8    2
     8     7     9    1
     9     9    10   ar
    10    10    11   ar
    11    11    12   ar
    12    12    13    1
    13    13    14   ar
    14    14    15   ar
    15    15    16   ar
    16    16    17    1
    17    16    18   ar
    18    18    19   ar
    19    12    20   ar
    20     5    21   ar
    21    21    22   ar
    22    22    23    1
    23    23    24    1
    24    22    25   ar
    25    25     3   ar
    26    20     9   ar
    27    19    13   ar
    28     1    26    1
    29     1    27    1
    30     1    28    1
    31     4    29    1
    32     6    30    1
    33    10    31    1
    34    11    32    1
    35    14    33    1
    36    15    34    1
    37    18    35    1
    38    19    36    1
    39    21    37    1
    40    24    38    1
    41    24    39    1
    42    24    40    1
    43    25    41    1
