
     RDKit          3D

 41 43  0  0  0  0  0  0  0  0999 V2000
   -4.2906    0.2695    3.1631 C   0  0  0  0  0  0  0  0  0  0  0  0
   -4.9484   -0.2142    2.0144 O   0  0  0  0  0  0  0  0  0  0  0  0
   -4.3239   -0.1602    0.7816 C   0  0  0  0  0  0  0  0  0  0  0  0
   -3.0631    0.3661    0.6840 C   0  0  0  0  0  0  0  0  0  0  0  0
   -2.4343    0.4194   -0.5645 C   0  0  0  0  0  0  0  0  0  0  0  0
   -1.1295    0.9813   -0.5665 N   0  0  0  0  0  0  0  0  0  0  0  0
    0.0137    0.1629   -0.3748 C   0  0  0  0  0  0  0  0  0  0  0  0
   -0.2008   -1.0609   -0.2073 O   0  0  0  0  0  0  0  0  0  0  0  0
    1.3709    0.6949   -0.3691 C   0  0  0  0  0  0  0  0  0  0  0  0
    1.7955    1.9808   -0.5327 C   0  0  0  0  0  0  0  0  0  0  0  0
    3.1718    1.9722   -0.4460 C   0  0  0  0  0  0  0  0  0  0  0  0
    3.5343    0.6812   -0.2330 C   0  0  0  0  0  0  0  0  0  0  0  0
    4.8925    0.1340   -0.0679 C   0  0  0  0  0  0  0  0  0  0  0  0
    5.9932    0.9548   -0.1208 C   0  0  0  0  0  0  0  0  0  0  0  0
    7.2821    0.4334    0.0361 C   0  0  0  0  0  0  0  0  0  0  0  0
    7.4659   -0.9056    0.2451 C   0  0  0  0  0  0  0  0  0  0  0  0
    9.0543   -1.6235    0.4496 Cl  0  0  0  0  0  0  0  0  0  0  0  0
    6.3537   -1.7388    0.2990 C   0  0  0  0  0  0  0  0  0  0  0  0
    5.1008   -1.2017    0.1421 C   0  0  0  0  0  0  0  0  0  0  0  0
    2.4428   -0.0368   -0.1946 O   0  0  0  0  0  0  0  0  0  0  0  0
   -3.0460   -0.0442   -1.7109 C   0  0  0  0  0  0  0  0  0  0  0  0
   -4.3199   -0.5716   -1.5874 C   0  0  0  0  0  0  0  0  0  0  0  0
   -4.9648   -1.0453   -2.7102 O   0  0  0  0  0  0  0  0  0  0  0  0
   -6.2505   -1.5801   -2.5998 C   0  0  0  0  0  0  0  0  0  0  0  0
   -4.9439   -0.6266   -0.3611 C   0  0  0  0  0  0  0  0  0  0  0  0
   -5.0129    0.2351    4.0201 H   0  0  0  0  0  0  0  0  0  0  0  0
   -3.9619    1.3127    2.9748 H   0  0  0  0  0  0  0  0  0  0  0  0
   -3.4467   -0.3748    3.4460 H   0  0  0  0  0  0  0  0  0  0  0  0
   -2.5783    0.7311    1.5789 H   0  0  0  0  0  0  0  0  0  0  0  0
   -1.0102    2.0046   -0.7103 H   0  0  0  0  0  0  0  0  0  0  0  0
    1.1678    2.8447   -0.6991 H   0  0  0  0  0  0  0  0  0  0  0  0
    3.8639    2.8139   -0.5274 H   0  0  0  0  0  0  0  0  0  0  0  0
    5.9088    2.0194   -0.2831 H   0  0  0  0  0  0  0  0  0  0  0  0
    8.1557    1.0595   -0.0021 H   0  0  0  0  0  0  0  0  0  0  0  0
    6.5150   -2.7908    0.4643 H   0  0  0  0  0  0  0  0  0  0  0  0
    4.2548   -1.8684    0.1880 H   0  0  0  0  0  0  0  0  0  0  0  0
   -2.5204    0.0197   -2.6435 H   0  0  0  0  0  0  0  0  0  0  0  0
   -6.6016   -2.0798   -3.5178 H   0  0  0  0  0  0  0  0  0  0  0  0
   -6.3339   -2.3327   -1.7710 H   0  0  0  0  0  0  0  0  0  0  0  0
   -7.0058   -0.7958   -2.3497 H   0  0  0  0  0  0  0  0  0  0  0  0
   -5.9502   -1.0392   -0.2409 H   0  0  0  0  0  0  0  0  0  0  0  0
  1  2  1  0
  2  3  1  0
  3  4  2  0
  4  5  1  0
  5  6  1  0
  6  7  1  0
  7  8  2  0
  7  9  1  0
  9 10  2  0
 10 11  1  0
 11 12  2  0
 12 13  1  0
 13 14  2  0
 14 15  1  0
 15 16  2  0
 16 17  1  0
 16 18  1  0
 18 19  2  0
 12 20  1  0
  5 21  2  0
 21 22  1  0
 22 23  1  0
 23 24  1  0
 22 25  2  0
 25  3  1  0
 20  9  1  0
 19 13  1  0
  1 26  1  0
  1 27  1  0
  1 28  1  0
  4 29  1  0
  6 30  1  0
 10 31  1  0
 11 32  1  0
 14 33  1  0
 15 34  1  0
 18 35  1  0
 19 36  1  0
 21 37  1  0
 24 38  1  0
 24 39  1  0
 24 40  1  0
 25 41  1  0
M  END
$$$$
