@<TRIPOS>MOLECULE
*****
 71 72 0 0 0
SMALL
GASTEIGER

@<TRIPOS>ATOM
      1 C          -7.5964    0.9740   -1.7921 C.3     0  UNK0       -0.0253
      2 C          -6.8084    0.4266   -0.6351 C.3     0  UNK0        0.1068
      3 C          -7.3872    1.0126    0.6355 C.3     0  UNK0       -0.0253
      4 C          -7.0271   -1.0660   -0.5933 C.3     0  UNK0       -0.0253
      5 O          -5.4366    0.7615   -0.7243 O.3     0  UNK0       -0.4447
      6 C          -4.4945    0.3906    0.1925 C.2     0  UNK0        0.4016
      7 O          -4.8183   -0.2862    1.1860 O.2     0  UNK0       -0.2264
      8 N          -3.0980    0.7570    0.0607 N.am    1  UNK1       -0.2658
      9 C          -2.1266    0.3680    1.0185 C.3     1  UNK1        0.1279
     10 C          -1.0194   -0.4703    0.5880 C.2     1  UNK1        0.2411
     11 O          -0.1703   -0.7849    1.4984 O.2     1  UNK1       -0.2732
     12 N          -0.7770   -0.9750   -0.7219 N.am    2  PRO2       -0.2881
     13 CD         -1.6463   -0.7231   -1.8387 C.3     2  PRO2        0.0156
     14 CG         -1.2006   -1.7255   -2.9273 C.3     2  PRO2       -0.0350
     15 CB          0.2821   -1.8195   -2.6465 C.3     2  PRO2       -0.0243
     16 CA          0.3147   -1.7867   -1.1544 C.3     2  PRO2        0.1023
     17 C           1.6417   -1.2365   -0.7677 C.2     2  PRO2        0.2341
     18 O           1.6908   -0.1275   -0.1972 O.2     2  PRO2       -0.2738
     19 N           2.8101   -1.9564   -1.0422 N.am    3  ARG3       -0.3044
     20 CA          4.1527   -1.4763   -0.6913 C.3     3  ARG3        0.0786
     21 C           5.0058   -1.4175   -1.8921 C.2     3  ARG3        0.1404
     22 O           6.1632   -1.0713   -1.8808 O.2     3  ARG3       -0.2991
     23 CB          4.6735   -2.4564    0.3250 C.3     3  ARG3       -0.0249
     24 CG          6.0215   -2.1986    0.8733 C.3     3  ARG3       -0.0166
     25 CD          6.2284   -0.9433    1.6410 C.3     3  ARG3        0.1048
     26 NE          5.9847    0.2525    0.8941 N.pl3   3  ARG3       -0.1138
     27 CZ          6.9505    1.0382    0.5807 C.cat   3  ARG3        0.3765
     28 NH1         6.6095    2.2074   -0.1662 N.pl3   3  ARG3       -0.2893
     29 NH2         8.2974    0.8186    0.9238 N.pl3   3  ARG3       -0.2893
     30 C          -1.6056    1.5963    1.7150 C.ar    1  UNK1       -0.0181
     31 C          -1.4401    1.6461    3.0769 C.ar    1  UNK1       -0.0536
     32 C          -0.9580    2.8018    3.6504 C.ar    1  UNK1       -0.0261
     33 C          -0.6266    3.9328    2.9129 C.ar    1  UNK1        0.1234
     34 F          -0.1565    5.0466    3.5160 F       1  UNK1       -0.2055
     35 C          -0.7935    3.8771    1.5585 C.ar    1  UNK1       -0.0261
     36 C          -1.2801    2.7111    0.9789 C.ar    1  UNK1       -0.0536
     37 H          -7.6017    0.2316   -2.6166 H       0  UNK0        0.0268
     38 H          -8.6767    1.0606   -1.4807 H       0  UNK0        0.0268
     39 H          -7.2854    1.9762   -2.1142 H       0  UNK0        0.0268
     40 H          -8.2822    1.6436    0.4475 H       0  UNK0        0.0268
     41 H          -7.7138    0.2204    1.3380 H       0  UNK0        0.0268
     42 H          -6.6255    1.6470    1.1313 H       0  UNK0        0.0268
     43 H          -6.6270   -1.5245    0.3278 H       0  UNK0        0.0268
     44 H          -6.6432   -1.5462   -1.5250 H       0  UNK0        0.0268
     45 H          -8.1248   -1.2283   -0.5955 H       0  UNK0        0.0268
     46 H          -2.9151    1.3344   -0.7987 H       1  UNK1        0.1531
     47 H          -2.6870   -0.2484    1.8008 H       1  UNK1        0.0647
     48 HD1        -1.4703    0.2633   -2.3139 H       2  PRO2        0.0465
     49 HD2        -2.7066   -0.9030   -1.5932 H       2  PRO2        0.0465
     50 HG1        -1.4296   -1.3546   -3.9275 H       2  PRO2        0.0281
     51 HG2        -1.6530   -2.7005   -2.6904 H       2  PRO2        0.0281
     52 HB1         0.7284   -2.7406   -3.0758 H       2  PRO2        0.0288
     53 HB2         0.8183   -0.9001   -3.0092 H       2  PRO2        0.0288
     54 HA          0.1707   -2.8161   -0.7463 H       2  PRO2        0.0597
     55 H           2.7345   -2.8795   -1.5191 H       3  ARG3        0.1494
     56 HA          4.1030   -0.4810   -0.2252 H       3  ARG3        0.0574
     57 H           4.6172   -1.6953   -2.8883 H       3  ARG3        0.1046
     58 HB1         3.9597   -2.5583    1.1874 H       3  ARG3        0.0288
     59 HB2         4.6998   -3.4964   -0.1291 H       3  ARG3        0.0288
     60 HG1         6.2612   -3.0588    1.5719 H       3  ARG3        0.0298
     61 HG2         6.8340   -2.2595    0.1116 H       3  ARG3        0.0298
     62 HD1         7.3161   -0.9223    1.9596 H       3  ARG3        0.0693
     63 HD2         5.6831   -0.9448    2.6220 H       3  ARG3        0.0693
     64 HH11        7.2137    2.4538   -0.9690 H       3  ARG3        0.2546
     65 HH12        5.7705    2.7414    0.1449 H       3  ARG3        0.2546
     66 HH21        8.5581    0.6934    1.9365 H       3  ARG3        0.2546
     67 HH22        9.0572    0.7744    0.2075 H       3  ARG3        0.2546
     68 H          -1.6944    0.7665    3.6807 H       1  UNK1        0.0622
     69 H          -0.8230    2.8534    4.7242 H       1  UNK1        0.0646
     70 H          -0.5441    4.7473    0.9395 H       1  UNK1        0.0646
     71 H          -1.3817    2.7529   -0.1028 H       1  UNK1        0.0622
@<TRIPOS>BOND
     1     1     2    1
     2     2     3    1
     3     2     4    1
     4     2     5    1
     5     5     6    1
     6     6     7    2
     7     6     8   am
     8     8     9    1
     9     9    10    1
    10    10    11    2
    11    10    12   am
    12    12    13    1
    13    13    14    1
    14    14    15    1
    15    15    16    1
    16    16    17    1
    17    17    18    2
    18    17    19   am
    19    19    20    1
    20    20    21    1
    21    21    22    2
    22    20    23    1
    23    23    24    1
    24    24    25    1
    25    25    26    1
    26    26    27    2
    27    27    28    1
    28    27    29    1
    29     9    30    1
    30    30    31   ar
    31    31    32   ar
    32    32    33   ar
    33    33    34    1
    34    33    35   ar
    35    35    36   ar
    36    16    12    1
    37    36    30   ar
    38     1    37    1
    39     1    38    1
    40     1    39    1
    41     3    40    1
    42     3    41    1
    43     3    42    1
    44     4    43    1
    45     4    44    1
    46     4    45    1
    47     8    46    1
    48     9    47    1
    49    13    48    1
    50    13    49    1
    51    14    50    1
    52    14    51    1
    53    15    52    1
    54    15    53    1
    55    16    54    1
    56    19    55    1
    57    20    56    1
    58    21    57    1
    59    23    58    1
    60    23    59    1
    61    24    60    1
    62    24    61    1
    63    25    62    1
    64    25    63    1
    65    28    64    1
    66    28    65    1
    67    29    66    1
    68    29    67    1
    69    31    68    1
    70    32    69    1
    71    35    70    1
    72    36    71    1
