@<TRIPOS>MOLECULE
*****
 41 44 0 0 0
SMALL
GASTEIGER

@<TRIPOS>ATOM
      1 O           5.5161   -1.3116    0.8965 O.2     1  UNL1       -0.2681
      2 C           4.9921   -0.2765    0.4115 C.2     1  UNL1        0.2665
      3 N           5.7426    0.9130    0.4210 N.am    1  UNL1       -0.1935
      4 O           7.0065    0.9682    0.9364 O.3     1  UNL1       -0.2949
      5 C           3.6348   -0.3643   -0.1348 C.ar    1  UNL1        0.0387
      6 C           2.9397   -1.5567   -0.1205 C.ar    1  UNL1       -0.0493
      7 C           1.6627   -1.6632   -0.6283 C.ar    1  UNL1       -0.0562
      8 C           1.0196   -0.5748   -1.1767 C.ar    1  UNL1       -0.0277
      9 C          -0.3650   -0.6406   -1.7381 C.3     1  UNL1        0.0486
     10 N          -1.3719   -0.3092   -0.7204 N.ar    1  UNL1       -0.3376
     11 C          -1.8591    0.9224   -0.4190 C.ar    1  UNL1        0.0465
     12 C          -2.7622    0.7457    0.5719 C.ar    1  UNL1        0.1166
     13 C          -2.8270   -0.5879    0.8756 C.ar    1  UNL1        0.0250
     14 C          -3.5699   -1.3380    1.7952 C.ar    1  UNL1       -0.0507
     15 C          -3.4574   -2.6965    1.9121 C.ar    1  UNL1       -0.0610
     16 C          -2.5687   -3.3438    1.0807 C.ar    1  UNL1       -0.0598
     17 C          -1.8296   -2.6022    0.1665 C.ar    1  UNL1       -0.0375
     18 C          -1.9464   -1.2329    0.0526 C.ar    1  UNL1        0.0514
     19 S          -3.3983    2.3255    0.9626 S.O2    1  UNL1       -0.0005
     20 O          -2.6598    2.8473    2.1357 O.2     1  UNL1       -0.1693
     21 O          -4.8674    2.3455    1.0986 O.2     1  UNL1       -0.1693
     22 C          -2.8559    3.1291   -0.5597 C.3     1  UNL1        0.0763
     23 C          -1.6602    2.2995   -0.8660 C.3     1  UNL1        0.0094
     24 C           1.7095    0.6288   -1.1961 C.ar    1  UNL1       -0.0562
     25 C           2.9926    0.7249   -0.6831 C.ar    1  UNL1       -0.0493
     26 H           5.3667    1.7878    0.0391 H       1  UNL1        0.1825
     27 H           7.5512    1.6543    0.4806 H       1  UNL1        0.2414
     28 H           3.4267   -2.4183    0.3044 H       1  UNL1        0.0625
     29 H           1.1794   -2.6225   -0.5865 H       1  UNL1        0.0621
     30 H          -0.5451   -1.6704   -2.1089 H       1  UNL1        0.0541
     31 H          -0.4802    0.0285   -2.6214 H       1  UNL1        0.0541
     32 H          -4.2559   -0.8238    2.4344 H       1  UNL1        0.0625
     33 H          -4.0518   -3.2526    2.6402 H       1  UNL1        0.0618
     34 H          -2.4628   -4.4181    1.1550 H       1  UNL1        0.0618
     35 H          -1.1425   -3.1393   -0.4740 H       1  UNL1        0.0638
     36 H          -2.5328    4.1760   -0.3348 H       1  UNL1        0.0508
     37 H          -3.6593    3.0844   -1.3013 H       1  UNL1        0.0508
     38 H          -1.5168    2.3379   -1.9807 H       1  UNL1        0.0344
     39 H          -0.7731    2.7583   -0.3668 H       1  UNL1        0.0344
     40 H           1.1906    1.4737   -1.6302 H       1  UNL1        0.0621
     41 H           3.4888    1.6924   -0.7232 H       1  UNL1        0.0625
@<TRIPOS>BOND
     1     1     2    2
     2     2     3   am
     3     3     4    1
     4     2     5    1
     5     5     6   ar
     6     6     7   ar
     7     7     8   ar
     8     8     9    1
     9     9    10    1
    10    10    11   ar
    11    11    12   ar
    12    12    13   ar
    13    13    14   ar
    14    14    15   ar
    15    15    16   ar
    16    16    17   ar
    17    17    18   ar
    18    12    19    1
    19    19    20    2
    20    19    21    2
    21    19    22    1
    22    22    23    1
    23     8    24   ar
    24    24    25   ar
    25    25     5   ar
    26    18    10   ar
    27    23    11    1
    28    18    13   ar
    29     3    26    1
    30     4    27    1
    31     6    28    1
    32     7    29    1
    33     9    30    1
    34     9    31    1
    35    14    32    1
    36    15    33    1
    37    16    34    1
    38    17    35    1
    39    22    36    1
    40    22    37    1
    41    23    38    1
    42    23    39    1
    43    24    40    1
    44    25    41    1
