@<TRIPOS>MOLECULE
*****
 51 56 0 0 0
SMALL
GASTEIGER

@<TRIPOS>ATOM
      1 C          -4.1931    1.8324   -0.5135 C.3     1  UNL1       -0.0203
      2 C          -3.6830    0.4906   -0.1156 C.ar    1  UNL1        0.0660
      3 N          -4.2911   -0.5472    0.3986 N.ar    1  UNL1       -0.1752
      4 N          -3.4435   -1.5717    0.6080 N.ar    1  UNL1       -0.2556
      5 C          -3.7879   -2.8401    1.1549 C.3     1  UNL1        0.0537
      6 C          -3.2314   -4.1323    0.7007 C.3     1  UNL1       -0.0285
      7 C          -2.9585   -3.6444    2.0479 C.3     1  UNL1       -0.0285
      8 C          -2.2083   -1.1552    0.1976 C.ar    1  UNL1        0.1297
      9 C          -2.3377    0.1322   -0.2583 C.ar    1  UNL1        0.0305
     10 C          -1.0189    0.6020   -0.7060 C.3     1  UNL1        0.0868
     11 C          -0.6223    1.8787   -0.0664 C.ar    1  UNL1       -0.0220
     12 C          -0.7049    3.0731   -0.7495 C.ar    1  UNL1       -0.0551
     13 C          -0.3574    4.2882   -0.2254 C.ar    1  UNL1       -0.0431
     14 C           0.1103    4.3142    1.0858 C.ar    1  UNL1        0.0410
     15 CL          0.5565    5.8681    1.7609 Cl      1  UNL1       -0.0835
     16 C           0.2056    3.1370    1.7983 C.ar    1  UNL1       -0.0431
     17 C          -0.1549    1.9308    1.2342 C.ar    1  UNL1       -0.0551
     18 N          -0.1184   -0.4614   -0.4923 N.am    1  UNL1       -0.2376
     19 C           1.2887   -0.5360   -0.7536 C.ar    1  UNL1        0.1499
     20 C           1.7807   -0.9751   -1.9561 C.ar    1  UNL1       -0.0131
     21 C           3.1505   -1.0390   -2.1873 C.ar    1  UNL1       -0.0012
     22 C           3.6862   -1.5070   -3.4696 C.3     1  UNL1       -0.0360
     23 C           3.9816   -0.6470   -1.1686 C.ar    1  UNL1        0.1809
     24 N           5.3309   -0.5934   -1.0828 N.ar    1  UNL1       -0.1277
     25 N           5.6399   -0.1486    0.1005 N.ar    1  UNL1       -0.1325
     26 C           4.5190    0.0899    0.7906 C.ar    1  UNL1        0.1521
     27 C           4.4766    0.6050    2.1781 C.3     1  UNL1       -0.0027
     28 N           3.4712   -0.2161    0.0128 N.ar    1  UNL1       -0.1953
     29 N           2.1447   -0.1677    0.2002 N.ar    1  UNL1       -0.1478
     30 C          -0.8191   -1.5662    0.0659 C.2     1  UNL1        0.2711
     31 O          -0.3629   -2.6870    0.3921 O.2     1  UNL1       -0.2679
     32 H          -3.6290    2.6473    0.0153 H       1  UNL1        0.0293
     33 H          -4.1812    1.9910   -1.6018 H       1  UNL1        0.0293
     34 H          -5.2468    1.9237   -0.1529 H       1  UNL1        0.0293
     35 H          -4.9033   -2.9211    1.3802 H       1  UNL1        0.0545
     36 H          -3.9109   -5.0414    0.6170 H       1  UNL1        0.0286
     37 H          -2.5796   -4.0910   -0.1694 H       1  UNL1        0.0286
     38 H          -2.0436   -3.1896    2.4210 H       1  UNL1        0.0286
     39 H          -3.4651   -4.2219    2.8878 H       1  UNL1        0.0286
     40 H          -1.0411    0.8002   -1.8097 H       1  UNL1        0.0606
     41 H          -1.0787    3.0069   -1.7804 H       1  UNL1        0.0621
     42 H          -0.4384    5.2210   -0.8055 H       1  UNL1        0.0632
     43 H           0.5740    3.2059    2.8129 H       1  UNL1        0.0632
     44 H          -0.0847    1.0018    1.7822 H       1  UNL1        0.0621
     45 H           1.0979   -1.2715   -2.7242 H       1  UNL1        0.0656
     46 H           4.0160   -0.6783   -4.1386 H       1  UNL1        0.0279
     47 H           4.5578   -2.2044   -3.3499 H       1  UNL1        0.0279
     48 H           2.9293   -2.1082   -4.0422 H       1  UNL1        0.0279
     49 H           4.6904    1.6847    2.2347 H       1  UNL1        0.0309
     50 H           5.2044    0.0099    2.7772 H       1  UNL1        0.0309
     51 H           3.4831    0.4284    2.6640 H       1  UNL1        0.0309
@<TRIPOS>BOND
     1     1     2    1
     2     2     3   ar
     3     3     4   ar
     4     4     5    1
     5     5     6    1
     6     6     7    1
     7     4     8   ar
     8     8     9   ar
     9     9    10    1
    10    10    11    1
    11    11    12   ar
    12    12    13   ar
    13    13    14   ar
    14    14    15    1
    15    14    16   ar
    16    16    17   ar
    17    10    18    1
    18    18    19    1
    19    19    20   ar
    20    20    21   ar
    21    21    22    1
    22    21    23   ar
    23    23    24   ar
    24    24    25   ar
    25    25    26   ar
    26    26    27    1
    27    26    28   ar
    28    28    29   ar
    29    18    30   am
    30    30    31    2
    31     9     2   ar
    32    17    11   ar
    33    29    19   ar
    34     7     5    1
    35    30     8    1
    36    28    23   ar
    37     1    32    1
    38     1    33    1
    39     1    34    1
    40     5    35    1
    41     6    36    1
    42     6    37    1
    43     7    38    1
    44     7    39    1
    45    10    40    1
    46    12    41    1
    47    13    42    1
    48    16    43    1
    49    17    44    1
    50    20    45    1
    51    22    46    1
    52    22    47    1
    53    22    48    1
    54    27    49    1
    55    27    50    1
    56    27    51    1
