@<TRIPOS>MOLECULE
*****
 48 50 0 0 0
SMALL
GASTEIGER

@<TRIPOS>ATOM
      1 C          -6.5401   -1.1435    0.8323 C.3     1  UNL1        0.0365
      2 O          -5.3874   -0.3961    0.7312 O.3     1  UNL1       -0.3814
      3 C          -4.2374   -1.1589    0.8496 C.3     1  UNL1        0.0645
      4 C          -2.9862   -0.3142    0.7351 C.3     1  UNL1        0.0552
      5 C          -3.1556    0.8225    1.7509 C.3     1  UNL1       -0.0323
      6 C          -2.6565    2.0491    1.0627 C.3     1  UNL1       -0.0370
      7 C          -2.6772    1.6970   -0.3847 C.3     1  UNL1        0.0209
      8 N          -2.9879    0.3211   -0.5432 N.3     1  UNL1       -0.1713
      9 S          -2.0878   -0.4815   -1.7418 S.O2    1  UNL1        0.0612
     10 O          -2.3675    0.1483   -3.0767 O.2     1  UNL1       -0.1528
     11 O          -2.6143   -1.9063   -1.8358 O.2     1  UNL1       -0.1528
     12 C          -0.3679   -0.4891   -1.4247 C.ar    1  UNL1        0.1063
     13 C           0.4411    0.5333   -1.8981 C.ar    1  UNL1       -0.0335
     14 C           1.7960    0.5590   -1.6671 C.ar    1  UNL1       -0.0377
     15 C           2.4165   -0.4446   -0.9449 C.ar    1  UNL1        0.0478
     16 C           1.6371   -1.4741   -0.4618 C.ar    1  UNL1        0.0502
     17 C           0.2664   -1.4796   -0.7079 C.ar    1  UNL1       -0.0226
     18 C           2.5389   -2.3730    0.2481 C.2     1  UNL1        0.2496
     19 O           2.2224   -3.4439    0.8406 O.2     1  UNL1       -0.2817
     20 C           3.8963   -1.8493    0.1771 C.2     1  UNL1        0.2913
     21 O           4.9464   -2.3802    0.6891 O.2     1  UNL1       -0.2661
     22 N           3.7971   -0.6476   -0.5701 N.am    1  UNL1       -0.2616
     23 C           4.8821    0.2296   -0.8941 C.3     1  UNL1        0.0487
     24 C           5.1544    1.3251    0.0697 C.3     1  UNL1        0.0993
     25 O           6.2585    2.0478   -0.4340 O.3     1  UNL1       -0.3877
     26 C           5.4667    0.9278    1.4679 C.3     1  UNL1        0.1175
     27 F           4.4872    0.2295    2.1123 F       1  UNL1       -0.2463
     28 H          -6.6459   -1.6803    1.7951 H       1  UNL1        0.0523
     29 H          -6.4938   -1.9097    0.0036 H       1  UNL1        0.0523
     30 H          -7.4505   -0.5627    0.6407 H       1  UNL1        0.0523
     31 H          -4.2954   -1.6864    1.8230 H       1  UNL1        0.0576
     32 H          -4.2706   -1.9468    0.0570 H       1  UNL1        0.0576
     33 H          -2.0819   -0.8600    0.9951 H       1  UNL1        0.0502
     34 H          -2.6055    0.5909    2.6856 H       1  UNL1        0.0282
     35 H          -4.2171    0.9677    2.0209 H       1  UNL1        0.0282
     36 H          -3.3402    2.9051    1.2731 H       1  UNL1        0.0279
     37 H          -1.6307    2.3451    1.3641 H       1  UNL1        0.0279
     38 H          -3.4899    2.2887   -0.8900 H       1  UNL1        0.0444
     39 H          -1.7457    1.9778   -0.9187 H       1  UNL1        0.0444
     40 H           0.0186    1.3541   -2.4732 H       1  UNL1        0.0638
     41 H           2.4159    1.3565   -2.0385 H       1  UNL1        0.0637
     42 H          -0.3187   -2.2956   -0.3191 H       1  UNL1        0.0645
     43 H           5.8384   -0.3535   -1.0141 H       1  UNL1        0.0495
     44 H           4.7228    0.7047   -1.8936 H       1  UNL1        0.0495
     45 H           4.3331    2.0848    0.1033 H       1  UNL1        0.0635
     46 H           7.0515    1.4887   -0.2366 H       1  UNL1        0.2100
     47 H           5.5971    1.8890    2.0473 H       1  UNL1        0.0641
     48 H           6.4672    0.4335    1.5419 H       1  UNL1        0.0641
@<TRIPOS>BOND
     1     1     2    1
     2     2     3    1
     3     3     4    1
     4     4     5    1
     5     5     6    1
     6     6     7    1
     7     7     8    1
     8     8     9    1
     9     9    10    2
    10     9    11    2
    11     9    12    1
    12    12    13   ar
    13    13    14   ar
    14    14    15   ar
    15    15    16   ar
    16    16    17   ar
    17    16    18    1
    18    18    19    2
    19    18    20    1
    20    20    21    2
    21    20    22   am
    22    22    23    1
    23    23    24    1
    24    24    25    1
    25    24    26    1
    26    26    27    1
    27     8     4    1
    28    17    12   ar
    29    22    15    1
    30     1    28    1
    31     1    29    1
    32     1    30    1
    33     3    31    1
    34     3    32    1
    35     4    33    1
    36     5    34    1
    37     5    35    1
    38     6    36    1
    39     6    37    1
    40     7    38    1
    41     7    39    1
    42    13    40    1
    43    14    41    1
    44    17    42    1
    45    23    43    1
    46    23    44    1
    47    24    45    1
    48    25    46    1
    49    26    47    1
    50    26    48    1
