
     RDKit          3D

 48 50  0  0  0  0  0  0  0  0999 V2000
   -6.5401   -1.1435    0.8323 C   0  0  0  0  0  0  0  0  0  0  0  0
   -5.3874   -0.3961    0.7312 O   0  0  0  0  0  0  0  0  0  0  0  0
   -4.2374   -1.1589    0.8496 C   0  0  0  0  0  0  0  0  0  0  0  0
   -2.9862   -0.3142    0.7351 C   0  0  2  0  0  0  0  0  0  0  0  0
   -3.1556    0.8225    1.7509 C   0  0  0  0  0  0  0  0  0  0  0  0
   -2.6565    2.0491    1.0627 C   0  0  0  0  0  0  0  0  0  0  0  0
   -2.6772    1.6970   -0.3847 C   0  0  0  0  0  0  0  0  0  0  0  0
   -2.9879    0.3211   -0.5432 N   0  0  0  0  0  0  0  0  0  0  0  0
   -2.0878   -0.4815   -1.7418 S   0  0  0  0  0  6  0  0  0  0  0  0
   -2.3675    0.1483   -3.0767 O   0  0  0  0  0  0  0  0  0  0  0  0
   -2.6143   -1.9063   -1.8358 O   0  0  0  0  0  0  0  0  0  0  0  0
   -0.3679   -0.4891   -1.4247 C   0  0  0  0  0  0  0  0  0  0  0  0
    0.4411    0.5333   -1.8981 C   0  0  0  0  0  0  0  0  0  0  0  0
    1.7960    0.5590   -1.6671 C   0  0  0  0  0  0  0  0  0  0  0  0
    2.4165   -0.4446   -0.9449 C   0  0  0  0  0  0  0  0  0  0  0  0
    1.6371   -1.4741   -0.4618 C   0  0  0  0  0  0  0  0  0  0  0  0
    0.2664   -1.4796   -0.7079 C   0  0  0  0  0  0  0  0  0  0  0  0
    2.5389   -2.3730    0.2481 C   0  0  0  0  0  0  0  0  0  0  0  0
    2.2224   -3.4439    0.8406 O   0  0  0  0  0  0  0  0  0  0  0  0
    3.8963   -1.8493    0.1771 C   0  0  0  0  0  0  0  0  0  0  0  0
    4.9464   -2.3802    0.6891 O   0  0  0  0  0  0  0  0  0  0  0  0
    3.7971   -0.6476   -0.5701 N   0  0  0  0  0  0  0  0  0  0  0  0
    4.8821    0.2296   -0.8941 C   0  0  0  0  0  0  0  0  0  0  0  0
    5.1544    1.3251    0.0697 C   0  0  2  0  0  0  0  0  0  0  0  0
    6.2585    2.0478   -0.4340 O   0  0  0  0  0  0  0  0  0  0  0  0
    5.4667    0.9278    1.4679 C   0  0  0  0  0  0  0  0  0  0  0  0
    4.4872    0.2295    2.1123 F   0  0  0  0  0  0  0  0  0  0  0  0
   -6.6459   -1.6803    1.7951 H   0  0  0  0  0  0  0  0  0  0  0  0
   -6.4938   -1.9097    0.0036 H   0  0  0  0  0  0  0  0  0  0  0  0
   -7.4505   -0.5627    0.6407 H   0  0  0  0  0  0  0  0  0  0  0  0
   -4.2954   -1.6864    1.8230 H   0  0  0  0  0  0  0  0  0  0  0  0
   -4.2706   -1.9468    0.0570 H   0  0  0  0  0  0  0  0  0  0  0  0
   -2.0819   -0.8600    0.9951 H   0  0  0  0  0  0  0  0  0  0  0  0
   -2.6055    0.5909    2.6856 H   0  0  0  0  0  0  0  0  0  0  0  0
   -4.2171    0.9677    2.0209 H   0  0  0  0  0  0  0  0  0  0  0  0
   -3.3402    2.9051    1.2731 H   0  0  0  0  0  0  0  0  0  0  0  0
   -1.6307    2.3451    1.3641 H   0  0  0  0  0  0  0  0  0  0  0  0
   -3.4899    2.2887   -0.8900 H   0  0  0  0  0  0  0  0  0  0  0  0
   -1.7457    1.9778   -0.9187 H   0  0  0  0  0  0  0  0  0  0  0  0
    0.0186    1.3541   -2.4732 H   0  0  0  0  0  0  0  0  0  0  0  0
    2.4159    1.3565   -2.0385 H   0  0  0  0  0  0  0  0  0  0  0  0
   -0.3187   -2.2956   -0.3191 H   0  0  0  0  0  0  0  0  0  0  0  0
    5.8384   -0.3535   -1.0141 H   0  0  0  0  0  0  0  0  0  0  0  0
    4.7228    0.7047   -1.8936 H   0  0  0  0  0  0  0  0  0  0  0  0
    4.3331    2.0848    0.1033 H   0  0  0  0  0  0  0  0  0  0  0  0
    7.0515    1.4887   -0.2366 H   0  0  0  0  0  0  0  0  0  0  0  0
    5.5971    1.8890    2.0473 H   0  0  0  0  0  0  0  0  0  0  0  0
    6.4672    0.4335    1.5419 H   0  0  0  0  0  0  0  0  0  0  0  0
  1  2  1  0
  2  3  1  0
  3  4  1  0
  4  5  1  0
  5  6  1  0
  6  7  1  0
  7  8  1  0
  8  9  1  0
  9 10  2  0
  9 11  2  0
  9 12  1  0
 12 13  2  0
 13 14  1  0
 14 15  2  0
 15 16  1  0
 16 17  2  0
 16 18  1  0
 18 19  2  0
 18 20  1  0
 20 21  2  0
 20 22  1  0
 22 23  1  0
 23 24  1  0
 24 25  1  0
 24 26  1  0
 26 27  1  0
  8  4  1  0
 17 12  1  0
 22 15  1  0
  1 28  1  0
  1 29  1  0
  1 30  1  0
  3 31  1  0
  3 32  1  0
  4 33  1  1
  5 34  1  0
  5 35  1  0
  6 36  1  0
  6 37  1  0
  7 38  1  0
  7 39  1  0
 13 40  1  0
 14 41  1  0
 17 42  1  0
 23 43  1  0
 23 44  1  0
 24 45  1  1
 25 46  1  0
 26 47  1  0
 26 48  1  0
M  END
$$$$
