@<TRIPOS>MOLECULE
*****
 48 50 0 0 0
SMALL
GASTEIGER

@<TRIPOS>ATOM
      1 C           1.8124    0.8232   -3.4555 C.3     1  UNL1       -0.0375
      2 C           3.1568    1.2216   -2.9847 C.ar    1  UNL1       -0.0187
      3 C           4.0609    1.7932   -3.8252 C.ar    1  UNL1       -0.0378
      4 C           5.3066    2.2283   -3.3545 C.ar    1  UNL1        0.0701
      5 C           6.2489    2.8294   -4.2587 C.1     1  UNL1        0.1007
      6 N           7.0294    3.3307   -4.9827 N.1     1  UNL1       -0.1908
      7 C           5.5878    2.0685   -2.0446 C.ar    1  UNL1        0.0458
      8 N           4.6978    1.5052   -1.2142 N.ar    1  UNL1       -0.2488
      9 C           3.4795    1.0746   -1.6633 C.ar    1  UNL1        0.1286
     10 C           2.5726    0.4273   -0.7512 C.2     1  UNL1        0.2668
     11 O           1.8282   -0.5302   -1.1526 O.2     1  UNL1       -0.2682
     12 N           2.4014    0.7727    0.6447 N.am    1  UNL1       -0.2801
     13 C           1.4456    0.0229    1.4363 C.ar    1  UNL1        0.0369
     14 C           1.8920   -0.9284    2.3345 C.ar    1  UNL1       -0.0023
     15 C           1.0355   -1.6764    3.0578 C.ar    1  UNL1        0.1605
     16 F           1.4818   -2.6213    3.9646 F       1  UNL1       -0.2024
     17 C          -0.3386   -1.4784    2.8858 C.ar    1  UNL1        0.1640
     18 F          -1.1133   -2.2839    3.6395 F       1  UNL1       -0.2021
     19 C          -0.8323   -0.5576    2.0176 C.ar    1  UNL1        0.0224
     20 C          -2.2885   -0.3656    1.8648 C.3     1  UNL1        0.1259
     21 C          -2.7977    0.2716    3.1754 C.3     1  UNL1        0.1196
     22 F          -2.5856   -0.4920    4.2740 F       1  UNL1       -0.2462
     23 C          -2.9523   -1.6878    1.7018 C.3     1  UNL1        0.0251
     24 C          -3.7886   -1.8631    0.4708 C.3     1  UNL1        0.1998
     25 C          -4.8362   -2.9256    0.7886 C.3     1  UNL1        0.4266
     26 F          -5.6216   -2.5201    1.8574 F       1  UNL1       -0.1669
     27 F          -5.5879   -3.2601   -0.3151 F       1  UNL1       -0.1669
     28 F          -4.1821   -4.0781    1.1883 F       1  UNL1       -0.1669
     29 O          -4.4083   -0.6231    0.1741 O.2     1  UNL1       -0.4534
     30 C          -3.5940    0.4930    0.0638 C.2     1  UNL1        0.2766
     31 N          -3.9001    1.4748   -0.9439 N.pl3   1  UNL1       -0.3134
     32 N          -2.5959    0.6270    0.8505 N.2     1  UNL1       -0.2228
     33 C           0.0874    0.2084    1.2802 C.ar    1  UNL1       -0.0320
     34 H           1.0202    0.9604   -2.6876 H       1  UNL1        0.0278
     35 H           1.8309   -0.2279   -3.7984 H       1  UNL1        0.0278
     36 H           1.6027    1.4525   -4.3674 H       1  UNL1        0.0278
     37 H           3.8685    1.9355   -4.8665 H       1  UNL1        0.0634
     38 H           6.5515    2.3847   -1.6162 H       1  UNL1        0.0843
     39 H           2.9802    1.5458    0.9907 H       1  UNL1        0.1552
     40 H           2.9687   -1.0376    2.4185 H       1  UNL1        0.0666
     41 H          -2.2659    1.2500    3.3318 H       1  UNL1        0.0643
     42 H          -3.8666    0.5401    3.0718 H       1  UNL1        0.0643
     43 H          -2.2376   -2.5466    1.7106 H       1  UNL1        0.0331
     44 H          -3.6511   -1.8983    2.5815 H       1  UNL1        0.0331
     45 H          -3.1632   -2.2021   -0.3678 H       1  UNL1        0.0826
     46 H          -3.5830    1.3390   -1.9005 H       1  UNL1        0.1466
     47 H          -4.4365    2.3036   -0.6565 H       1  UNL1        0.1466
     48 H          -0.3205    0.9204    0.6003 H       1  UNL1        0.0640
@<TRIPOS>BOND
     1     1     2    1
     2     2     3   ar
     3     3     4   ar
     4     4     5    1
     5     5     6    3
     6     4     7   ar
     7     7     8   ar
     8     8     9   ar
     9     9    10    1
    10    10    11    2
    11    10    12   am
    12    12    13    1
    13    13    14   ar
    14    14    15   ar
    15    15    16    1
    16    15    17   ar
    17    17    18    1
    18    17    19   ar
    19    19    20    1
    20    20    21    1
    21    21    22    1
    22    20    23    1
    23    23    24    1
    24    24    25    1
    25    25    26    1
    26    25    27    1
    27    25    28    1
    28    24    29    1
    29    29    30    1
    30    30    31    1
    31    30    32    2
    32    19    33   ar
    33     9     2   ar
    34    33    13   ar
    35    32    20    1
    36     1    34    1
    37     1    35    1
    38     1    36    1
    39     3    37    1
    40     7    38    1
    41    12    39    1
    42    14    40    1
    43    21    41    1
    44    21    42    1
    45    23    43    1
    46    23    44    1
    47    24    45    1
    48    31    46    1
    49    31    47    1
    50    33    48    1
