
     RDKit          3D

 48 50  0  0  0  0  0  0  0  0999 V2000
    1.8124    0.8232   -3.4555 C   0  0  0  0  0  0  0  0  0  0  0  0
    3.1568    1.2216   -2.9847 C   0  0  0  0  0  0  0  0  0  0  0  0
    4.0609    1.7932   -3.8252 C   0  0  0  0  0  0  0  0  0  0  0  0
    5.3066    2.2283   -3.3545 C   0  0  0  0  0  0  0  0  0  0  0  0
    6.2489    2.8294   -4.2587 C   0  0  0  0  0  0  0  0  0  0  0  0
    7.0294    3.3307   -4.9827 N   0  0  0  0  0  0  0  0  0  0  0  0
    5.5878    2.0685   -2.0446 C   0  0  0  0  0  0  0  0  0  0  0  0
    4.6978    1.5052   -1.2142 N   0  0  0  0  0  0  0  0  0  0  0  0
    3.4795    1.0746   -1.6633 C   0  0  0  0  0  0  0  0  0  0  0  0
    2.5726    0.4273   -0.7512 C   0  0  0  0  0  0  0  0  0  0  0  0
    1.8282   -0.5302   -1.1526 O   0  0  0  0  0  0  0  0  0  0  0  0
    2.4014    0.7727    0.6447 N   0  0  0  0  0  0  0  0  0  0  0  0
    1.4456    0.0229    1.4363 C   0  0  0  0  0  0  0  0  0  0  0  0
    1.8920   -0.9284    2.3345 C   0  0  0  0  0  0  0  0  0  0  0  0
    1.0355   -1.6764    3.0578 C   0  0  0  0  0  0  0  0  0  0  0  0
    1.4818   -2.6213    3.9646 F   0  0  0  0  0  0  0  0  0  0  0  0
   -0.3386   -1.4784    2.8858 C   0  0  0  0  0  0  0  0  0  0  0  0
   -1.1133   -2.2839    3.6395 F   0  0  0  0  0  0  0  0  0  0  0  0
   -0.8323   -0.5576    2.0176 C   0  0  0  0  0  0  0  0  0  0  0  0
   -2.2885   -0.3656    1.8648 C   0  0  2  0  0  0  0  0  0  0  0  0
   -2.7977    0.2716    3.1754 C   0  0  0  0  0  0  0  0  0  0  0  0
   -2.5856   -0.4920    4.2740 F   0  0  0  0  0  0  0  0  0  0  0  0
   -2.9523   -1.6878    1.7018 C   0  0  0  0  0  0  0  0  0  0  0  0
   -3.7886   -1.8631    0.4708 C   0  0  1  0  0  0  0  0  0  0  0  0
   -4.8362   -2.9256    0.7886 C   0  0  0  0  0  0  0  0  0  0  0  0
   -5.6216   -2.5201    1.8574 F   0  0  0  0  0  0  0  0  0  0  0  0
   -5.5879   -3.2601   -0.3151 F   0  0  0  0  0  0  0  0  0  0  0  0
   -4.1821   -4.0781    1.1883 F   0  0  0  0  0  0  0  0  0  0  0  0
   -4.4083   -0.6231    0.1741 O   0  0  0  0  0  0  0  0  0  0  0  0
   -3.5940    0.4930    0.0638 C   0  0  0  0  0  0  0  0  0  0  0  0
   -3.9001    1.4748   -0.9439 N   0  0  0  0  0  0  0  0  0  0  0  0
   -2.5959    0.6270    0.8505 N   0  0  0  0  0  0  0  0  0  0  0  0
    0.0874    0.2084    1.2802 C   0  0  0  0  0  0  0  0  0  0  0  0
    1.0202    0.9604   -2.6876 H   0  0  0  0  0  0  0  0  0  0  0  0
    1.8309   -0.2279   -3.7984 H   0  0  0  0  0  0  0  0  0  0  0  0
    1.6027    1.4525   -4.3674 H   0  0  0  0  0  0  0  0  0  0  0  0
    3.8685    1.9355   -4.8665 H   0  0  0  0  0  0  0  0  0  0  0  0
    6.5515    2.3847   -1.6162 H   0  0  0  0  0  0  0  0  0  0  0  0
    2.9802    1.5458    0.9907 H   0  0  0  0  0  0  0  0  0  0  0  0
    2.9687   -1.0376    2.4185 H   0  0  0  0  0  0  0  0  0  0  0  0
   -2.2659    1.2500    3.3318 H   0  0  0  0  0  0  0  0  0  0  0  0
   -3.8666    0.5401    3.0718 H   0  0  0  0  0  0  0  0  0  0  0  0
   -2.2376   -2.5466    1.7106 H   0  0  0  0  0  0  0  0  0  0  0  0
   -3.6511   -1.8983    2.5815 H   0  0  0  0  0  0  0  0  0  0  0  0
   -3.1632   -2.2021   -0.3678 H   0  0  0  0  0  0  0  0  0  0  0  0
   -3.5830    1.3390   -1.9005 H   0  0  0  0  0  0  0  0  0  0  0  0
   -4.4365    2.3036   -0.6565 H   0  0  0  0  0  0  0  0  0  0  0  0
   -0.3205    0.9204    0.6003 H   0  0  0  0  0  0  0  0  0  0  0  0
  1  2  1  0
  2  3  2  0
  3  4  1  0
  4  5  1  0
  5  6  3  0
  4  7  2  0
  7  8  1  0
  8  9  2  0
  9 10  1  0
 10 11  2  0
 10 12  1  0
 12 13  1  0
 13 14  2  0
 14 15  1  0
 15 16  1  0
 15 17  2  0
 17 18  1  0
 17 19  1  0
 19 20  1  0
 20 21  1  1
 21 22  1  0
 20 23  1  0
 23 24  1  0
 24 25  1  0
 25 26  1  0
 25 27  1  0
 25 28  1  0
 24 29  1  0
 29 30  1  0
 30 31  1  0
 30 32  2  0
 19 33  2  0
  9  2  1  0
 33 13  1  0
 32 20  1  0
  1 34  1  0
  1 35  1  0
  1 36  1  0
  3 37  1  0
  7 38  1  0
 12 39  1  0
 14 40  1  0
 21 41  1  0
 21 42  1  0
 23 43  1  0
 23 44  1  0
 24 45  1  6
 31 46  1  0
 31 47  1  0
 33 48  1  0
M  END
$$$$
