@<TRIPOS>MOLECULE
*****
 67 68 0 0 0
SMALL
GASTEIGER

@<TRIPOS>ATOM
      1 C          -8.5662   -1.0245    0.6500 C.3     1  UNL1       -0.0495
      2 C          -8.6728   -0.9163   -0.8556 C.3     1  UNL1        0.0088
      3 N          -7.3504   -0.8857   -1.4815 N.am    1  UNL1       -0.3156
      4 C          -6.4643    0.1558   -1.1359 C.2     1  UNL1        0.2130
      5 O          -7.0363    0.9150   -0.2866 O.2     1  UNL1       -0.2758
      6 C          -5.1529    0.0772   -1.8380 C.3     1  UNL1        0.0242
      7 C          -4.2148    1.2008   -1.4556 C.3     1  UNL1       -0.0414
      8 C          -3.9094    1.1970    0.0321 C.3     1  UNL1       -0.0343
      9 C          -3.2718   -0.0583    0.4640 C.2     1  UNL1       -0.0879
     10 C          -2.0665   -0.2542    1.0382 C.2     1  UNL1       -0.0876
     11 C          -1.0785    0.7752    1.3765 C.3     1  UNL1       -0.0290
     12 C           0.2607    0.6112    0.6889 C.3     1  UNL1       -0.0029
     13 C           1.0989    1.7916    1.2006 C.3     1  UNL1        0.0613
     14 O           0.2749    2.8671    1.5290 O.3     1  UNL1       -0.3914
     15 C           1.7043    1.2839    2.4912 C.3     1  UNL1        0.0001
     16 C           1.4360   -0.1900    2.5533 C.3     1  UNL1        0.0641
     17 O           0.6145   -0.5941    3.5753 O.3     1  UNL1       -0.3911
     18 C           0.9351   -0.6175    1.1923 C.3     1  UNL1        0.0087
     19 C           2.0260   -1.1306    0.3311 C.2     1  UNL1       -0.0796
     20 C           2.4749   -0.6421   -0.8176 C.2     1  UNL1       -0.0595
     21 C           3.6024   -1.2573   -1.6114 C.3     1  UNL1        0.0737
     22 O           3.1457   -2.2139   -2.4896 O.3     1  UNL1       -0.3878
     23 C           4.1929   -0.1214   -2.4148 C.3     1  UNL1       -0.0193
     24 C           4.7195    0.9812   -1.5399 C.3     1  UNL1       -0.0250
     25 C           5.7844    0.4165   -0.6710 C.ar    1  UNL1       -0.0473
     26 C           7.0706    0.4677   -1.2213 C.ar    1  UNL1       -0.0586
     27 C           8.1729   -0.0089   -0.5525 C.ar    1  UNL1       -0.0615
     28 C           8.0594   -0.5652    0.7051 C.ar    1  UNL1       -0.0617
     29 C           6.7841   -0.6109    1.2396 C.ar    1  UNL1       -0.0615
     30 C           5.6807   -0.1406    0.5852 C.ar    1  UNL1       -0.0586
     31 H          -9.4179   -1.6688    0.9918 H       1  UNL1        0.0245
     32 H          -8.6546   -0.0286    1.1144 H       1  UNL1        0.0245
     33 H          -7.6224   -1.5038    0.9785 H       1  UNL1        0.0245
     34 H          -9.1740    0.0205   -1.1535 H       1  UNL1        0.0459
     35 H          -9.2922   -1.7403   -1.2600 H       1  UNL1        0.0459
     36 H          -7.1316   -1.6615   -2.1699 H       1  UNL1        0.1487
     37 H          -4.6569   -0.8819   -1.6384 H       1  UNL1        0.0358
     38 H          -5.3201    0.2002   -2.9413 H       1  UNL1        0.0358
     39 H          -4.5871    2.1925   -1.7803 H       1  UNL1        0.0273
     40 H          -3.2551    0.9828   -1.9579 H       1  UNL1        0.0273
     41 H          -3.3524    2.0997    0.2957 H       1  UNL1        0.0307
     42 H          -4.8876    1.2734    0.5573 H       1  UNL1        0.0307
     43 H          -3.9226   -0.9255    0.2625 H       1  UNL1        0.0569
     44 H          -1.8252   -1.2869    1.2641 H       1  UNL1        0.0569
     45 H          -0.9002    0.8115    2.4839 H       1  UNL1        0.0311
     46 H          -1.4152    1.8067    1.1214 H       1  UNL1        0.0311
     47 H           0.1241    0.6703   -0.4044 H       1  UNL1        0.0335
     48 H           1.8181    2.1578    0.4702 H       1  UNL1        0.0597
     49 H           0.1324    3.4878    0.7877 H       1  UNL1        0.2098
     50 H           2.7698    1.5368    2.5059 H       1  UNL1        0.0315
     51 H           1.2148    1.7435    3.3859 H       1  UNL1        0.0315
     52 H           2.4281   -0.7129    2.6774 H       1  UNL1        0.0600
     53 H           0.7425   -0.0210    4.3713 H       1  UNL1        0.2098
     54 H           0.2049   -1.4106    1.3378 H       1  UNL1        0.0372
     55 H           2.5030   -2.0359    0.7278 H       1  UNL1        0.0573
     56 H           1.9706    0.2388   -1.1501 H       1  UNL1        0.0594
     57 H           4.3689   -1.6880   -0.9210 H       1  UNL1        0.0638
     58 H           2.9883   -1.8164   -3.3753 H       1  UNL1        0.2102
     59 H           4.9333   -0.4477   -3.1438 H       1  UNL1        0.0296
     60 H           3.3397    0.3318   -2.9935 H       1  UNL1        0.0296
     61 H           5.1201    1.8290   -2.1255 H       1  UNL1        0.0314
     62 H           3.8716    1.3265   -0.9001 H       1  UNL1        0.0314
     63 H           7.2768    0.8862   -2.2083 H       1  UNL1        0.0620
     64 H           9.1741    0.0341   -0.9877 H       1  UNL1        0.0618
     65 H           8.8569   -0.9622    1.3033 H       1  UNL1        0.0618
     66 H           6.6341   -1.0353    2.2207 H       1  UNL1        0.0618
     67 H           4.6887   -0.1616    0.9723 H       1  UNL1        0.0620
@<TRIPOS>BOND
     1     1     2    1
     2     2     3    1
     3     3     4   am
     4     4     5    2
     5     4     6    1
     6     6     7    1
     7     7     8    1
     8     8     9    1
     9     9    10    2
    10    10    11    1
    11    11    12    1
    12    12    13    1
    13    13    14    1
    14    13    15    1
    15    15    16    1
    16    16    17    1
    17    16    18    1
    18    18    19    1
    19    19    20    2
    20    20    21    1
    21    21    22    1
    22    21    23    1
    23    23    24    1
    24    24    25    1
    25    25    26   ar
    26    26    27   ar
    27    27    28   ar
    28    28    29   ar
    29    29    30   ar
    30    18    12    1
    31    30    25   ar
    32     1    31    1
    33     1    32    1
    34     1    33    1
    35     2    34    1
    36     2    35    1
    37     3    36    1
    38     6    37    1
    39     6    38    1
    40     7    39    1
    41     7    40    1
    42     8    41    1
    43     8    42    1
    44     9    43    1
    45    10    44    1
    46    11    45    1
    47    11    46    1
    48    12    47    1
    49    13    48    1
    50    14    49    1
    51    15    50    1
    52    15    51    1
    53    16    52    1
    54    17    53    1
    55    18    54    1
    56    19    55    1
    57    20    56    1
    58    21    57    1
    59    22    58    1
    60    23    59    1
    61    23    60    1
    62    24    61    1
    63    24    62    1
    64    26    63    1
    65    27    64    1
    66    28    65    1
    67    29    66    1
    68    30    67    1
