@<TRIPOS>MOLECULE
*****
 47 49 0 0 0
SMALL
GASTEIGER

@<TRIPOS>ATOM
      1 N          -7.4166    2.0575    1.7764 N.pl3   1  UNL1       -0.3413
      2 C          -6.6157    1.2469    0.9482 C.ar    1  UNL1        0.1472
      3 N          -7.1830    0.7069   -0.1296 N.ar    1  UNL1       -0.2188
      4 C          -6.5229   -0.0810   -0.9912 C.ar    1  UNL1        0.1205
      5 N          -5.2275   -0.3376   -0.7557 N.ar    1  UNL1       -0.2159
      6 C          -4.5501    0.1494    0.2955 C.ar    1  UNL1        0.1674
      7 C          -5.2770    0.9521    1.1473 C.ar    1  UNL1        0.1473
      8 N          -4.4616    1.3558    2.1399 N.ar    1  UNL1       -0.2306
      9 C          -3.2569    0.8200    1.9150 C.ar    1  UNL1        0.1004
     10 N          -3.2843    0.0670    0.7771 N.ar    1  UNL1       -0.2855
     11 C          -2.3221   -0.7192    0.0622 C.3     1  UNL1        0.1667
     12 O          -1.0066   -0.4591    0.4151 O.3     1  UNL1       -0.3456
     13 C          -0.3357   -1.0657   -0.6460 C.3     1  UNL1        0.1134
     14 C           1.1620   -0.9018   -0.5578 C.3     1  UNL1        0.0879
     15 O           1.5597    0.4119   -0.5644 O.3     1  UNL1       -0.2837
     16 P           3.2466    0.4812   -0.4614 P.3     1  UNL1        0.4835
     17 O           3.8388    1.6607   -1.5509 O.3     1  UNL1       -0.3022
     18 O           3.8038   -0.8388   -0.8784 O.2     1  UNL1       -0.2269
     19 O           3.7680    0.9615    1.0692 O.3     1  UNL1       -0.1858
     20 P           4.9760   -0.0312    1.6862 P.3     1  UNL1        0.4918
     21 O           5.7211   -0.9811    0.5051 O.3     1  UNL1       -0.3019
     22 O           4.4359   -0.9554    2.7580 O.2     1  UNL1       -0.2265
     23 O           6.1589    0.9488    2.4067 O.3     1  UNL1       -0.1859
     24 P           7.6837    0.7073    1.7568 P.3     1  UNL1        0.4808
     25 O           7.8763   -0.8791    1.1885 O.3     1  UNL1       -0.3023
     26 O           7.8793    1.7620    0.4311 O.3     1  UNL1       -0.3023
     27 O           8.7801    0.9921    2.7597 O.2     1  UNL1       -0.2271
     28 C          -0.9392   -0.3214   -1.8159 C.3     1  UNL1        0.1135
     29 O          -0.7070   -0.9335   -3.0226 O.3     1  UNL1       -0.3864
     30 C          -2.4235   -0.3856   -1.4311 C.3     1  UNL1        0.1285
     31 O          -3.0614   -1.4652   -2.0325 O.3     1  UNL1       -0.3847
     32 H          -7.3104    2.9192    2.3354 H       1  UNL1        0.1438
     33 H          -8.4143    1.8127    1.9423 H       1  UNL1        0.1438
     34 H          -6.9361   -0.5479   -1.8862 H       1  UNL1        0.1048
     35 H          -2.3372    0.8933    2.4640 H       1  UNL1        0.1030
     36 H          -2.4752   -1.8243    0.2306 H       1  UNL1        0.0866
     37 H          -0.6417   -2.1122   -0.7231 H       1  UNL1        0.0647
     38 H           1.5834   -1.3843   -1.4636 H       1  UNL1        0.0592
     39 H           1.5066   -1.5034    0.2930 H       1  UNL1        0.0592
     40 H           4.0483    1.2413   -2.4422 H       1  UNL1        0.2220
     41 H           6.0345   -0.4728   -0.2636 H       1  UNL1        0.2220
     42 H           8.4085   -0.8899    0.3336 H       1  UNL1        0.2220
     43 H           7.1167    1.6687   -0.1694 H       1  UNL1        0.2220
     44 H          -0.6682    0.7566   -1.7958 H       1  UNL1        0.0647
     45 H          -0.7685   -0.2397   -3.7290 H       1  UNL1        0.2100
     46 H          -2.9294    0.5745   -1.5972 H       1  UNL1        0.0665
     47 H          -2.5161   -1.8984   -2.7296 H       1  UNL1        0.2101
@<TRIPOS>BOND
     1     1     2    1
     2     2     3   ar
     3     3     4   ar
     4     4     5   ar
     5     5     6   ar
     6     6     7   ar
     7     7     8   ar
     8     8     9   ar
     9     9    10   ar
    10    10    11    1
    11    11    12    1
    12    12    13    1
    13    13    14    1
    14    14    15    1
    15    15    16    1
    16    16    17    1
    17    16    18    2
    18    16    19    1
    19    19    20    1
    20    20    21    1
    21    20    22    2
    22    20    23    1
    23    23    24    1
    24    24    25    1
    25    24    26    1
    26    24    27    2
    27    13    28    1
    28    28    29    1
    29    28    30    1
    30    30    31    1
    31     7     2   ar
    32    30    11    1
    33    10     6   ar
    34     1    32    1
    35     1    33    1
    36     4    34    1
    37     9    35    1
    38    11    36    1
    39    13    37    1
    40    14    38    1
    41    14    39    1
    42    17    40    1
    43    21    41    1
    44    25    42    1
    45    26    43    1
    46    28    44    1
    47    29    45    1
    48    30    46    1
    49    31    47    1
