
     RDKit          3D

 26 26  0  0  0  0  0  0  0  0999 V2000
    3.3603   -0.5314   -0.0096 C   0  0  0  0  0  0  0  0  0  0  0  0
    2.0321    0.1565   -0.2477 C   0  0  2  0  0  0  0  0  0  0  0  0
    1.9466    1.2346    0.7321 N   0  0  0  0  0  0  0  0  0  0  0  0
    0.9611   -0.8682   -0.0554 C   0  0  2  0  0  0  0  0  0  0  0  0
    1.1267   -1.8538   -1.0367 O   0  0  0  0  0  0  0  0  0  0  0  0
   -0.4175   -0.3095   -0.0749 C   0  0  0  0  0  0  0  0  0  0  0  0
   -1.0955   -0.1308    1.1129 C   0  0  0  0  0  0  0  0  0  0  0  0
   -2.3722    0.3913    1.0369 C   0  0  0  0  0  0  0  0  0  0  0  0
   -3.1275    0.6041    2.1894 O   0  0  0  0  0  0  0  0  0  0  0  0
   -2.9149    0.7102   -0.2061 C   0  0  0  0  0  0  0  0  0  0  0  0
   -4.2004    1.2372   -0.2999 O   0  0  0  0  0  0  0  0  0  0  0  0
   -2.2071    0.5197   -1.3973 C   0  0  0  0  0  0  0  0  0  0  0  0
   -0.9162   -0.0076   -1.3272 C   0  0  0  0  0  0  0  0  0  0  0  0
    3.2020   -1.3495    0.7222 H   0  0  0  0  0  0  0  0  0  0  0  0
    4.1382    0.1654    0.3419 H   0  0  0  0  0  0  0  0  0  0  0  0
    3.6459   -1.0166   -0.9698 H   0  0  0  0  0  0  0  0  0  0  0  0
    2.0254    0.6255   -1.2493 H   0  0  0  0  0  0  0  0  0  0  0  0
    1.9760    0.8577    1.7013 H   0  0  0  0  0  0  0  0  0  0  0  0
    2.7967    1.8342    0.5997 H   0  0  0  0  0  0  0  0  0  0  0  0
    1.1764   -1.3572    0.9365 H   0  0  0  0  0  0  0  0  0  0  0  0
    1.5010   -1.4012   -1.8341 H   0  0  0  0  0  0  0  0  0  0  0  0
   -0.6433   -0.3890    2.0549 H   0  0  0  0  0  0  0  0  0  0  0  0
   -3.9250   -0.0035    2.3182 H   0  0  0  0  0  0  0  0  0  0  0  0
   -4.9937    0.6477   -0.4664 H   0  0  0  0  0  0  0  0  0  0  0  0
   -2.6877    0.7888   -2.3312 H   0  0  0  0  0  0  0  0  0  0  0  0
   -0.3876   -0.1480   -2.2403 H   0  0  0  0  0  0  0  0  0  0  0  0
  1  2  1  0
  2  3  1  0
  2  4  1  0
  4  5  1  0
  4  6  1  0
  6  7  2  0
  7  8  1  0
  8  9  1  0
  8 10  2  0
 10 11  1  0
 10 12  1  0
 12 13  2  0
 13  6  1  0
  1 14  1  0
  1 15  1  0
  1 16  1  0
  2 17  1  6
  3 18  1  0
  3 19  1  0
  4 20  1  1
  5 21  1  0
  7 22  1  0
  9 23  1  0
 11 24  1  0
 12 25  1  0
 13 26  1  0
M  END
$$$$
