
     RDKit          3D

 54 58  0  0  0  0  0  0  0  0999 V2000
    6.5410   -0.3290   -2.4423 C   0  0  0  0  0  0  0  0  0  0  0  0
    5.3490    0.1096   -1.6341 C   0  0  0  0  0  0  0  0  0  0  0  0
    5.1058   -0.8608   -0.4591 C   0  0  1  0  0  0  0  0  0  0  0  0
    4.8730   -2.1131   -1.0309 O   0  0  0  0  0  0  0  0  0  0  0  0
    6.3040   -0.9207    0.3963 C   0  0  0  0  0  0  0  0  0  0  0  0
    7.4311   -1.1730   -0.1320 O   0  0  0  0  0  0  0  0  0  0  0  0
    6.1771   -0.6986    1.7559 O   0  0  0  0  0  0  0  0  0  0  0  0
    5.3425    0.3720    2.2400 C   0  0  0  0  0  0  0  0  0  0  0  0
    4.0329    0.1841    1.5899 C   0  0  0  0  0  0  0  0  0  0  0  0
    3.9641   -0.3880    0.3512 C   0  0  0  0  0  0  0  0  0  0  0  0
    2.6916   -0.5234   -0.1896 C   0  0  0  0  0  0  0  0  0  0  0  0
    1.5722   -0.0810    0.5348 C   0  0  0  0  0  0  0  0  0  0  0  0
    1.6694    0.4746    1.7437 N   0  0  0  0  0  0  0  0  0  0  0  0
    2.9209    0.6119    2.2853 C   0  0  0  0  0  0  0  0  0  0  0  0
    2.9723    1.1342    3.4150 O   0  0  0  0  0  0  0  0  0  0  0  0
    0.3613    0.8013    2.2042 C   0  0  0  0  0  0  0  0  0  0  0  0
   -0.5385    0.4197    1.1066 C   0  0  0  0  0  0  0  0  0  0  0  0
   -1.9289    0.5151    0.9300 C   0  0  0  0  0  0  0  0  0  0  0  0
   -2.5294    0.0644   -0.2236 C   0  0  0  0  0  0  0  0  0  0  0  0
   -3.9271    0.1870   -0.3827 C   0  0  0  0  0  0  0  0  0  0  0  0
   -4.7066    0.8019    0.7198 C   0  0  0  0  0  0  0  0  0  0  0  0
   -6.1296    0.5599    0.4655 N   0  0  0  0  0  0  0  0  0  0  0  0
   -6.9231    1.4361    1.3674 C   0  0  0  0  0  0  0  0  0  0  0  0
   -6.4372   -0.8311    0.8559 C   0  0  0  0  0  0  0  0  0  0  0  0
   -4.5108   -0.2510   -1.5419 C   0  0  0  0  0  0  0  0  0  0  0  0
   -5.8961   -0.1388   -1.7288 O   0  0  0  0  0  0  0  0  0  0  0  0
   -3.7474   -0.8149   -2.5584 C   0  0  0  0  0  0  0  0  0  0  0  0
   -2.4004   -0.9206   -2.3743 C   0  0  0  0  0  0  0  0  0  0  0  0
   -1.7558   -0.4909   -1.2209 C   0  0  0  0  0  0  0  0  0  0  0  0
   -0.4234   -0.5782   -1.0412 N   0  0  0  0  0  0  0  0  0  0  0  0
    0.1766   -0.1404    0.0795 C   0  0  0  0  0  0  0  0  0  0  0  0
    6.6704   -1.4178   -2.4476 H   0  0  0  0  0  0  0  0  0  0  0  0
    6.4509    0.0117   -3.5105 H   0  0  0  0  0  0  0  0  0  0  0  0
    7.4897    0.1486   -2.0564 H   0  0  0  0  0  0  0  0  0  0  0  0
    4.4704    0.0838   -2.3129 H   0  0  0  0  0  0  0  0  0  0  0  0
    5.4265    1.1515   -1.2786 H   0  0  0  0  0  0  0  0  0  0  0  0
    4.4021   -1.9562   -1.9017 H   0  0  0  0  0  0  0  0  0  0  0  0
    5.2768    0.2594    3.3595 H   0  0  0  0  0  0  0  0  0  0  0  0
    5.7974    1.3530    2.0656 H   0  0  0  0  0  0  0  0  0  0  0  0
    2.5922   -0.9664   -1.1520 H   0  0  0  0  0  0  0  0  0  0  0  0
    0.2367    1.8641    2.5034 H   0  0  0  0  0  0  0  0  0  0  0  0
    0.1393    0.0997    3.0529 H   0  0  0  0  0  0  0  0  0  0  0  0
   -2.5117    0.9576    1.7347 H   0  0  0  0  0  0  0  0  0  0  0  0
   -4.4847    1.8625    0.7785 H   0  0  0  0  0  0  0  0  0  0  0  0
   -4.4263    0.3402    1.7105 H   0  0  0  0  0  0  0  0  0  0  0  0
   -6.2370    2.2056    1.7230 H   0  0  0  0  0  0  0  0  0  0  0  0
   -7.3799    0.8141    2.1583 H   0  0  0  0  0  0  0  0  0  0  0  0
   -7.6968    1.9548    0.7355 H   0  0  0  0  0  0  0  0  0  0  0  0
   -6.7182   -0.8612    1.9354 H   0  0  0  0  0  0  0  0  0  0  0  0
   -5.5429   -1.4214    0.6696 H   0  0  0  0  0  0  0  0  0  0  0  0
   -7.3159   -1.1542    0.3051 H   0  0  0  0  0  0  0  0  0  0  0  0
   -6.2244    0.7370   -2.1500 H   0  0  0  0  0  0  0  0  0  0  0  0
   -4.2726   -1.1381   -3.4417 H   0  0  0  0  0  0  0  0  0  0  0  0
   -1.7728   -1.3466   -3.1281 H   0  0  0  0  0  0  0  0  0  0  0  0
  1  2  1  0
  2  3  1  0
  3  4  1  6
  3  5  1  0
  5  6  2  0
  5  7  1  0
  7  8  1  0
  8  9  1  0
  9 10  2  0
 10 11  1  0
 11 12  2  0
 12 13  1  0
 13 14  1  0
 14 15  2  0
 13 16  1  0
 16 17  1  0
 17 18  2  0
 18 19  1  0
 19 20  2  0
 20 21  1  0
 21 22  1  0
 22 23  1  0
 22 24  1  0
 20 25  1  0
 25 26  1  0
 25 27  2  0
 27 28  1  0
 28 29  2  0
 29 30  1  0
 30 31  2  0
 10  3  1  0
 31 12  1  0
 14  9  1  0
 31 17  1  0
 29 19  1  0
  1 32  1  0
  1 33  1  0
  1 34  1  0
  2 35  1  0
  2 36  1  0
  4 37  1  0
  8 38  1  0
  8 39  1  0
 11 40  1  0
 16 41  1  0
 16 42  1  0
 18 43  1  0
 21 44  1  0
 21 45  1  0
 23 46  1  0
 23 47  1  0
 23 48  1  0
 24 49  1  0
 24 50  1  0
 24 51  1  0
 26 52  1  0
 27 53  1  0
 28 54  1  0
M  END
$$$$
