@<TRIPOS>MOLECULE
*****
 54 58 0 0 0
SMALL
GASTEIGER

@<TRIPOS>ATOM
      1 C           6.5410   -0.3290   -2.4423 C.3     1  UNL1       -0.0618
      2 C           5.3490    0.1096   -1.6341 C.3     1  UNL1       -0.0121
      3 C           5.1058   -0.8608   -0.4591 C.3     1  UNL1        0.1877
      4 O           4.8730   -2.1131   -1.0309 O.3     1  UNL1       -0.3732
      5 C           6.3040   -0.9207    0.3963 C.2     1  UNL1        0.3441
      6 O           7.4311   -1.1730   -0.1320 O.2     1  UNL1       -0.2472
      7 O           6.1771   -0.6986    1.7559 O.3     1  UNL1       -0.4575
      8 C           5.3425    0.3720    2.2400 C.3     1  UNL1        0.1230
      9 C           4.0329    0.1841    1.5899 C.ar    1  UNL1        0.0606
     10 C           3.9641   -0.3880    0.3512 C.ar    1  UNL1        0.0082
     11 C           2.6916   -0.5234   -0.1896 C.ar    1  UNL1       -0.0290
     12 C           1.5722   -0.0810    0.5348 C.ar    1  UNL1        0.0713
     13 N           1.6694    0.4746    1.7437 N.ar    1  UNL1       -0.3019
     14 C           2.9209    0.6119    2.2853 C.ar    1  UNL1        0.2589
     15 O           2.9723    1.1342    3.4150 O.2     1  UNL1       -0.2672
     16 C           0.3613    0.8013    2.2042 C.3     1  UNL1        0.0539
     17 C          -0.5385    0.4197    1.1066 C.ar    1  UNL1        0.0003
     18 C          -1.9289    0.5151    0.9300 C.ar    1  UNL1       -0.0452
     19 C          -2.5294    0.0644   -0.2236 C.ar    1  UNL1        0.0086
     20 C          -3.9271    0.1870   -0.3827 C.ar    1  UNL1        0.0171
     21 C          -4.7066    0.8019    0.7198 C.3     1  UNL1        0.0275
     22 N          -6.1296    0.5599    0.4655 N.3     1  UNL1       -0.3040
     23 C          -6.9231    1.4361    1.3674 C.3     1  UNL1       -0.0127
     24 C          -6.4372   -0.8311    0.8559 C.3     1  UNL1       -0.0127
     25 C          -4.5108   -0.2510   -1.5419 C.ar    1  UNL1        0.1219
     26 O          -5.8961   -0.1388   -1.7288 O.3     1  UNL1       -0.5064
     27 C          -3.7474   -0.8149   -2.5584 C.ar    1  UNL1       -0.0178
     28 C          -2.4004   -0.9206   -2.3743 C.ar    1  UNL1       -0.0323
     29 C          -1.7558   -0.4909   -1.2209 C.ar    1  UNL1        0.0723
     30 N          -0.4234   -0.5782   -1.0412 N.ar    1  UNL1       -0.2449
     31 C           0.1766   -0.1404    0.0795 C.ar    1  UNL1        0.0929
     32 H           6.6704   -1.4178   -2.4476 H       1  UNL1        0.0231
     33 H           6.4509    0.0117   -3.5105 H       1  UNL1        0.0231
     34 H           7.4897    0.1486   -2.0564 H       1  UNL1        0.0231
     35 H           4.4704    0.0838   -2.3129 H       1  UNL1        0.0299
     36 H           5.4265    1.1515   -1.2786 H       1  UNL1        0.0299
     37 H           4.4021   -1.9562   -1.9017 H       1  UNL1        0.2113
     38 H           5.2768    0.2594    3.3595 H       1  UNL1        0.0750
     39 H           5.7974    1.3530    2.0656 H       1  UNL1        0.0750
     40 H           2.5922   -0.9664   -1.1520 H       1  UNL1        0.0643
     41 H           0.2367    1.8641    2.5034 H       1  UNL1        0.0543
     42 H           0.1393    0.0997    3.0529 H       1  UNL1        0.0543
     43 H          -2.5117    0.9576    1.7347 H       1  UNL1        0.0628
     44 H          -4.4847    1.8625    0.7785 H       1  UNL1        0.0477
     45 H          -4.4263    0.3402    1.7105 H       1  UNL1        0.0477
     46 H          -6.2370    2.2056    1.7230 H       1  UNL1        0.0391
     47 H          -7.3799    0.8141    2.1583 H       1  UNL1        0.0391
     48 H          -7.6968    1.9548    0.7355 H       1  UNL1        0.0391
     49 H          -6.7182   -0.8612    1.9354 H       1  UNL1        0.0391
     50 H          -5.5429   -1.4214    0.6696 H       1  UNL1        0.0391
     51 H          -7.3159   -1.1542    0.3051 H       1  UNL1        0.0391
     52 H          -6.2244    0.7370   -2.1500 H       1  UNL1        0.2921
     53 H          -4.2726   -1.1381   -3.4417 H       1  UNL1        0.0655
     54 H          -1.7728   -1.3466   -3.1281 H       1  UNL1        0.0640
@<TRIPOS>BOND
     1     1     2    1
     2     2     3    1
     3     3     4    1
     4     3     5    1
     5     5     6    2
     6     5     7    1
     7     7     8    1
     8     8     9    1
     9     9    10   ar
    10    10    11   ar
    11    11    12   ar
    12    12    13   ar
    13    13    14   ar
    14    14    15    2
    15    13    16    1
    16    16    17    1
    17    17    18   ar
    18    18    19   ar
    19    19    20   ar
    20    20    21    1
    21    21    22    1
    22    22    23    1
    23    22    24    1
    24    20    25   ar
    25    25    26    1
    26    25    27   ar
    27    27    28   ar
    28    28    29   ar
    29    29    30   ar
    30    30    31   ar
    31    10     3    1
    32    31    12    1
    33    14     9   ar
    34    31    17   ar
    35    29    19   ar
    36     1    32    1
    37     1    33    1
    38     1    34    1
    39     2    35    1
    40     2    36    1
    41     4    37    1
    42     8    38    1
    43     8    39    1
    44    11    40    1
    45    16    41    1
    46    16    42    1
    47    18    43    1
    48    21    44    1
    49    21    45    1
    50    23    46    1
    51    23    47    1
    52    23    48    1
    53    24    49    1
    54    24    50    1
    55    24    51    1
    56    26    52    1
    57    27    53    1
    58    28    54    1
