
     RDKit          3D

 40 41  0  0  0  0  0  0  0  0999 V2000
    2.9086    3.5520   -0.6180 C   0  0  0  0  0  0  0  0  0  0  0  0
    3.6779    2.2585   -0.6500 C   0  0  0  0  0  0  0  0  0  0  0  0
    5.0455    2.4938   -0.0591 C   0  0  0  0  0  0  0  0  0  0  0  0
    3.0084    1.1750    0.1656 C   0  0  0  0  0  0  0  0  0  0  0  0
    1.6897    0.8681   -0.2952 N   0  0  0  0  0  0  0  0  0  0  0  0
    0.9155   -0.1193    0.3552 C   0  0  0  0  0  0  0  0  0  0  0  0
    1.3560   -0.8157    1.4210 N   0  0  0  0  0  0  0  0  0  0  0  0
    0.6730   -1.7488    2.0659 C   0  0  0  0  0  0  0  0  0  0  0  0
    1.2125   -2.4627    3.2132 C   0  0  0  0  0  0  0  0  0  0  0  0
    1.6447   -3.0136    4.1366 N   0  0  0  0  0  0  0  0  0  0  0  0
   -0.5740   -2.0537    1.6470 N   0  0  0  0  0  0  0  0  0  0  0  0
   -1.1078   -1.4082    0.5819 C   0  0  0  0  0  0  0  0  0  0  0  0
   -2.4395   -1.7733    0.1802 N   0  0  0  0  0  0  0  0  0  0  0  0
   -2.7029   -2.2989   -1.1462 C   0  0  0  0  0  0  0  0  0  0  0  0
   -3.9231   -1.5756   -1.6722 C   0  0  0  0  0  0  0  0  0  0  0  0
   -4.9865   -1.9068   -0.8257 O   0  0  0  0  0  0  0  0  0  0  0  0
   -4.8457   -1.3114    0.4236 C   0  0  0  0  0  0  0  0  0  0  0  0
   -3.5455   -1.6275    1.0825 C   0  0  0  0  0  0  0  0  0  0  0  0
   -0.3768   -0.4396   -0.0739 C   0  0  0  0  0  0  0  0  0  0  0  0
   -0.9410    0.2364   -1.1920 N   0  0  0  0  0  0  0  0  0  0  0  0
    2.9498    4.0544    0.3601 H   0  0  0  0  0  0  0  0  0  0  0  0
    1.8226    3.2971   -0.7798 H   0  0  0  0  0  0  0  0  0  0  0  0
    3.1854    4.2076   -1.4651 H   0  0  0  0  0  0  0  0  0  0  0  0
    3.8203    1.9543   -1.7064 H   0  0  0  0  0  0  0  0  0  0  0  0
    5.1951    3.5801    0.1065 H   0  0  0  0  0  0  0  0  0  0  0  0
    5.8455    2.2083   -0.7952 H   0  0  0  0  0  0  0  0  0  0  0  0
    5.1862    1.9220    0.8902 H   0  0  0  0  0  0  0  0  0  0  0  0
    3.0455    1.4181    1.2408 H   0  0  0  0  0  0  0  0  0  0  0  0
    3.6397    0.2514    0.0187 H   0  0  0  0  0  0  0  0  0  0  0  0
    1.2810    1.3591   -1.1072 H   0  0  0  0  0  0  0  0  0  0  0  0
   -1.8323   -2.2013   -1.8167 H   0  0  0  0  0  0  0  0  0  0  0  0
   -3.0065   -3.3658   -1.0016 H   0  0  0  0  0  0  0  0  0  0  0  0
   -3.7394   -0.4914   -1.6927 H   0  0  0  0  0  0  0  0  0  0  0  0
   -4.1847   -1.9300   -2.6885 H   0  0  0  0  0  0  0  0  0  0  0  0
   -5.0022   -0.1961    0.3516 H   0  0  0  0  0  0  0  0  0  0  0  0
   -5.6674   -1.6937    1.0640 H   0  0  0  0  0  0  0  0  0  0  0  0
   -3.6150   -2.5673    1.6911 H   0  0  0  0  0  0  0  0  0  0  0  0
   -3.3302   -0.8015    1.8189 H   0  0  0  0  0  0  0  0  0  0  0  0
   -1.8054    0.7924   -1.0864 H   0  0  0  0  0  0  0  0  0  0  0  0
   -0.4765    0.1736   -2.1424 H   0  0  0  0  0  0  0  0  0  0  0  0
  1  2  1  0
  2  3  1  0
  2  4  1  0
  4  5  1  0
  5  6  1  0
  6  7  2  0
  7  8  1  0
  8  9  1  0
  9 10  3  0
  8 11  2  0
 11 12  1  0
 12 13  1  0
 13 14  1  0
 14 15  1  0
 15 16  1  0
 16 17  1  0
 17 18  1  0
 12 19  2  0
 19 20  1  0
 19  6  1  0
 18 13  1  0
  1 21  1  0
  1 22  1  0
  1 23  1  0
  2 24  1  0
  3 25  1  0
  3 26  1  0
  3 27  1  0
  4 28  1  0
  4 29  1  0
  5 30  1  0
 14 31  1  0
 14 32  1  0
 15 33  1  0
 15 34  1  0
 17 35  1  0
 17 36  1  0
 18 37  1  0
 18 38  1  0
 20 39  1  0
 20 40  1  0
M  END
$$$$
