@<TRIPOS>MOLECULE
*****
 40 41 0 0 0
SMALL
GASTEIGER

@<TRIPOS>ATOM
      1 C           2.9086    3.5520   -0.6180 C.3     1  UNL1       -0.0612
      2 C           3.6779    2.2585   -0.6500 C.3     1  UNL1       -0.0312
      3 C           5.0455    2.4938   -0.0591 C.3     1  UNL1       -0.0612
      4 C           3.0084    1.1750    0.1656 C.3     1  UNL1        0.0128
      5 N           1.6897    0.8681   -0.2952 N.pl3   1  UNL1       -0.3272
      6 C           0.9155   -0.1193    0.3552 C.ar    1  UNL1        0.1460
      7 N           1.3560   -0.8157    1.4210 N.ar    1  UNL1       -0.2017
      8 C           0.6730   -1.7488    2.0659 C.ar    1  UNL1        0.2354
      9 C           1.2125   -2.4627    3.2132 C.1     1  UNL1        0.1400
     10 N           1.6447   -3.0136    4.1366 N.1     1  UNL1       -0.1876
     11 N          -0.5740   -2.0537    1.6470 N.ar    1  UNL1       -0.2015
     12 C          -1.1078   -1.4082    0.5819 C.ar    1  UNL1        0.1487
     13 N          -2.4395   -1.7733    0.1802 N.pl3   1  UNL1       -0.3092
     14 C          -2.7029   -2.2989   -1.1462 C.3     1  UNL1        0.0371
     15 C          -3.9231   -1.5756   -1.6722 C.3     1  UNL1        0.0634
     16 O          -4.9865   -1.9068   -0.8257 O.3     1  UNL1       -0.3767
     17 C          -4.8457   -1.3114    0.4236 C.3     1  UNL1        0.0634
     18 C          -3.5455   -1.6275    1.0825 C.3     1  UNL1        0.0371
     19 C          -0.3768   -0.4396   -0.0739 C.ar    1  UNL1        0.1054
     20 N          -0.9410    0.2364   -1.1920 N.pl3   1  UNL1       -0.3526
     21 H           2.9498    4.0544    0.3601 H       1  UNL1        0.0233
     22 H           1.8226    3.2971   -0.7798 H       1  UNL1        0.0233
     23 H           3.1854    4.2076   -1.4651 H       1  UNL1        0.0233
     24 H           3.8203    1.9543   -1.7064 H       1  UNL1        0.0310
     25 H           5.1951    3.5801    0.1065 H       1  UNL1        0.0233
     26 H           5.8455    2.2083   -0.7952 H       1  UNL1        0.0233
     27 H           5.1862    1.9220    0.8902 H       1  UNL1        0.0233
     28 H           3.0455    1.4181    1.2408 H       1  UNL1        0.0464
     29 H           3.6397    0.2514    0.0187 H       1  UNL1        0.0464
     30 H           1.2810    1.3591   -1.1072 H       1  UNL1        0.1475
     31 H          -1.8323   -2.2013   -1.8167 H       1  UNL1        0.0487
     32 H          -3.0065   -3.3658   -1.0016 H       1  UNL1        0.0487
     33 H          -3.7394   -0.4914   -1.6927 H       1  UNL1        0.0575
     34 H          -4.1847   -1.9300   -2.6885 H       1  UNL1        0.0575
     35 H          -5.0022   -0.1961    0.3516 H       1  UNL1        0.0575
     36 H          -5.6674   -1.6937    1.0640 H       1  UNL1        0.0575
     37 H          -3.6150   -2.5673    1.6911 H       1  UNL1        0.0487
     38 H          -3.3302   -0.8015    1.8189 H       1  UNL1        0.0487
     39 H          -1.8054    0.7924   -1.0864 H       1  UNL1        0.1425
     40 H          -0.4765    0.1736   -2.1424 H       1  UNL1        0.1425
@<TRIPOS>BOND
     1     1     2    1
     2     2     3    1
     3     2     4    1
     4     4     5    1
     5     5     6    1
     6     6     7   ar
     7     7     8   ar
     8     8     9    1
     9     9    10    3
    10     8    11   ar
    11    11    12   ar
    12    12    13    1
    13    13    14    1
    14    14    15    1
    15    15    16    1
    16    16    17    1
    17    17    18    1
    18    12    19   ar
    19    19    20    1
    20    19     6   ar
    21    18    13    1
    22     1    21    1
    23     1    22    1
    24     1    23    1
    25     2    24    1
    26     3    25    1
    27     3    26    1
    28     3    27    1
    29     4    28    1
    30     4    29    1
    31     5    30    1
    32    14    31    1
    33    14    32    1
    34    15    33    1
    35    15    34    1
    36    17    35    1
    37    17    36    1
    38    18    37    1
    39    18    38    1
    40    20    39    1
    41    20    40    1
