
     RDKit          3D

107110  0  0  0  0  0  0  0  0999 V2000
   -2.0170    2.6939    0.7665 C   0  0  0  0  0  0  0  0  0  0  0  0
   -1.0844    2.0814    1.4841 C   0  0  0  0  0  0  0  0  0  0  0  0
    0.2183    1.6966    0.9549 C   0  0  0  0  0  0  0  0  0  0  0  0
    0.5603    0.2093    0.9898 C   0  0  2  0  0  0  0  0  0  0  0  0
    1.8989    0.0295    0.4116 N   0  0  0  0  0  0  0  0  0  0  0  0
    3.0844    0.4588    1.0626 C   0  0  0  0  0  0  0  0  0  0  0  0
    2.9033    1.0253    2.1760 O   0  0  0  0  0  0  0  0  0  0  0  0
    4.4304    0.2638    0.4669 C   0  0  2  0  0  0  0  0  0  0  0  0
    4.8610   -1.1320    0.8588 C   0  0  0  0  0  0  0  0  0  0  0  0
    6.1874   -1.4901    0.3408 C   0  0  0  0  0  0  0  0  0  0  0  0
    7.2988   -1.1675    1.0827 C   0  0  0  0  0  0  0  0  0  0  0  0
    8.5822   -1.4737    0.6677 C   0  0  0  0  0  0  0  0  0  0  0  0
    8.7953   -2.1281   -0.5307 C   0  0  0  0  0  0  0  0  0  0  0  0
    7.6727   -2.4536   -1.2771 C   0  0  0  0  0  0  0  0  0  0  0  0
    6.3926   -2.1448   -0.8588 C   0  0  0  0  0  0  0  0  0  0  0  0
    5.3939    1.2540    0.8894 N   0  0  0  0  0  0  0  0  0  0  0  0
    6.1652    1.9498   -0.1030 C   0  0  0  0  0  0  0  0  0  0  0  0
    5.9362    1.6073   -1.2674 O   0  0  0  0  0  0  0  0  0  0  0  0
    7.1467    2.9838    0.1814 C   0  0  0  0  0  0  0  0  0  0  0  0
    8.0669    3.2981   -0.9517 C   0  0  0  0  0  0  0  0  0  0  0  0
    8.9596    2.2200   -1.3825 C   0  0  0  0  0  0  0  0  0  0  0  0
   10.1784    2.0059   -0.7201 C   0  0  0  0  0  0  0  0  0  0  0  0
   11.0248    1.0085   -1.1407 C   0  0  0  0  0  0  0  0  0  0  0  0
   10.7011    0.1985   -2.2152 C   0  0  0  0  0  0  0  0  0  0  0  0
    9.5354    0.4172   -2.8358 N   0  0  0  0  0  0  0  0  0  0  0  0
    8.6859    1.4006   -2.4340 C   0  0  0  0  0  0  0  0  0  0  0  0
   -0.4305   -0.6379    0.3797 C   0  0  0  0  0  0  0  0  0  0  0  0
   -0.1118   -1.2783   -0.6957 O   0  0  0  0  0  0  0  0  0  0  0  0
   -1.7674   -0.8302    0.8737 N   0  0  0  0  0  0  0  0  0  0  0  0
   -2.6856   -1.6559    0.1682 C   0  0  1  0  0  0  0  0  0  0  0  0
   -3.1861   -2.8602    0.8559 C   0  0  0  0  0  0  0  0  0  0  0  0
   -2.2511   -3.9167    1.2762 C   0  0  0  0  0  0  0  0  0  0  0  0
   -1.1892   -3.5384    2.2599 C   0  0  0  0  0  0  0  0  0  0  0  0
    0.1395   -4.2305    1.9210 C   0  0  0  0  0  0  0  0  0  0  0  0
   -0.1201   -5.7139    1.7509 C   0  0  0  0  0  0  0  0  0  0  0  0
   -1.1462   -6.0002    0.6891 C   0  0  0  0  0  0  0  0  0  0  0  0
   -1.6174   -4.6725    0.1224 C   0  0  0  0  0  0  0  0  0  0  0  0
   -3.8470   -0.8178   -0.3705 C   0  0  0  0  0  0  0  0  0  0  0  0
   -4.6494   -1.7042   -1.1278 O   0  0  0  0  0  0  0  0  0  0  0  0
   -4.7643   -0.2673    0.6688 C   0  0  0  0  0  0  0  0  0  0  0  0
   -5.4443   -1.1983    1.4173 F   0  0  0  0  0  0  0  0  0  0  0  0
   -4.0642    0.4868    1.6240 F   0  0  0  0  0  0  0  0  0  0  0  0
   -5.7447    0.6313    0.0243 C   0  0  0  0  0  0  0  0  0  0  0  0
   -5.6509    0.9057   -1.2188 O   0  0  0  0  0  0  0  0  0  0  0  0
   -6.8425    1.2509    0.7139 N   0  0  0  0  0  0  0  0  0  0  0  0
   -7.7643    2.1303    0.0855 C   0  0  0  0  0  0  0  0  0  0  0  0
   -8.5116    1.5476   -1.0582 C   0  0  0  0  0  0  0  0  0  0  0  0
   -9.4155    2.4774   -1.6850 N   0  0  0  0  0  0  0  0  0  0  0  0
   -8.7564    3.5438   -2.3515 C   0  0  0  0  0  0  0  0  0  0  0  0
   -9.4117    4.8775   -2.3013 C   0  0  0  0  0  0  0  0  0  0  0  0
  -10.2676    5.0758   -1.2269 O   0  0  0  0  0  0  0  0  0  0  0  0
  -11.2397    4.0652   -1.2929 C   0  0  0  0  0  0  0  0  0  0  0  0
  -10.5306    2.7950   -0.8716 C   0  0  0  0  0  0  0  0  0  0  0  0
   -1.8092    2.9218   -0.2608 H   0  0  0  0  0  0  0  0  0  0  0  0
   -2.9524    2.9552    1.1996 H   0  0  0  0  0  0  0  0  0  0  0  0
   -1.3165    1.8667    2.5193 H   0  0  0  0  0  0  0  0  0  0  0  0
    0.2884    2.0493   -0.1002 H   0  0  0  0  0  0  0  0  0  0  0  0
    0.9872    2.2905    1.4978 H   0  0  0  0  0  0  0  0  0  0  0  0
    0.6751    0.0189    2.0477 H   0  0  0  0  0  0  0  0  0  0  0  0
    2.0087   -0.4225   -0.5174 H   0  0  0  0  0  0  0  0  0  0  0  0
    4.3426    0.2831   -0.6171 H   0  0  0  0  0  0  0  0  0  0  0  0
    4.7592   -1.2801    1.9685 H   0  0  0  0  0  0  0  0  0  0  0  0
    4.1226   -1.8211    0.4058 H   0  0  0  0  0  0  0  0  0  0  0  0
    7.1904   -0.6465    2.0476 H   0  0  0  0  0  0  0  0  0  0  0  0
    9.4632   -1.2209    1.2450 H   0  0  0  0  0  0  0  0  0  0  0  0
    9.8033   -2.3839   -0.8808 H   0  0  0  0  0  0  0  0  0  0  0  0
    7.8351   -2.9762   -2.2313 H   0  0  0  0  0  0  0  0  0  0  0  0
    5.5306   -2.3954   -1.4325 H   0  0  0  0  0  0  0  0  0  0  0  0
    5.5269    1.4568    1.8683 H   0  0  0  0  0  0  0  0  0  0  0  0
    6.6475    3.9579    0.4505 H   0  0  0  0  0  0  0  0  0  0  0  0
    7.7797    2.6455    1.0529 H   0  0  0  0  0  0  0  0  0  0  0  0
    8.6051    4.2611   -0.7745 H   0  0  0  0  0  0  0  0  0  0  0  0
    7.3906    3.5222   -1.8398 H   0  0  0  0  0  0  0  0  0  0  0  0
   10.4096    2.6379    0.1007 H   0  0  0  0  0  0  0  0  0  0  0  0
   11.9634    0.8739   -0.5952 H   0  0  0  0  0  0  0  0  0  0  0  0
   11.4022   -0.5791   -2.5079 H   0  0  0  0  0  0  0  0  0  0  0  0
    7.7954    1.4717   -3.0539 H   0  0  0  0  0  0  0  0  0  0  0  0
   -1.9579   -0.3155    1.7658 H   0  0  0  0  0  0  0  0  0  0  0  0
   -2.1602   -1.9779   -0.8023 H   0  0  0  0  0  0  0  0  0  0  0  0
   -3.6786   -2.4902    1.8186 H   0  0  0  0  0  0  0  0  0  0  0  0
   -4.0265   -3.3015    0.2816 H   0  0  0  0  0  0  0  0  0  0  0  0
   -2.8719   -4.7214    1.7876 H   0  0  0  0  0  0  0  0  0  0  0  0
   -1.4222   -3.9479    3.2982 H   0  0  0  0  0  0  0  0  0  0  0  0
   -1.0465   -2.4726    2.4339 H   0  0  0  0  0  0  0  0  0  0  0  0
    0.6680   -3.7655    1.0911 H   0  0  0  0  0  0  0  0  0  0  0  0
    0.7775   -4.1230    2.8207 H   0  0  0  0  0  0  0  0  0  0  0  0
    0.8681   -6.1937    1.5400 H   0  0  0  0  0  0  0  0  0  0  0  0
   -0.4713   -6.0942    2.7282 H   0  0  0  0  0  0  0  0  0  0  0  0
   -0.6855   -6.5850   -0.1510 H   0  0  0  0  0  0  0  0  0  0  0  0
   -2.0170   -6.5505    1.1228 H   0  0  0  0  0  0  0  0  0  0  0  0
   -2.3689   -4.8494   -0.6638 H   0  0  0  0  0  0  0  0  0  0  0  0
   -0.7492   -4.1796   -0.3040 H   0  0  0  0  0  0  0  0  0  0  0  0
   -3.4926   -0.0428   -1.0300 H   0  0  0  0  0  0  0  0  0  0  0  0
   -4.1050   -2.1714   -1.8315 H   0  0  0  0  0  0  0  0  0  0  0  0
   -6.8953    0.9890    1.7381 H   0  0  0  0  0  0  0  0  0  0  0  0
   -8.5313    2.4054    0.8637 H   0  0  0  0  0  0  0  0  0  0  0  0
   -7.2596    3.0919   -0.1366 H   0  0  0  0  0  0  0  0  0  0  0  0
   -7.8861    1.0675   -1.8297 H   0  0  0  0  0  0  0  0  0  0  0  0
   -9.1672    0.7185   -0.6645 H   0  0  0  0  0  0  0  0  0  0  0  0
   -8.6952    3.2642   -3.4452 H   0  0  0  0  0  0  0  0  0  0  0  0
   -7.6740    3.6393   -2.0617 H   0  0  0  0  0  0  0  0  0  0  0  0
   -9.9554    5.1438   -3.2478 H   0  0  0  0  0  0  0  0  0  0  0  0
   -8.6186    5.6589   -2.1948 H   0  0  0  0  0  0  0  0  0  0  0  0
  -12.0529    4.2511   -0.5801 H   0  0  0  0  0  0  0  0  0  0  0  0
  -11.6028    3.9761   -2.3488 H   0  0  0  0  0  0  0  0  0  0  0  0
  -10.3846    2.8342    0.2039 H   0  0  0  0  0  0  0  0  0  0  0  0
  -11.2933    1.9780   -1.0417 H   0  0  0  0  0  0  0  0  0  0  0  0
  1  2  2  3
  2  3  1  0
  3  4  1  0
  4  5  1  0
  5  6  1  0
  6  7  2  0
  6  8  1  0
  8  9  1  0
  9 10  1  0
 10 11  2  0
 11 12  1  0
 12 13  2  0
 13 14  1  0
 14 15  2  0
  8 16  1  0
 16 17  1  0
 17 18  2  0
 17 19  1  0
 19 20  1  0
 20 21  1  0
 21 22  2  0
 22 23  1  0
 23 24  2  0
 24 25  1  0
 25 26  2  0
  4 27  1  0
 27 28  2  0
 27 29  1  0
 29 30  1  0
 30 31  1  0
 31 32  1  0
 32 33  1  0
 33 34  1  0
 34 35  1  0
 35 36  1  0
 36 37  1  0
 30 38  1  0
 38 39  1  0
 38 40  1  0
 40 41  1  0
 40 42  1  0
 40 43  1  0
 43 44  2  0
 43 45  1  0
 45 46  1  0
 46 47  1  0
 47 48  1  0
 48 49  1  0
 49 50  1  0
 50 51  1  0
 51 52  1  0
 52 53  1  0
 15 10  1  0
 26 21  1  0
 37 32  1  0
 53 48  1  0
  1 54  1  0
  1 55  1  0
  2 56  1  0
  3 57  1  0
  3 58  1  0
  4 59  1  1
  5 60  1  0
  8 61  1  6
  9 62  1  0
  9 63  1  0
 11 64  1  0
 12 65  1  0
 13 66  1  0
 14 67  1  0
 15 68  1  0
 16 69  1  0
 19 70  1  0
 19 71  1  0
 20 72  1  0
 20 73  1  0
 22 74  1  0
 23 75  1  0
 24 76  1  0
 26 77  1  0
 29 78  1  0
 30 79  1  6
 31 80  1  0
 31 81  1  0
 32 82  1  0
 33 83  1  0
 33 84  1  0
 34 85  1  0
 34 86  1  0
 35 87  1  0
 35 88  1  0
 36 89  1  0
 36 90  1  0
 37 91  1  0
 37 92  1  0
 38 93  1  0
 39 94  1  0
 45 95  1  0
 46 96  1  0
 46 97  1  0
 47 98  1  0
 47 99  1  0
 49100  1  0
 49101  1  0
 50102  1  0
 50103  1  0
 52104  1  0
 52105  1  0
 53106  1  0
 53107  1  0
M  END
$$$$
