@<TRIPOS>MOLECULE
*****
 107 110 0 0 0
SMALL
GASTEIGER

@<TRIPOS>ATOM
      1 C          -2.0170    2.6939    0.7665 C.2     1  UNL1       -0.1026
      2 C          -1.0844    2.0814    1.4841 C.2     1  UNL1       -0.0889
      3 C           0.2183    1.6966    0.9549 C.3     1  UNL1       -0.0080
      4 C           0.5603    0.2093    0.9898 C.3     1  UNL1        0.1028
      5 N           1.8989    0.0295    0.4116 N.am    1  UNL1       -0.3022
      6 C           3.0844    0.4588    1.0626 C.2     1  UNL1        0.2343
      7 O           2.9033    1.0253    2.1760 O.2     1  UNL1       -0.2738
      8 C           4.4304    0.2638    0.4669 C.3     1  UNL1        0.1033
      9 C           4.8610   -1.1320    0.8588 C.3     1  UNL1       -0.0007
     10 C           6.1874   -1.4901    0.3408 C.ar    1  UNL1       -0.0451
     11 C           7.2988   -1.1675    1.0827 C.ar    1  UNL1       -0.0585
     12 C           8.5822   -1.4737    0.6677 C.ar    1  UNL1       -0.0615
     13 C           8.7953   -2.1281   -0.5307 C.ar    1  UNL1       -0.0617
     14 C           7.6727   -2.4536   -1.2771 C.ar    1  UNL1       -0.0615
     15 C           6.3926   -2.1448   -0.8588 C.ar    1  UNL1       -0.0585
     16 N           5.3939    1.2540    0.8894 N.am    1  UNL1       -0.3037
     17 C           6.1652    1.9498   -0.1030 C.2     1  UNL1        0.2139
     18 O           5.9362    1.6073   -1.2674 O.2     1  UNL1       -0.2758
     19 C           7.1467    2.9838    0.1814 C.3     1  UNL1        0.0280
     20 C           8.0669    3.2981   -0.9517 C.3     1  UNL1       -0.0180
     21 C           8.9596    2.2200   -1.3825 C.ar    1  UNL1       -0.0288
     22 C          10.1784    2.0059   -0.7201 C.ar    1  UNL1       -0.0557
     23 C          11.0248    1.0085   -1.1407 C.ar    1  UNL1       -0.0433
     24 C          10.7011    0.1985   -2.2152 C.ar    1  UNL1        0.0276
     25 N           9.5354    0.4172   -2.8358 N.ar    1  UNL1       -0.2630
     26 C           8.6859    1.4006   -2.4340 C.ar    1  UNL1        0.0307
     27 C          -0.4305   -0.6379    0.3797 C.2     1  UNL1        0.2340
     28 O          -0.1118   -1.2783   -0.6957 O.2     1  UNL1       -0.2738
     29 N          -1.7674   -0.8302    0.8737 N.am    1  UNL1       -0.3082
     30 C          -2.6856   -1.6559    0.1682 C.3     1  UNL1        0.0555
     31 C          -3.1861   -2.8602    0.8559 C.3     1  UNL1       -0.0290
     32 C          -2.2511   -3.9167    1.2762 C.3     1  UNL1       -0.0393
     33 C          -1.1892   -3.5384    2.2599 C.3     1  UNL1       -0.0502
     34 C           0.1395   -4.2305    1.9210 C.3     1  UNL1       -0.0528
     35 C          -0.1201   -5.7139    1.7509 C.3     1  UNL1       -0.0530
     36 C          -1.1462   -6.0002    0.6891 C.3     1  UNL1       -0.0528
     37 C          -1.6174   -4.6725    0.1224 C.3     1  UNL1       -0.0502
     38 C          -3.8470   -0.8178   -0.3705 C.3     1  UNL1        0.1453
     39 O          -4.6494   -1.7042   -1.1278 O.3     1  UNL1       -0.3835
     40 C          -4.7643   -0.2673    0.6688 C.3     1  UNL1        0.3494
     41 F          -5.4443   -1.1983    1.4173 F       1  UNL1       -0.1924
     42 F          -4.0642    0.4868    1.6240 F       1  UNL1       -0.1924
     43 C          -5.7447    0.6313    0.0243 C.2     1  UNL1        0.2853
     44 O          -5.6509    0.9057   -1.2188 O.2     1  UNL1       -0.2692
     45 N          -6.8425    1.2509    0.7139 N.am    1  UNL1       -0.3091
     46 C          -7.7643    2.1303    0.0855 C.3     1  UNL1        0.0245
     47 C          -8.5116    1.5476   -1.0582 C.3     1  UNL1        0.0146
     48 N          -9.4155    2.4774   -1.6850 N.3     1  UNL1       -0.2965
     49 C          -8.7564    3.5438   -2.3515 C.3     1  UNL1        0.0225
     50 C          -9.4117    4.8775   -2.3013 C.3     1  UNL1        0.0604
     51 O         -10.2676    5.0758   -1.2269 O.3     1  UNL1       -0.3772
     52 C         -11.2397    4.0652   -1.2929 C.3     1  UNL1        0.0604
     53 C         -10.5306    2.7950   -0.8716 C.3     1  UNL1        0.0225
     54 H          -1.8092    2.9218   -0.2608 H       1  UNL1        0.0532
     55 H          -2.9524    2.9552    1.1996 H       1  UNL1        0.0532
     56 H          -1.3165    1.8667    2.5193 H       1  UNL1        0.0567
     57 H           0.2884    2.0493   -0.1002 H       1  UNL1        0.0330
     58 H           0.9872    2.2905    1.4978 H       1  UNL1        0.0330
     59 H           0.6751    0.0189    2.0477 H       1  UNL1        0.0598
     60 H           2.0087   -0.4225   -0.5174 H       1  UNL1        0.1495
     61 H           4.3426    0.2831   -0.6171 H       1  UNL1        0.0598
     62 H           4.7592   -1.2801    1.9685 H       1  UNL1        0.0336
     63 H           4.1226   -1.8211    0.4058 H       1  UNL1        0.0336
     64 H           7.1904   -0.6465    2.0476 H       1  UNL1        0.0620
     65 H           9.4632   -1.2209    1.2450 H       1  UNL1        0.0618
     66 H           9.8033   -2.3839   -0.8808 H       1  UNL1        0.0618
     67 H           7.8351   -2.9762   -2.2313 H       1  UNL1        0.0618
     68 H           5.5306   -2.3954   -1.4325 H       1  UNL1        0.0620
     69 H           5.5269    1.4568    1.8683 H       1  UNL1        0.1495
     70 H           6.6475    3.9579    0.4505 H       1  UNL1        0.0361
     71 H           7.7797    2.6455    1.0529 H       1  UNL1        0.0361
     72 H           8.6051    4.2611   -0.7745 H       1  UNL1        0.0318
     73 H           7.3906    3.5222   -1.8398 H       1  UNL1        0.0318
     74 H          10.4096    2.6379    0.1007 H       1  UNL1        0.0621
     75 H          11.9634    0.8739   -0.5952 H       1  UNL1        0.0633
     76 H          11.4022   -0.5791   -2.5079 H       1  UNL1        0.0829
     77 H           7.7954    1.4717   -3.0539 H       1  UNL1        0.0832
     78 H          -1.9579   -0.3155    1.7658 H       1  UNL1        0.1491
     79 H          -2.1602   -1.9779   -0.8023 H       1  UNL1        0.0526
     80 H          -3.6786   -2.4902    1.8186 H       1  UNL1        0.0287
     81 H          -4.0265   -3.3015    0.2816 H       1  UNL1        0.0287
     82 H          -2.8719   -4.7214    1.7876 H       1  UNL1        0.0301
     83 H          -1.4222   -3.9479    3.2982 H       1  UNL1        0.0268
     84 H          -1.0465   -2.4726    2.4339 H       1  UNL1        0.0268
     85 H           0.6680   -3.7655    1.0911 H       1  UNL1        0.0265
     86 H           0.7775   -4.1230    2.8207 H       1  UNL1        0.0265
     87 H           0.8681   -6.1937    1.5400 H       1  UNL1        0.0265
     88 H          -0.4713   -6.0942    2.7282 H       1  UNL1        0.0265
     89 H          -0.6855   -6.5850   -0.1510 H       1  UNL1        0.0265
     90 H          -2.0170   -6.5505    1.1228 H       1  UNL1        0.0265
     91 H          -2.3689   -4.8494   -0.6638 H       1  UNL1        0.0268
     92 H          -0.7492   -4.1796   -0.3040 H       1  UNL1        0.0268
     93 H          -3.4926   -0.0428   -1.0300 H       1  UNL1        0.0677
     94 H          -4.1050   -2.1714   -1.8315 H       1  UNL1        0.2101
     95 H          -6.8953    0.9890    1.7381 H       1  UNL1        0.1489
     96 H          -8.5313    2.4054    0.8637 H       1  UNL1        0.0474
     97 H          -7.2596    3.0919   -0.1366 H       1  UNL1        0.0474
     98 H          -7.8861    1.0675   -1.8297 H       1  UNL1        0.0442
     99 H          -9.1672    0.7185   -0.6645 H       1  UNL1        0.0442
    100 H          -8.6952    3.2642   -3.4452 H       1  UNL1        0.0449
    101 H          -7.6740    3.6393   -2.0617 H       1  UNL1        0.0449
    102 H          -9.9554    5.1438   -3.2478 H       1  UNL1        0.0572
    103 H          -8.6186    5.6589   -2.1948 H       1  UNL1        0.0572
    104 H         -12.0529    4.2511   -0.5801 H       1  UNL1        0.0572
    105 H         -11.6028    3.9761   -2.3488 H       1  UNL1        0.0572
    106 H         -10.3846    2.8342    0.2039 H       1  UNL1        0.0449
    107 H         -11.2933    1.9780   -1.0417 H       1  UNL1        0.0449
@<TRIPOS>BOND
     1     1     2    2
     2     2     3    1
     3     3     4    1
     4     4     5    1
     5     5     6   am
     6     6     7    2
     7     6     8    1
     8     8     9    1
     9     9    10    1
    10    10    11   ar
    11    11    12   ar
    12    12    13   ar
    13    13    14   ar
    14    14    15   ar
    15     8    16    1
    16    16    17   am
    17    17    18    2
    18    17    19    1
    19    19    20    1
    20    20    21    1
    21    21    22   ar
    22    22    23   ar
    23    23    24   ar
    24    24    25   ar
    25    25    26   ar
    26     4    27    1
    27    27    28    2
    28    27    29   am
    29    29    30    1
    30    30    31    1
    31    31    32    1
    32    32    33    1
    33    33    34    1
    34    34    35    1
    35    35    36    1
    36    36    37    1
    37    30    38    1
    38    38    39    1
    39    38    40    1
    40    40    41    1
    41    40    42    1
    42    40    43    1
    43    43    44    2
    44    43    45   am
    45    45    46    1
    46    46    47    1
    47    47    48    1
    48    48    49    1
    49    49    50    1
    50    50    51    1
    51    51    52    1
    52    52    53    1
    53    15    10   ar
    54    26    21   ar
    55    37    32    1
    56    53    48    1
    57     1    54    1
    58     1    55    1
    59     2    56    1
    60     3    57    1
    61     3    58    1
    62     4    59    1
    63     5    60    1
    64     8    61    1
    65     9    62    1
    66     9    63    1
    67    11    64    1
    68    12    65    1
    69    13    66    1
    70    14    67    1
    71    15    68    1
    72    16    69    1
    73    19    70    1
    74    19    71    1
    75    20    72    1
    76    20    73    1
    77    22    74    1
    78    23    75    1
    79    24    76    1
    80    26    77    1
    81    29    78    1
    82    30    79    1
    83    31    80    1
    84    31    81    1
    85    32    82    1
    86    33    83    1
    87    33    84    1
    88    34    85    1
    89    34    86    1
    90    35    87    1
    91    35    88    1
    92    36    89    1
    93    36    90    1
    94    37    91    1
    95    37    92    1
    96    38    93    1
    97    39    94    1
    98    45    95    1
    99    46    96    1
   100    46    97    1
   101    47    98    1
   102    47    99    1
   103    49   100    1
   104    49   101    1
   105    50   102    1
   106    50   103    1
   107    52   104    1
   108    52   105    1
   109    53   106    1
   110    53   107    1
