
     RDKit          3D

 31 31  0  0  0  0  0  0  0  0999 V2000
   -0.2660   -1.7440   -0.1495 C   0  0  0  0  0  0  0  0  0  0  0  0
   -0.6164   -0.2544   -0.2337 C   0  0  2  0  0  0  0  0  0  0  0  0
    0.4571    0.4758    0.5174 C   0  0  0  0  0  0  0  0  0  0  0  0
    1.8060    0.2402   -0.0597 C   0  0  0  0  0  0  0  0  0  0  0  0
    2.3258    1.0538   -1.0460 C   0  0  0  0  0  0  0  0  0  0  0  0
    3.5692    0.8989   -1.6311 C   0  0  0  0  0  0  0  0  0  0  0  0
    4.3404   -0.1675   -1.1744 C   0  0  0  0  0  0  0  0  0  0  0  0
    3.8640   -1.0073   -0.1909 C   0  0  0  0  0  0  0  0  0  0  0  0
    2.6184   -0.8155    0.3642 C   0  0  0  0  0  0  0  0  0  0  0  0
   -1.9282   -0.0226    0.3053 N   0  0  0  0  0  0  0  0  0  0  0  0
   -2.9559   -0.7625   -0.3961 C   0  0  0  0  0  0  0  0  0  0  0  0
   -2.3180    1.3554    0.3143 C   0  0  0  0  0  0  0  0  0  0  0  0
   -3.6899    1.4187    0.8778 C   0  0  0  0  0  0  0  0  0  0  0  0
   -4.8172    1.4791    1.3465 C   0  0  0  0  0  0  0  0  0  0  0  0
   -1.0584   -2.3783   -0.5468 H   0  0  0  0  0  0  0  0  0  0  0  0
   -0.0721   -2.0364    0.9013 H   0  0  0  0  0  0  0  0  0  0  0  0
    0.6348   -1.8804   -0.7787 H   0  0  0  0  0  0  0  0  0  0  0  0
   -0.6042    0.0774   -1.2804 H   0  0  0  0  0  0  0  0  0  0  0  0
    0.3927    0.2041    1.5850 H   0  0  0  0  0  0  0  0  0  0  0  0
    0.2369    1.5786    0.4625 H   0  0  0  0  0  0  0  0  0  0  0  0
    1.7199    1.8861   -1.4002 H   0  0  0  0  0  0  0  0  0  0  0  0
    3.9132    1.5765   -2.4015 H   0  0  0  0  0  0  0  0  0  0  0  0
    5.3238   -0.3408   -1.5943 H   0  0  0  0  0  0  0  0  0  0  0  0
    4.4847   -1.8416    0.1563 H   0  0  0  0  0  0  0  0  0  0  0  0
    2.2591   -1.4745    1.1277 H   0  0  0  0  0  0  0  0  0  0  0  0
   -3.0964   -1.7395    0.1235 H   0  0  0  0  0  0  0  0  0  0  0  0
   -3.9295   -0.2367   -0.2858 H   0  0  0  0  0  0  0  0  0  0  0  0
   -2.7585   -0.8688   -1.4753 H   0  0  0  0  0  0  0  0  0  0  0  0
   -1.6674    2.0023    0.9512 H   0  0  0  0  0  0  0  0  0  0  0  0
   -2.3873    1.7828   -0.7139 H   0  0  0  0  0  0  0  0  0  0  0  0
   -5.7804    1.5413    1.7630 H   0  0  0  0  0  0  0  0  0  0  0  0
  1  2  1  0
  2  3  1  0
  3  4  1  0
  4  5  2  0
  5  6  1  0
  6  7  2  0
  7  8  1  0
  8  9  2  0
  2 10  1  0
 10 11  1  0
 10 12  1  0
 12 13  1  0
 13 14  3  0
  9  4  1  0
  1 15  1  0
  1 16  1  0
  1 17  1  0
  2 18  1  6
  3 19  1  0
  3 20  1  0
  5 21  1  0
  6 22  1  0
  7 23  1  0
  8 24  1  0
  9 25  1  0
 11 26  1  0
 11 27  1  0
 11 28  1  0
 12 29  1  0
 12 30  1  0
 14 31  1  0
M  END
$$$$
