@<TRIPOS>MOLECULE
*****
 31 31 0 0 0
SMALL
GASTEIGER

@<TRIPOS>ATOM
      1 C          -0.2660   -1.7440   -0.1495 C.3     1  UNL1       -0.0492
      2 C          -0.6164   -0.2544   -0.2337 C.3     1  UNL1        0.0121
      3 C           0.4571    0.4758    0.5174 C.3     1  UNL1       -0.0122
      4 C           1.8060    0.2402   -0.0597 C.ar    1  UNL1       -0.0459
      5 C           2.3258    1.0538   -1.0460 C.ar    1  UNL1       -0.0585
      6 C           3.5692    0.8989   -1.6311 C.ar    1  UNL1       -0.0615
      7 C           4.3404   -0.1675   -1.1744 C.ar    1  UNL1       -0.0617
      8 C           3.8640   -1.0073   -0.1909 C.ar    1  UNL1       -0.0615
      9 C           2.6184   -0.8155    0.3642 C.ar    1  UNL1       -0.0585
     10 N          -1.9282   -0.0226    0.3053 N.3     1  UNL1       -0.2916
     11 C          -2.9559   -0.7625   -0.3961 C.3     1  UNL1       -0.0116
     12 C          -2.3180    1.3554    0.3143 C.3     1  UNL1        0.0606
     13 C          -3.6899    1.4187    0.8778 C.1     1  UNL1       -0.0900
     14 C          -4.8172    1.4791    1.3465 C.1     1  UNL1       -0.1179
     15 H          -1.0584   -2.3783   -0.5468 H       1  UNL1        0.0245
     16 H          -0.0721   -2.0364    0.9013 H       1  UNL1        0.0245
     17 H           0.6348   -1.8804   -0.7787 H       1  UNL1        0.0245
     18 H          -0.6042    0.0774   -1.2804 H       1  UNL1        0.0463
     19 H           0.3927    0.2041    1.5850 H       1  UNL1        0.0328
     20 H           0.2369    1.5786    0.4625 H       1  UNL1        0.0328
     21 H           1.7199    1.8861   -1.4002 H       1  UNL1        0.0620
     22 H           3.9132    1.5765   -2.4015 H       1  UNL1        0.0618
     23 H           5.3238   -0.3408   -1.5943 H       1  UNL1        0.0618
     24 H           4.4847   -1.8416    0.1563 H       1  UNL1        0.0618
     25 H           2.2591   -1.4745    1.1277 H       1  UNL1        0.0620
     26 H          -3.0964   -1.7395    0.1235 H       1  UNL1        0.0391
     27 H          -3.9295   -0.2367   -0.2858 H       1  UNL1        0.0391
     28 H          -2.7585   -0.8688   -1.4753 H       1  UNL1        0.0391
     29 H          -1.6674    2.0023    0.9512 H       1  UNL1        0.0563
     30 H          -2.3873    1.7828   -0.7139 H       1  UNL1        0.0563
     31 H          -5.7804    1.5413    1.7630 H       1  UNL1        0.1228
@<TRIPOS>BOND
     1     1     2    1
     2     2     3    1
     3     3     4    1
     4     4     5   ar
     5     5     6   ar
     6     6     7   ar
     7     7     8   ar
     8     8     9   ar
     9     2    10    1
    10    10    11    1
    11    10    12    1
    12    12    13    1
    13    13    14    3
    14     9     4   ar
    15     1    15    1
    16     1    16    1
    17     1    17    1
    18     2    18    1
    19     3    19    1
    20     3    20    1
    21     5    21    1
    22     6    22    1
    23     7    23    1
    24     8    24    1
    25     9    25    1
    26    11    26    1
    27    11    27    1
    28    11    28    1
    29    12    29    1
    30    12    30    1
    31    14    31    1
