@<TRIPOS>MOLECULE
*****
 52 56 0 0 0
SMALL
GASTEIGER

@<TRIPOS>ATOM
      1 C          -3.9801   -2.8069    0.3495 C.3     1  UNL1        0.0122
      2 N          -4.1696   -1.3807    0.1105 N.ar    1  UNL1       -0.3454
      3 C          -5.3661   -0.8087   -0.0273 C.ar    1  UNL1        0.0366
      4 C          -5.1454    0.5520   -0.2403 C.ar    1  UNL1       -0.0165
      5 C          -3.8094    0.7956   -0.2299 C.ar    1  UNL1        0.0035
      6 C          -2.9936    1.9152   -0.3815 C.ar    1  UNL1       -0.0504
      7 C          -1.6166    1.8176   -0.3141 C.ar    1  UNL1       -0.0371
      8 C          -1.0096    0.5996   -0.0933 C.ar    1  UNL1        0.0514
      9 N           0.4131    0.4787   -0.0204 N.ar    1  UNL1       -0.2839
     10 C           1.1920    0.5144   -1.1159 C.ar    1  UNL1        0.0167
     11 C           2.5645    0.3999   -1.0686 C.ar    1  UNL1       -0.0031
     12 C           3.2023    0.2399    0.1427 C.ar    1  UNL1        0.1275
     13 O           4.5733    0.1173    0.2800 O.3     1  UNL1       -0.4872
     14 C           5.4814    0.1389   -0.7734 C.3     1  UNL1        0.1146
     15 C           6.8450   -0.0184   -0.2417 C.ar    1  UNL1       -0.0104
     16 C           7.5791    1.0809    0.1131 C.ar    1  UNL1       -0.0554
     17 C           8.8764    0.9679    0.6211 C.ar    1  UNL1       -0.0614
     18 C           9.3968   -0.3076    0.7537 C.ar    1  UNL1       -0.0617
     19 C           8.6672   -1.4103    0.4005 C.ar    1  UNL1       -0.0614
     20 C           7.3776   -1.2825   -0.1036 C.ar    1  UNL1       -0.0554
     21 C           2.4115    0.2020    1.2722 C.ar    1  UNL1        0.0450
     22 C           1.0264    0.3228    1.1668 C.ar    1  UNL1        0.2592
     23 O           0.2915    0.2886    2.2057 O.2     1  UNL1       -0.2672
     24 C          -1.8404   -0.4972    0.0540 C.ar    1  UNL1       -0.0136
     25 C          -3.2002   -0.4262   -0.0085 C.ar    1  UNL1        0.0513
     26 C          -6.3155    1.4099   -0.4239 C.3     1  UNL1       -0.0128
     27 C          -7.4945    1.0374    0.3976 C.3     1  UNL1        0.0003
     28 N          -7.5874   -0.3240    0.7723 N.3     1  UNL1       -0.3103
     29 C          -6.7874   -1.2346   -0.0116 C.3     1  UNL1        0.0369
     30 H          -2.9609   -3.1410    0.1121 H       1  UNL1        0.0456
     31 H          -4.6801   -3.3564   -0.3329 H       1  UNL1        0.0456
     32 H          -4.2908   -3.0695    1.3871 H       1  UNL1        0.0456
     33 H          -3.4831    2.8615   -0.5537 H       1  UNL1        0.0625
     34 H          -1.0405    2.7240   -0.4399 H       1  UNL1        0.0638
     35 H           0.7144    0.6390   -2.0762 H       1  UNL1        0.0815
     36 H           3.1937    0.4281   -1.9461 H       1  UNL1        0.0669
     37 H           5.4405    1.0606   -1.3849 H       1  UNL1        0.0748
     38 H           5.3002   -0.7220   -1.4770 H       1  UNL1        0.0748
     39 H           7.1906    2.0778    0.0167 H       1  UNL1        0.0621
     40 H           9.4616    1.8313    0.9032 H       1  UNL1        0.0618
     41 H          10.3926   -0.4499    1.1404 H       1  UNL1        0.0618
     42 H           9.0580   -2.4043    0.4980 H       1  UNL1        0.0618
     43 H           6.8273   -2.1616   -0.3727 H       1  UNL1        0.0621
     44 H           2.8350    0.0791    2.2629 H       1  UNL1        0.0709
     45 H          -1.3674   -1.4544    0.2273 H       1  UNL1        0.0659
     46 H          -6.0242    2.4549   -0.1354 H       1  UNL1        0.0326
     47 H          -6.5628    1.4962   -1.5228 H       1  UNL1        0.0326
     48 H          -7.5863    1.6798    1.3162 H       1  UNL1        0.0427
     49 H          -8.4157    1.2921   -0.2010 H       1  UNL1        0.0427
     50 H          -8.5276   -0.6757    0.9728 H       1  UNL1        0.1223
     51 H          -7.1996   -1.3417   -1.0320 H       1  UNL1        0.0488
     52 H          -6.8572   -2.2295    0.4825 H       1  UNL1        0.0488
@<TRIPOS>BOND
     1     1     2    1
     2     2     3   ar
     3     3     4   ar
     4     4     5   ar
     5     5     6   ar
     6     6     7   ar
     7     7     8   ar
     8     8     9    1
     9     9    10   ar
    10    10    11   ar
    11    11    12   ar
    12    12    13    1
    13    13    14    1
    14    14    15    1
    15    15    16   ar
    16    16    17   ar
    17    17    18   ar
    18    18    19   ar
    19    19    20   ar
    20    12    21   ar
    21    21    22   ar
    22    22    23    2
    23     8    24   ar
    24    24    25   ar
    25     4    26    1
    26    26    27    1
    27    27    28    1
    28    28    29    1
    29    25     2   ar
    30    29     3    1
    31    25     5   ar
    32    22     9   ar
    33    20    15   ar
    34     1    30    1
    35     1    31    1
    36     1    32    1
    37     6    33    1
    38     7    34    1
    39    10    35    1
    40    11    36    1
    41    14    37    1
    42    14    38    1
    43    16    39    1
    44    17    40    1
    45    18    41    1
    46    19    42    1
    47    20    43    1
    48    21    44    1
    49    24    45    1
    50    26    46    1
    51    26    47    1
    52    27    48    1
    53    27    49    1
    54    28    50    1
    55    29    51    1
    56    29    52    1
