
     RDKit          3D

 52 56  0  0  0  0  0  0  0  0999 V2000
   -3.9801   -2.8069    0.3495 C   0  0  0  0  0  0  0  0  0  0  0  0
   -4.1696   -1.3807    0.1105 N   0  0  0  0  0  0  0  0  0  0  0  0
   -5.3661   -0.8087   -0.0273 C   0  0  0  0  0  0  0  0  0  0  0  0
   -5.1454    0.5520   -0.2403 C   0  0  0  0  0  0  0  0  0  0  0  0
   -3.8094    0.7956   -0.2299 C   0  0  0  0  0  0  0  0  0  0  0  0
   -2.9936    1.9152   -0.3815 C   0  0  0  0  0  0  0  0  0  0  0  0
   -1.6166    1.8176   -0.3141 C   0  0  0  0  0  0  0  0  0  0  0  0
   -1.0096    0.5996   -0.0933 C   0  0  0  0  0  0  0  0  0  0  0  0
    0.4131    0.4787   -0.0204 N   0  0  0  0  0  0  0  0  0  0  0  0
    1.1920    0.5144   -1.1159 C   0  0  0  0  0  0  0  0  0  0  0  0
    2.5645    0.3999   -1.0686 C   0  0  0  0  0  0  0  0  0  0  0  0
    3.2023    0.2399    0.1427 C   0  0  0  0  0  0  0  0  0  0  0  0
    4.5733    0.1173    0.2800 O   0  0  0  0  0  0  0  0  0  0  0  0
    5.4814    0.1389   -0.7734 C   0  0  0  0  0  0  0  0  0  0  0  0
    6.8450   -0.0184   -0.2417 C   0  0  0  0  0  0  0  0  0  0  0  0
    7.5791    1.0809    0.1131 C   0  0  0  0  0  0  0  0  0  0  0  0
    8.8764    0.9679    0.6211 C   0  0  0  0  0  0  0  0  0  0  0  0
    9.3968   -0.3076    0.7537 C   0  0  0  0  0  0  0  0  0  0  0  0
    8.6672   -1.4103    0.4005 C   0  0  0  0  0  0  0  0  0  0  0  0
    7.3776   -1.2825   -0.1036 C   0  0  0  0  0  0  0  0  0  0  0  0
    2.4115    0.2020    1.2722 C   0  0  0  0  0  0  0  0  0  0  0  0
    1.0264    0.3228    1.1668 C   0  0  0  0  0  0  0  0  0  0  0  0
    0.2915    0.2886    2.2057 O   0  0  0  0  0  0  0  0  0  0  0  0
   -1.8404   -0.4972    0.0540 C   0  0  0  0  0  0  0  0  0  0  0  0
   -3.2002   -0.4262   -0.0085 C   0  0  0  0  0  0  0  0  0  0  0  0
   -6.3155    1.4099   -0.4239 C   0  0  0  0  0  0  0  0  0  0  0  0
   -7.4945    1.0374    0.3976 C   0  0  0  0  0  0  0  0  0  0  0  0
   -7.5874   -0.3240    0.7723 N   0  0  0  0  0  0  0  0  0  0  0  0
   -6.7874   -1.2346   -0.0116 C   0  0  0  0  0  0  0  0  0  0  0  0
   -2.9609   -3.1410    0.1121 H   0  0  0  0  0  0  0  0  0  0  0  0
   -4.6801   -3.3564   -0.3329 H   0  0  0  0  0  0  0  0  0  0  0  0
   -4.2908   -3.0695    1.3871 H   0  0  0  0  0  0  0  0  0  0  0  0
   -3.4831    2.8615   -0.5537 H   0  0  0  0  0  0  0  0  0  0  0  0
   -1.0405    2.7240   -0.4399 H   0  0  0  0  0  0  0  0  0  0  0  0
    0.7144    0.6390   -2.0762 H   0  0  0  0  0  0  0  0  0  0  0  0
    3.1937    0.4281   -1.9461 H   0  0  0  0  0  0  0  0  0  0  0  0
    5.4405    1.0606   -1.3849 H   0  0  0  0  0  0  0  0  0  0  0  0
    5.3002   -0.7220   -1.4770 H   0  0  0  0  0  0  0  0  0  0  0  0
    7.1906    2.0778    0.0167 H   0  0  0  0  0  0  0  0  0  0  0  0
    9.4616    1.8313    0.9032 H   0  0  0  0  0  0  0  0  0  0  0  0
   10.3926   -0.4499    1.1404 H   0  0  0  0  0  0  0  0  0  0  0  0
    9.0580   -2.4043    0.4980 H   0  0  0  0  0  0  0  0  0  0  0  0
    6.8273   -2.1616   -0.3727 H   0  0  0  0  0  0  0  0  0  0  0  0
    2.8350    0.0791    2.2629 H   0  0  0  0  0  0  0  0  0  0  0  0
   -1.3674   -1.4544    0.2273 H   0  0  0  0  0  0  0  0  0  0  0  0
   -6.0242    2.4549   -0.1354 H   0  0  0  0  0  0  0  0  0  0  0  0
   -6.5628    1.4962   -1.5228 H   0  0  0  0  0  0  0  0  0  0  0  0
   -7.5863    1.6798    1.3162 H   0  0  0  0  0  0  0  0  0  0  0  0
   -8.4157    1.2921   -0.2010 H   0  0  0  0  0  0  0  0  0  0  0  0
   -8.5276   -0.6757    0.9728 H   0  0  0  0  0  0  0  0  0  0  0  0
   -7.1996   -1.3417   -1.0320 H   0  0  0  0  0  0  0  0  0  0  0  0
   -6.8572   -2.2295    0.4825 H   0  0  0  0  0  0  0  0  0  0  0  0
  1  2  1  0
  2  3  1  0
  3  4  2  0
  4  5  1  0
  5  6  2  0
  6  7  1  0
  7  8  2  0
  8  9  1  0
  9 10  1  0
 10 11  2  0
 11 12  1  0
 12 13  1  0
 13 14  1  0
 14 15  1  0
 15 16  2  0
 16 17  1  0
 17 18  2  0
 18 19  1  0
 19 20  2  0
 12 21  2  0
 21 22  1  0
 22 23  2  0
  8 24  1  0
 24 25  2  0
  4 26  1  0
 26 27  1  0
 27 28  1  0
 28 29  1  0
 25  2  1  0
 29  3  1  0
 25  5  1  0
 22  9  1  0
 20 15  1  0
  1 30  1  0
  1 31  1  0
  1 32  1  0
  6 33  1  0
  7 34  1  0
 10 35  1  0
 11 36  1  0
 14 37  1  0
 14 38  1  0
 16 39  1  0
 17 40  1  0
 18 41  1  0
 19 42  1  0
 20 43  1  0
 21 44  1  0
 24 45  1  0
 26 46  1  0
 26 47  1  0
 27 48  1  0
 27 49  1  0
 28 50  1  0
 29 51  1  0
 29 52  1  0
M  END
$$$$
