
     RDKit          3D

 56 59  0  0  0  0  0  0  0  0999 V2000
    1.1938   -0.4726    0.4698 C   0  0  2  0  0  0  0  0  0  0  0  0
    2.3126   -0.4930    1.4521 C   0  0  1  0  0  0  0  0  0  0  0  0
    2.6051   -1.9713    1.7434 C   0  0  0  0  0  0  0  0  0  0  0  0
    3.5658    0.0852    0.9421 C   0  0  0  0  0  0  0  0  0  0  0  0
    3.7706    0.8483   -0.1918 C   0  0  0  0  0  0  0  0  0  0  0  0
    5.0266    1.3121   -0.5208 C   0  0  0  0  0  0  0  0  0  0  0  0
    5.0679    2.0618   -1.6859 O   0  0  0  0  0  0  0  0  0  0  0  0
    6.1434    1.0476    0.2503 C   0  0  0  0  0  0  0  0  0  0  0  0
    5.9417    0.2829    1.3877 C   0  0  0  0  0  0  0  0  0  0  0  0
    4.6757   -0.1983    1.7410 C   0  0  0  0  0  0  0  0  0  0  0  0
    2.5830    1.1227   -1.0013 C   0  0  0  0  0  0  0  0  0  0  0  0
    2.7187    1.8102   -2.0385 O   0  0  0  0  0  0  0  0  0  0  0  0
    1.2972    0.5832   -0.5630 C   0  0  0  0  0  0  0  0  0  0  0  0
    0.2259    1.0974   -1.1472 C   0  0  0  0  0  0  0  0  0  0  0  0
    0.2906    2.1007   -2.1312 O   0  0  0  0  0  0  0  0  0  0  0  0
   -1.1710    0.6912   -0.8480 C   0  0  2  0  0  0  0  0  0  0  0  0
   -1.8504    0.5172   -2.0401 O   0  0  0  0  0  0  0  0  0  0  0  0
   -1.8588    1.7541   -0.0303 C   0  0  0  0  0  0  0  0  0  0  0  0
   -1.3590    2.8822    0.2132 O   0  0  0  0  0  0  0  0  0  0  0  0
   -3.1788    1.4115    0.4889 C   0  0  0  0  0  0  0  0  0  0  0  0
   -4.1555    2.4520    0.7612 C   0  0  0  0  0  0  0  0  0  0  0  0
   -3.8243    3.8085    0.5211 N   0  0  0  0  0  0  0  0  0  0  0  0
   -5.3181    2.2947    1.2061 O   0  0  0  0  0  0  0  0  0  0  0  0
   -3.4383    0.1302    0.6960 C   0  0  0  0  0  0  0  0  0  0  0  0
   -4.6969   -0.1622    1.1881 O   0  0  0  0  0  0  0  0  0  0  0  0
   -2.5073   -0.9881    0.4476 C   0  0  1  0  0  0  0  0  0  0  0  0
   -3.1395   -1.9381   -0.4353 N   0  0  0  0  0  0  0  0  0  0  0  0
   -4.3521   -2.4989    0.0917 C   0  0  0  0  0  0  0  0  0  0  0  0
   -2.2970   -3.0092   -0.8701 C   0  0  0  0  0  0  0  0  0  0  0  0
   -1.1658   -0.5956   -0.0322 C   0  0  2  0  0  0  0  0  0  0  0  0
   -0.1816   -0.2991    1.1069 C   0  0  1  0  0  0  0  0  0  0  0  0
   -0.3697   -1.1471    2.1742 O   0  0  0  0  0  0  0  0  0  0  0  0
    1.1057   -1.4471   -0.0939 H   0  0  0  0  0  0  0  0  0  0  0  0
    2.0260   -0.0618    2.4430 H   0  0  0  0  0  0  0  0  0  0  0  0
    3.3642   -2.3642    1.0231 H   0  0  0  0  0  0  0  0  0  0  0  0
    3.0654   -2.0887    2.7439 H   0  0  0  0  0  0  0  0  0  0  0  0
    1.6873   -2.5911    1.6276 H   0  0  0  0  0  0  0  0  0  0  0  0
    5.2013    1.5357   -2.5518 H   0  0  0  0  0  0  0  0  0  0  0  0
    7.0953    1.4357   -0.0566 H   0  0  0  0  0  0  0  0  0  0  0  0
    6.8231    0.0806    1.9862 H   0  0  0  0  0  0  0  0  0  0  0  0
    4.6412   -0.7908    2.6611 H   0  0  0  0  0  0  0  0  0  0  0  0
    0.3967    3.0797   -1.9037 H   0  0  0  0  0  0  0  0  0  0  0  0
   -1.3677    0.9360   -2.7999 H   0  0  0  0  0  0  0  0  0  0  0  0
   -3.3117    4.3248   -0.2064 H   0  0  0  0  0  0  0  0  0  0  0  0
   -3.2917    4.2689   -0.2520 H   0  0  0  0  0  0  0  0  0  0  0  0
   -5.5726    0.0185    0.7476 H   0  0  0  0  0  0  0  0  0  0  0  0
   -2.3771   -1.4937    1.4475 H   0  0  0  0  0  0  0  0  0  0  0  0
   -5.2181   -2.0414   -0.4289 H   0  0  0  0  0  0  0  0  0  0  0  0
   -4.4504   -3.5973   -0.1573 H   0  0  0  0  0  0  0  0  0  0  0  0
   -4.4277   -2.4826    1.1993 H   0  0  0  0  0  0  0  0  0  0  0  0
   -1.7159   -2.7756   -1.7845 H   0  0  0  0  0  0  0  0  0  0  0  0
   -2.9494   -3.8604   -1.1581 H   0  0  0  0  0  0  0  0  0  0  0  0
   -1.6347   -3.4175   -0.0513 H   0  0  0  0  0  0  0  0  0  0  0  0
   -0.7255   -1.3598   -0.7047 H   0  0  0  0  0  0  0  0  0  0  0  0
   -0.2378    0.7746    1.3850 H   0  0  0  0  0  0  0  0  0  0  0  0
   -0.6806   -0.6024    2.9410 H   0  0  0  0  0  0  0  0  0  0  0  0
  1  2  1  0
  2  3  1  0
  2  4  1  0
  4  5  2  0
  5  6  1  0
  6  7  1  0
  6  8  2  0
  8  9  1  0
  9 10  2  0
  5 11  1  0
 11 12  2  0
 11 13  1  0
 13 14  2  0
 14 15  1  0
 14 16  1  0
 16 17  1  6
 16 18  1  0
 18 19  2  0
 18 20  1  0
 20 21  1  0
 21 22  1  0
 21 23  2  0
 20 24  2  0
 24 25  1  0
 24 26  1  0
 26 27  1  0
 27 28  1  0
 27 29  1  0
 26 30  1  0
 30 31  1  0
 31 32  1  0
 13  1  1  0
 30 16  1  0
 31  1  1  0
 10  4  1  0
  1 33  1  6
  2 34  1  1
  3 35  1  0
  3 36  1  0
  3 37  1  0
  7 38  1  0
  8 39  1  0
  9 40  1  0
 10 41  1  0
 15 42  1  0
 17 43  1  0
 22 44  1  0
 22 45  1  0
 25 46  1  0
 26 47  1  1
 28 48  1  0
 28 49  1  0
 28 50  1  0
 29 51  1  0
 29 52  1  0
 29 53  1  0
 30 54  1  6
 31 55  1  1
 32 56  1  0
M  END
$$$$
