@<TRIPOS>MOLECULE
*****
 59 61 0 0 0
SMALL
GASTEIGER

@<TRIPOS>ATOM
      1 C           2.3455    1.5207   -0.6190 C.3     1  UNL1       -0.0556
      2 C           2.6753    0.1613   -0.1223 C.3     1  UNL1       -0.0052
      3 C           3.0393   -0.0685    1.2979 C.3     1  UNL1       -0.0556
      4 C           1.6026   -0.8137   -0.3980 C.3     1  UNL1       -0.0059
      5 C           0.2432   -0.8495    0.0652 C.3     1  UNL1        0.1664
      6 O          -0.2932   -2.0514   -0.5444 O.3     1  UNL1       -0.3793
      7 C          -0.6004    0.1929   -0.6438 C.3     1  UNL1        0.0250
      8 C          -2.0233    0.2605   -0.3169 C.ar    1  UNL1        0.0200
      9 C          -3.0230   -0.4551   -0.9333 C.ar    1  UNL1       -0.0332
     10 C          -4.2463   -0.1137   -0.3693 C.ar    1  UNL1        0.0047
     11 C          -5.5537   -0.5266   -0.6095 C.ar    1  UNL1       -0.0090
     12 C          -6.5882    0.0053    0.1306 C.ar    1  UNL1        0.1766
     13 S          -8.2707   -0.4810   -0.1297 S.O2    1  UNL1        0.0111
     14 C          -8.8414   -1.1708    1.4270 C.3     1  UNL1        0.0612
     15 O          -9.1339    0.7158   -0.4018 O.2     1  UNL1       -0.1682
     16 O          -8.3712   -1.5317   -1.1667 O.2     1  UNL1       -0.1682
     17 N          -6.2737    0.9158    1.0673 N.ar    1  UNL1       -0.2348
     18 C          -5.0175    1.3289    1.3159 C.ar    1  UNL1        0.0536
     19 C          -3.9431    0.8197    0.5940 C.ar    1  UNL1        0.0651
     20 N          -2.6169    1.0252    0.6067 N.ar    1  UNL1       -0.3566
     21 C          -0.2343   -0.9262    1.4200 C.3     1  UNL1        0.4186
     22 F           0.0384    0.0828    2.3090 F       1  UNL1       -0.1676
     23 F          -1.6044   -1.0608    1.4311 F       1  UNL1       -0.1676
     24 F           0.1122   -2.0989    2.1185 F       1  UNL1       -0.1676
     25 C           3.8763   -0.2247   -0.9723 C.ar    1  UNL1       -0.0168
     26 C           3.8194   -1.2313   -1.8902 C.ar    1  UNL1       -0.0562
     27 C           4.9048   -1.4384   -2.7374 C.ar    1  UNL1       -0.0614
     28 C           6.0021   -0.6418   -2.6415 C.ar    1  UNL1       -0.0599
     29 C           6.0199    0.3551   -1.7040 C.ar    1  UNL1       -0.0366
     30 C           4.9709    0.6362   -0.8045 C.ar    1  UNL1        0.0915
     31 S           5.2772    1.7835    0.3797 S.O2    1  UNL1       -0.0056
     32 C           5.9316    1.1424    1.9361 C.3     1  UNL1        0.0596
     33 O           4.3237    2.8328    0.7657 O.2     1  UNL1       -0.1696
     34 O           6.4528    2.6564   -0.1113 O.2     1  UNL1       -0.1696
     35 H           1.6536    1.3206   -1.5222 H       1  UNL1        0.0238
     36 H           3.1704    1.9856   -1.2704 H       1  UNL1        0.0238
     37 H           1.8483    2.2153    0.0156 H       1  UNL1        0.0238
     38 H           3.0529    0.7513    1.9774 H       1  UNL1        0.0238
     39 H           2.3947   -0.8560    1.8234 H       1  UNL1        0.0238
     40 H           3.9901   -0.6546    1.3182 H       1  UNL1        0.0238
     41 H           1.5241   -0.8325   -1.5559 H       1  UNL1        0.0304
     42 H           2.0938   -1.8260   -0.2207 H       1  UNL1        0.0304
     43 H          -1.2302   -2.1275   -0.2416 H       1  UNL1        0.2106
     44 H          -0.1740    1.2332   -0.3992 H       1  UNL1        0.0358
     45 H          -0.3911    0.0741   -1.7294 H       1  UNL1        0.0358
     46 H          -2.9655   -1.1868   -1.7348 H       1  UNL1        0.0641
     47 H          -5.7682   -1.2658   -1.3765 H       1  UNL1        0.0659
     48 H          -8.4978   -2.1965    1.5693 H       1  UNL1        0.0468
     49 H          -8.4868   -0.5541    2.2829 H       1  UNL1        0.0468
     50 H          -9.9558   -1.1582    1.4786 H       1  UNL1        0.0468
     51 H          -4.7808    2.0647    2.0757 H       1  UNL1        0.0851
     52 H          -2.1673    1.7133    1.2819 H       1  UNL1        0.1656
     53 H           2.9553   -1.8806   -1.9634 H       1  UNL1        0.0621
     54 H           4.7970   -2.2515   -3.4430 H       1  UNL1        0.0618
     55 H           6.8579   -0.8035   -3.3115 H       1  UNL1        0.0618
     56 H           6.9353    0.9812   -1.6581 H       1  UNL1        0.0637
     57 H           6.8128    1.7407    2.2791 H       1  UNL1        0.0468
     58 H           5.1643    1.3109    2.7040 H       1  UNL1        0.0468
     59 H           6.1670    0.0695    1.8718 H       1  UNL1        0.0468
@<TRIPOS>BOND
     1     1     2    1
     2     2     3    1
     3     2     4    1
     4     4     5    1
     5     5     6    1
     6     5     7    1
     7     7     8    1
     8     8     9   ar
     9     9    10   ar
    10    10    11   ar
    11    11    12   ar
    12    12    13    1
    13    13    14    1
    14    13    15    2
    15    13    16    2
    16    12    17   ar
    17    17    18   ar
    18    18    19   ar
    19    19    20   ar
    20     5    21    1
    21    21    22    1
    22    21    23    1
    23    21    24    1
    24     2    25    1
    25    25    26   ar
    26    26    27   ar
    27    27    28   ar
    28    28    29   ar
    29    29    30   ar
    30    30    31    1
    31    31    32    1
    32    31    33    2
    33    31    34    2
    34    20     8   ar
    35    30    25   ar
    36    19    10   ar
    37     1    35    1
    38     1    36    1
    39     1    37    1
    40     3    38    1
    41     3    39    1
    42     3    40    1
    43     4    41    1
    44     4    42    1
    45     6    43    1
    46     7    44    1
    47     7    45    1
    48     9    46    1
    49    11    47    1
    50    14    48    1
    51    14    49    1
    52    14    50    1
    53    18    51    1
    54    20    52    1
    55    26    53    1
    56    27    54    1
    57    28    55    1
    58    29    56    1
    59    32    57    1
    60    32    58    1
    61    32    59    1
