
     RDKit          3D

 41 45  0  0  0  0  0  0  0  0999 V2000
    6.6003   -0.9216   -0.4240 C   0  0  0  0  0  0  0  0  0  0  0  0
    7.2507    0.3362    0.0886 C   0  0  0  0  0  0  0  0  0  0  0  0
    6.0675   -0.1826    0.8272 C   0  0  0  0  0  0  0  0  0  0  0  0
    4.7312    0.4334    0.5947 C   0  0  0  0  0  0  0  0  0  0  0  0
    4.2799    0.9389   -0.5741 N   0  0  0  0  0  0  0  0  0  0  0  0
    3.0419    1.4075   -0.3915 N   0  0  0  0  0  0  0  0  0  0  0  0
    2.6702    1.2131    0.9099 C   0  0  0  0  0  0  0  0  0  0  0  0
    1.4613    1.5473    1.6232 N   0  0  0  0  0  0  0  0  0  0  0  0
    0.5536    0.5700    1.0695 C   0  0  0  0  0  0  0  0  0  0  0  0
    0.5202   -0.6405    1.6964 C   0  0  0  0  0  0  0  0  0  0  0  0
   -0.3377   -1.5652    1.1766 C   0  0  0  0  0  0  0  0  0  0  0  0
   -1.0836   -1.2653    0.1178 N   0  0  0  0  0  0  0  0  0  0  0  0
   -1.0777   -0.1010   -0.5178 C   0  0  0  0  0  0  0  0  0  0  0  0
   -1.8498    0.3806   -1.6204 N   0  0  0  0  0  0  0  0  0  0  0  0
   -3.1825    0.0459   -1.2917 C   0  0  0  0  0  0  0  0  0  0  0  0
   -4.1287    1.0357   -1.4945 C   0  0  0  0  0  0  0  0  0  0  0  0
   -5.4828    0.8387   -1.1980 C   0  0  0  0  0  0  0  0  0  0  0  0
   -5.9110   -0.3687   -0.6924 C   0  0  0  0  0  0  0  0  0  0  0  0
   -7.2512   -0.3580   -0.4521 N   0  0  0  0  0  0  0  0  0  0  0  0
   -7.6685    0.8661   -0.8117 C   0  0  0  0  0  0  0  0  0  0  0  0
   -6.6015    1.5825   -1.2625 N   0  0  0  0  0  0  0  0  0  0  0  0
   -4.9982   -1.3810   -0.4833 C   0  0  0  0  0  0  0  0  0  0  0  0
   -3.6862   -1.1252   -0.7885 C   0  0  0  0  0  0  0  0  0  0  0  0
   -0.2288    0.8285   -0.0133 N   0  0  0  0  0  0  0  0  0  0  0  0
    3.7407    0.5863    1.5634 C   0  0  0  0  0  0  0  0  0  0  0  0
    6.0091   -0.8468   -1.3678 H   0  0  0  0  0  0  0  0  0  0  0  0
    7.0237   -1.9057   -0.2209 H   0  0  0  0  0  0  0  0  0  0  0  0
    7.2311    1.1914   -0.5807 H   0  0  0  0  0  0  0  0  0  0  0  0
    8.2471    0.1447    0.5605 H   0  0  0  0  0  0  0  0  0  0  0  0
    6.2685   -0.6296    1.8148 H   0  0  0  0  0  0  0  0  0  0  0  0
    2.2879    1.8710   -0.9581 H   0  0  0  0  0  0  0  0  0  0  0  0
    1.3934    2.3241    2.3447 H   0  0  0  0  0  0  0  0  0  0  0  0
    1.0686   -0.9875    2.5522 H   0  0  0  0  0  0  0  0  0  0  0  0
   -0.5723   -2.5937    1.4764 H   0  0  0  0  0  0  0  0  0  0  0  0
   -1.5235    0.8620   -2.4804 H   0  0  0  0  0  0  0  0  0  0  0  0
   -3.8632    2.0165   -1.8956 H   0  0  0  0  0  0  0  0  0  0  0  0
   -7.7846   -1.1703   -0.0654 H   0  0  0  0  0  0  0  0  0  0  0  0
   -8.7103    1.2036   -0.7297 H   0  0  0  0  0  0  0  0  0  0  0  0
   -5.3092   -2.3594   -0.0870 H   0  0  0  0  0  0  0  0  0  0  0  0
   -3.0425   -1.9597   -0.6064 H   0  0  0  0  0  0  0  0  0  0  0  0
    3.8468    0.2686    2.5921 H   0  0  0  0  0  0  0  0  0  0  0  0
  1  2  1  0
  2  3  1  0
  3  4  1  0
  4  5  2  0
  5  6  1  0
  6  7  1  0
  7  8  1  0
  8  9  1  0
  9 10  2  0
 10 11  1  0
 11 12  2  0
 12 13  1  0
 13 14  1  0
 14 15  1  0
 15 16  2  0
 16 17  1  0
 17 18  2  0
 18 19  1  0
 19 20  1  0
 20 21  2  0
 18 22  1  0
 22 23  2  0
 13 24  2  0
  7 25  2  0
  3  1  1  0
 25  4  1  0
 24  9  1  0
 23 15  1  0
 21 17  1  0
  1 26  1  0
  1 27  1  0
  2 28  1  0
  2 29  1  0
  3 30  1  0
  6 31  1  0
  8 32  1  0
 10 33  1  0
 11 34  1  0
 14 35  1  0
 16 36  1  0
 19 37  1  0
 20 38  1  0
 22 39  1  0
 23 40  1  0
 25 41  1  0
M  END
$$$$
