@<TRIPOS>MOLECULE
*****
 41 45 0 0 0
SMALL
GASTEIGER

@<TRIPOS>ATOM
      1 C           6.6003   -0.9216   -0.4240 C.3     1  UNL1       -0.0441
      2 C           7.2507    0.3362    0.0886 C.3     1  UNL1       -0.0441
      3 C           6.0675   -0.1826    0.8272 C.3     1  UNL1        0.0032
      4 C           4.7312    0.4334    0.5947 C.ar    1  UNL1        0.0677
      5 N           4.2799    0.9389   -0.5741 N.ar    1  UNL1       -0.1770
      6 N           3.0419    1.4075   -0.3915 N.ar    1  UNL1       -0.2637
      7 C           2.6702    1.2131    0.9099 C.ar    1  UNL1        0.1196
      8 N           1.4613    1.5473    1.6232 N.pl3   1  UNL1       -0.2846
      9 C           0.5536    0.5700    1.0695 C.ar    1  UNL1        0.1290
     10 C           0.5202   -0.6405    1.6964 C.ar    1  UNL1       -0.0033
     11 C          -0.3377   -1.5652    1.1766 C.ar    1  UNL1        0.0344
     12 N          -1.0836   -1.2653    0.1178 N.ar    1  UNL1       -0.2225
     13 C          -1.0777   -0.1010   -0.5178 C.ar    1  UNL1        0.2212
     14 N          -1.8498    0.3806   -1.6204 N.pl3   1  UNL1       -0.2835
     15 C          -3.1825    0.0459   -1.2917 C.ar    1  UNL1        0.0357
     16 C          -4.1287    1.0357   -1.4945 C.ar    1  UNL1       -0.0130
     17 C          -5.4828    0.8387   -1.1980 C.ar    1  UNL1        0.0905
     18 C          -5.9110   -0.3687   -0.6924 C.ar    1  UNL1        0.0661
     19 N          -7.2512   -0.3580   -0.4521 N.ar    1  UNL1       -0.3444
     20 C          -7.6685    0.8661   -0.8117 C.ar    1  UNL1        0.0944
     21 N          -6.6015    1.5825   -1.2625 N.ar    1  UNL1       -0.2359
     22 C          -4.9982   -1.3810   -0.4833 C.ar    1  UNL1       -0.0345
     23 C          -3.6862   -1.1252   -0.7885 C.ar    1  UNL1       -0.0384
     24 N          -0.2288    0.8285   -0.0133 N.ar    1  UNL1       -0.1991
     25 C           3.7407    0.5863    1.5634 C.ar    1  UNL1        0.0011
     26 H           6.0091   -0.8468   -1.3678 H       1  UNL1        0.0272
     27 H           7.0237   -1.9057   -0.2209 H       1  UNL1        0.0272
     28 H           7.2311    1.1914   -0.5807 H       1  UNL1        0.0272
     29 H           8.2471    0.1447    0.5605 H       1  UNL1        0.0272
     30 H           6.2685   -0.6296    1.8148 H       1  UNL1        0.0364
     31 H           2.2879    1.8710   -0.9581 H       1  UNL1        0.1903
     32 H           1.3934    2.3241    2.3447 H       1  UNL1        0.1550
     33 H           1.0686   -0.9875    2.5522 H       1  UNL1        0.0667
     34 H          -0.5723   -2.5937    1.4764 H       1  UNL1        0.0832
     35 H          -1.5235    0.8620   -2.4804 H       1  UNL1        0.1550
     36 H          -3.8632    2.0165   -1.8956 H       1  UNL1        0.0658
     37 H          -7.7846   -1.1703   -0.0654 H       1  UNL1        0.1668
     38 H          -8.7103    1.2036   -0.7297 H       1  UNL1        0.1027
     39 H          -5.3092   -2.3594   -0.0870 H       1  UNL1        0.0639
     40 H          -3.0425   -1.9597   -0.6064 H       1  UNL1        0.0637
     41 H           3.8468    0.2686    2.5921 H       1  UNL1        0.0670
@<TRIPOS>BOND
     1     1     2    1
     2     2     3    1
     3     3     4    1
     4     4     5   ar
     5     5     6   ar
     6     6     7   ar
     7     7     8    1
     8     8     9    1
     9     9    10   ar
    10    10    11   ar
    11    11    12   ar
    12    12    13   ar
    13    13    14    1
    14    14    15    1
    15    15    16   ar
    16    16    17   ar
    17    17    18   ar
    18    18    19   ar
    19    19    20   ar
    20    20    21   ar
    21    18    22   ar
    22    22    23   ar
    23    13    24   ar
    24     7    25   ar
    25     3     1    1
    26    25     4   ar
    27    24     9   ar
    28    23    15   ar
    29    21    17   ar
    30     1    26    1
    31     1    27    1
    32     2    28    1
    33     2    29    1
    34     3    30    1
    35     6    31    1
    36     8    32    1
    37    10    33    1
    38    11    34    1
    39    14    35    1
    40    16    36    1
    41    19    37    1
    42    20    38    1
    43    22    39    1
    44    23    40    1
    45    25    41    1
