@<TRIPOS>MOLECULE
*****
 36 38 0 0 0
SMALL
GASTEIGER

@<TRIPOS>ATOM
      1 C          -5.6011    1.2910   -0.7200 C.3     1  UNL1        0.0790
      2 O          -4.8138    0.1919   -0.3076 O.3     1  UNL1       -0.4914
      3 C          -3.4318    0.2738   -0.2704 C.ar    1  UNL1        0.1635
      4 C          -2.8033    1.4427   -0.6397 C.ar    1  UNL1        0.0098
      5 C          -1.4086    1.5791   -0.6198 C.ar    1  UNL1        0.0797
      6 N          -0.8379    2.7326   -0.9851 N.ar    1  UNL1       -0.2352
      7 C           0.5212    2.8178   -0.9480 C.ar    1  UNL1        0.1187
      8 N           1.2605    1.7914   -0.5624 N.ar    1  UNL1       -0.2200
      9 C           0.7108    0.6273   -0.1921 C.ar    1  UNL1        0.1340
     10 N           1.5502   -0.4314    0.2071 N.pl3   1  UNL1       -0.2988
     11 C           2.9654   -0.3775    0.1646 C.ar    1  UNL1        0.0338
     12 C           3.6917   -1.2090    1.0276 C.ar    1  UNL1       -0.0404
     13 C           5.0635   -1.2244    1.0359 C.ar    1  UNL1       -0.0586
     14 C           5.8031   -0.4203    0.1937 C.ar    1  UNL1       -0.0433
     15 C           5.1186    0.4049   -0.6644 C.ar    1  UNL1        0.0427
     16 CL          6.0387    1.4321   -1.7364 Cl      1  UNL1       -0.0835
     17 C           3.7176    0.4140   -0.6666 C.ar    1  UNL1       -0.0222
     18 C          -0.6661    0.4931   -0.2134 C.ar    1  UNL1        0.0441
     19 C          -1.2900   -0.6896    0.1605 C.ar    1  UNL1       -0.0038
     20 C          -2.6780   -0.8075    0.1345 C.ar    1  UNL1        0.1623
     21 O          -3.3068   -2.0015    0.5127 O.3     1  UNL1       -0.4914
     22 C          -2.4350   -3.0700    0.9213 C.3     1  UNL1        0.0790
     23 H          -6.6342    1.1024   -0.3013 H       1  UNL1        0.0660
     24 H          -5.2312    2.2387   -0.3010 H       1  UNL1        0.0660
     25 H          -5.6167    1.2945   -1.8401 H       1  UNL1        0.0660
     26 H          -3.3327    2.3329   -0.9708 H       1  UNL1        0.0677
     27 H           0.9613    3.7579   -1.2468 H       1  UNL1        0.1048
     28 H           1.1535   -1.3338    0.5664 H       1  UNL1        0.1536
     29 H           3.1194   -1.8602    1.7081 H       1  UNL1        0.0636
     30 H           5.6392   -1.8725    1.7094 H       1  UNL1        0.0619
     31 H           6.8876   -0.4577    0.2297 H       1  UNL1        0.0632
     32 H           3.2118    1.0688   -1.3687 H       1  UNL1        0.0651
     33 H          -0.7109   -1.5449    0.4814 H       1  UNL1        0.0663
     34 H          -3.0427   -3.8939    1.3415 H       1  UNL1        0.0660
     35 H          -1.7682   -3.3822    0.1166 H       1  UNL1        0.0660
     36 H          -1.8053   -2.7102    1.7855 H       1  UNL1        0.0660
@<TRIPOS>BOND
     1     1     2    1
     2     2     3    1
     3     3     4   ar
     4     4     5   ar
     5     5     6   ar
     6     6     7   ar
     7     7     8   ar
     8     8     9   ar
     9     9    10    1
    10    10    11    1
    11    11    12   ar
    12    12    13   ar
    13    13    14   ar
    14    14    15   ar
    15    15    16    1
    16    15    17   ar
    17     9    18   ar
    18    18    19   ar
    19    19    20   ar
    20    20    21    1
    21    21    22    1
    22    20     3   ar
    23    18     5   ar
    24    17    11   ar
    25     1    23    1
    26     1    24    1
    27     1    25    1
    28     4    26    1
    29     7    27    1
    30    10    28    1
    31    12    29    1
    32    13    30    1
    33    14    31    1
    34    17    32    1
    35    19    33    1
    36    22    34    1
    37    22    35    1
    38    22    36    1
