
     RDKit          3D

 36 38  0  0  0  0  0  0  0  0999 V2000
   -5.6011    1.2910   -0.7200 C   0  0  0  0  0  0  0  0  0  0  0  0
   -4.8138    0.1919   -0.3076 O   0  0  0  0  0  0  0  0  0  0  0  0
   -3.4318    0.2738   -0.2704 C   0  0  0  0  0  0  0  0  0  0  0  0
   -2.8033    1.4427   -0.6397 C   0  0  0  0  0  0  0  0  0  0  0  0
   -1.4086    1.5791   -0.6198 C   0  0  0  0  0  0  0  0  0  0  0  0
   -0.8379    2.7326   -0.9851 N   0  0  0  0  0  0  0  0  0  0  0  0
    0.5212    2.8178   -0.9480 C   0  0  0  0  0  0  0  0  0  0  0  0
    1.2605    1.7914   -0.5624 N   0  0  0  0  0  0  0  0  0  0  0  0
    0.7108    0.6273   -0.1921 C   0  0  0  0  0  0  0  0  0  0  0  0
    1.5502   -0.4314    0.2071 N   0  0  0  0  0  0  0  0  0  0  0  0
    2.9654   -0.3775    0.1646 C   0  0  0  0  0  0  0  0  0  0  0  0
    3.6917   -1.2090    1.0276 C   0  0  0  0  0  0  0  0  0  0  0  0
    5.0635   -1.2244    1.0359 C   0  0  0  0  0  0  0  0  0  0  0  0
    5.8031   -0.4203    0.1937 C   0  0  0  0  0  0  0  0  0  0  0  0
    5.1186    0.4049   -0.6644 C   0  0  0  0  0  0  0  0  0  0  0  0
    6.0387    1.4321   -1.7364 Cl  0  0  0  0  0  0  0  0  0  0  0  0
    3.7176    0.4140   -0.6666 C   0  0  0  0  0  0  0  0  0  0  0  0
   -0.6661    0.4931   -0.2134 C   0  0  0  0  0  0  0  0  0  0  0  0
   -1.2900   -0.6896    0.1605 C   0  0  0  0  0  0  0  0  0  0  0  0
   -2.6780   -0.8075    0.1345 C   0  0  0  0  0  0  0  0  0  0  0  0
   -3.3068   -2.0015    0.5127 O   0  0  0  0  0  0  0  0  0  0  0  0
   -2.4350   -3.0700    0.9213 C   0  0  0  0  0  0  0  0  0  0  0  0
   -6.6342    1.1024   -0.3013 H   0  0  0  0  0  0  0  0  0  0  0  0
   -5.2312    2.2387   -0.3010 H   0  0  0  0  0  0  0  0  0  0  0  0
   -5.6167    1.2945   -1.8401 H   0  0  0  0  0  0  0  0  0  0  0  0
   -3.3327    2.3329   -0.9708 H   0  0  0  0  0  0  0  0  0  0  0  0
    0.9613    3.7579   -1.2468 H   0  0  0  0  0  0  0  0  0  0  0  0
    1.1535   -1.3338    0.5664 H   0  0  0  0  0  0  0  0  0  0  0  0
    3.1194   -1.8602    1.7081 H   0  0  0  0  0  0  0  0  0  0  0  0
    5.6392   -1.8725    1.7094 H   0  0  0  0  0  0  0  0  0  0  0  0
    6.8876   -0.4577    0.2297 H   0  0  0  0  0  0  0  0  0  0  0  0
    3.2118    1.0688   -1.3687 H   0  0  0  0  0  0  0  0  0  0  0  0
   -0.7109   -1.5449    0.4814 H   0  0  0  0  0  0  0  0  0  0  0  0
   -3.0427   -3.8939    1.3415 H   0  0  0  0  0  0  0  0  0  0  0  0
   -1.7682   -3.3822    0.1166 H   0  0  0  0  0  0  0  0  0  0  0  0
   -1.8053   -2.7102    1.7855 H   0  0  0  0  0  0  0  0  0  0  0  0
  1  2  1  0
  2  3  1  0
  3  4  2  0
  4  5  1  0
  5  6  2  0
  6  7  1  0
  7  8  2  0
  8  9  1  0
  9 10  1  0
 10 11  1  0
 11 12  2  0
 12 13  1  0
 13 14  2  0
 14 15  1  0
 15 16  1  0
 15 17  2  0
  9 18  2  0
 18 19  1  0
 19 20  2  0
 20 21  1  0
 21 22  1  0
 20  3  1  0
 18  5  1  0
 17 11  1  0
  1 23  1  0
  1 24  1  0
  1 25  1  0
  4 26  1  0
  7 27  1  0
 10 28  1  0
 12 29  1  0
 13 30  1  0
 14 31  1  0
 17 32  1  0
 19 33  1  0
 22 34  1  0
 22 35  1  0
 22 36  1  0
M  END
$$$$
