@<TRIPOS>MOLECULE
*****
 55 59 0 0 0
SMALL
GASTEIGER

@<TRIPOS>ATOM
      1 O           4.1529    1.0057    0.4304 O.2     1  UNL1       -0.2265
      2 C           4.1270   -0.1820    0.8232 C.2     1  UNL1        0.4009
      3 N           5.2742   -0.8073    1.3610 N.am    1  UNL1       -0.2770
      4 C           6.5436   -0.1393    1.4940 C.3     1  UNL1        0.0400
      5 C           7.2813   -0.0668    0.2056 C.ar    1  UNL1       -0.0302
      6 C           8.0966   -1.1468   -0.1153 C.ar    1  UNL1       -0.0571
      7 C           8.8001   -1.1266   -1.2825 C.ar    1  UNL1       -0.0615
      8 C           8.7577   -0.0742   -2.1967 C.ar    1  UNL1       -0.0617
      9 C           7.9428    0.9784   -1.8507 C.ar    1  UNL1       -0.0615
     10 C           7.2090    0.9928   -0.6662 C.ar    1  UNL1       -0.0571
     11 O           2.9072   -0.8653    0.7057 O.3     1  UNL1       -0.4421
     12 C           1.8034   -0.1979    0.1763 C.3     1  UNL1        0.1563
     13 C           1.2053   -0.8138   -1.0461 C.3     1  UNL1        0.0879
     14 O          -0.1319   -0.3508   -0.9931 O.3     1  UNL1       -0.3664
     15 C          -0.5327   -0.6687    0.3003 C.3     1  UNL1        0.1274
     16 C          -1.6225    0.1969    0.8456 C.3     1  UNL1        0.1550
     17 O          -2.7442    0.3617    0.0600 O.3     1  UNL1       -0.4528
     18 C          -4.0225    0.0965    0.6240 C.2     1  UNL1        0.3402
     19 O          -3.9585   -0.2659    1.8040 O.2     1  UNL1       -0.2449
     20 C          -5.1973    0.2738   -0.2113 C.ar    1  UNL1        0.0667
     21 C          -5.0051    0.6974   -1.5387 C.ar    1  UNL1       -0.0472
     22 C          -6.0554    0.8927   -2.4068 C.ar    1  UNL1       -0.0604
     23 C          -7.3444    0.6721   -1.9813 C.ar    1  UNL1       -0.0540
     24 C          -7.5622    0.2531   -0.6727 C.ar    1  UNL1       -0.0171
     25 C          -8.8686    0.0435   -0.2871 C.ar    1  UNL1       -0.0540
     26 C          -9.0915   -0.3719    1.0054 C.ar    1  UNL1       -0.0612
     27 C          -8.0463   -0.5698    1.8792 C.ar    1  UNL1       -0.0611
     28 C          -6.7205   -0.3602    1.4988 C.ar    1  UNL1       -0.0532
     29 C          -6.4865    0.0558    0.2064 C.ar    1  UNL1       -0.0039
     30 C          -0.8418    1.5078    1.0274 C.3     1  UNL1        0.0879
     31 O           0.3134    1.0615    1.6129 O.3     1  UNL1       -0.3664
     32 C           0.6442   -0.1827    1.1547 C.3     1  UNL1        0.1274
     33 H           5.1660   -1.8194    1.6736 H       1  UNL1        0.1523
     34 H           6.3492    0.9225    1.7963 H       1  UNL1        0.0513
     35 H           7.1764   -0.6584    2.2516 H       1  UNL1        0.0513
     36 H           8.1640   -2.0034    0.5759 H       1  UNL1        0.0621
     37 H           9.4281   -1.9856   -1.5040 H       1  UNL1        0.0618
     38 H           9.3388   -0.1199   -3.1052 H       1  UNL1        0.0618
     39 H           7.8548    1.8405   -2.5128 H       1  UNL1        0.0618
     40 H           6.5754    1.8504   -0.4209 H       1  UNL1        0.0621
     41 H           2.0797    0.8504   -0.0916 H       1  UNL1        0.0785
     42 H           1.2523   -1.9060   -1.0460 H       1  UNL1        0.0598
     43 H           1.6694   -0.4254   -1.9765 H       1  UNL1        0.0598
     44 H          -0.7435   -1.7304    0.4229 H       1  UNL1        0.0661
     45 H          -1.8324   -0.1437    1.8819 H       1  UNL1        0.0785
     46 H          -4.0217    0.8808   -1.9106 H       1  UNL1        0.0626
     47 H          -5.8846    1.2217   -3.4308 H       1  UNL1        0.0618
     48 H          -8.1841    0.8243   -2.6605 H       1  UNL1        0.0624
     49 H          -9.6808    0.2078   -1.0000 H       1  UNL1        0.0624
     50 H         -10.1180   -0.5426    1.3257 H       1  UNL1        0.0618
     51 H          -8.1919   -0.8991    2.9100 H       1  UNL1        0.0618
     52 H          -5.9257   -0.5238    2.2049 H       1  UNL1        0.0624
     53 H          -0.6569    1.9901    0.0243 H       1  UNL1        0.0598
     54 H          -1.4600    2.1378    1.6899 H       1  UNL1        0.0598
     55 H           0.8183   -0.8680    2.0048 H       1  UNL1        0.0661
@<TRIPOS>BOND
     1     1     2    2
     2     2     3   am
     3     3     4    1
     4     4     5    1
     5     5     6   ar
     6     6     7   ar
     7     7     8   ar
     8     8     9   ar
     9     9    10   ar
    10     2    11    1
    11    11    12    1
    12    12    13    1
    13    13    14    1
    14    14    15    1
    15    15    16    1
    16    16    17    1
    17    17    18    1
    18    18    19    2
    19    18    20    1
    20    20    21   ar
    21    21    22   ar
    22    22    23   ar
    23    23    24   ar
    24    24    25   ar
    25    25    26   ar
    26    26    27   ar
    27    27    28   ar
    28    28    29   ar
    29    16    30    1
    30    30    31    1
    31    31    32    1
    32    10     5   ar
    33    32    12    1
    34    32    15    1
    35    29    20   ar
    36    29    24   ar
    37     3    33    1
    38     4    34    1
    39     4    35    1
    40     6    36    1
    41     7    37    1
    42     8    38    1
    43     9    39    1
    44    10    40    1
    45    12    41    1
    46    13    42    1
    47    13    43    1
    48    15    44    1
    49    16    45    1
    50    21    46    1
    51    22    47    1
    52    23    48    1
    53    25    49    1
    54    26    50    1
    55    27    51    1
    56    28    52    1
    57    30    53    1
    58    30    54    1
    59    32    55    1
