@<TRIPOS>MOLECULE
*****
 38 40 0 0 0
SMALL
GASTEIGER

@<TRIPOS>ATOM
      1 C          -4.7362    1.3813    0.5698 C.3     1  UNL1       -0.0495
      2 C          -3.8643    1.6383   -0.6239 C.3     1  UNL1        0.0088
      3 N          -2.6666    0.8376   -0.6236 N.am    1  UNL1       -0.3134
      4 C          -2.6769   -0.5806   -0.6302 C.2     1  UNL1        0.2447
      5 O          -3.7964   -1.1541   -0.6367 O.2     1  UNL1       -0.2729
      6 C          -1.4120   -1.3935   -0.6297 C.3     1  UNL1        0.1650
      7 O          -0.3164   -0.5656   -0.6223 O.3     1  UNL1       -0.3387
      8 C           0.7331   -1.3009   -0.0624 C.3     1  UNL1        0.1672
      9 N           1.8217   -0.4679    0.3354 N.ar    1  UNL1       -0.2855
     10 C           2.4017   -0.4383    1.5491 C.ar    1  UNL1        0.1004
     11 N           3.3982    0.4835    1.5287 N.ar    1  UNL1       -0.2306
     12 C           3.4364    1.0269    0.2994 C.ar    1  UNL1        0.1473
     13 C           4.2256    1.9965   -0.2964 C.ar    1  UNL1        0.1472
     14 N           5.2407    2.6225    0.4395 N.pl3   1  UNL1       -0.3413
     15 N           3.9730    2.2958   -1.5798 N.ar    1  UNL1       -0.2188
     16 C           3.0033    1.7059   -2.3022 C.ar    1  UNL1        0.1205
     17 N           2.2221    0.7608   -1.7481 N.ar    1  UNL1       -0.2159
     18 C           2.4479    0.4348   -0.4596 C.ar    1  UNL1        0.1674
     19 C           0.0649   -1.9676    1.1027 C.3     1  UNL1        0.1290
     20 O           0.7131   -3.1283    1.5078 O.3     1  UNL1       -0.3846
     21 C          -1.3411   -2.2400    0.6198 C.3     1  UNL1        0.1199
     22 O          -1.5807   -3.5717    0.3817 O.3     1  UNL1       -0.3860
     23 H          -4.7598    2.2380    1.2811 H       1  UNL1        0.0245
     24 H          -5.7769    1.1499    0.2715 H       1  UNL1        0.0245
     25 H          -4.3124    0.4998    1.1246 H       1  UNL1        0.0245
     26 H          -4.4807    1.4560   -1.5511 H       1  UNL1        0.0459
     27 H          -3.6100    2.7160   -0.6606 H       1  UNL1        0.0459
     28 H          -1.7407    1.3168   -0.6182 H       1  UNL1        0.1487
     29 H          -1.4541   -2.0344   -1.5256 H       1  UNL1        0.0721
     30 H           1.0007   -2.0786   -0.8081 H       1  UNL1        0.0867
     31 H           2.1345   -1.0353    2.4007 H       1  UNL1        0.1030
     32 H           5.6072    2.2042    1.3087 H       1  UNL1        0.1438
     33 H           5.6408    3.5275    0.1130 H       1  UNL1        0.1438
     34 H           2.8827    2.0277   -3.3478 H       1  UNL1        0.1048
     35 H          -0.0147   -1.2550    1.9420 H       1  UNL1        0.0666
     36 H           0.6433   -3.2219    2.5043 H       1  UNL1        0.2101
     37 H          -2.1114   -1.8710    1.3219 H       1  UNL1        0.0652
     38 H          -0.9396   -4.0151   -0.1980 H       1  UNL1        0.2100
@<TRIPOS>BOND
     1     1     2    1
     2     2     3    1
     3     3     4   am
     4     4     5    2
     5     4     6    1
     6     6     7    1
     7     7     8    1
     8     8     9    1
     9     9    10   ar
    10    10    11   ar
    11    11    12   ar
    12    12    13   ar
    13    13    14    1
    14    13    15   ar
    15    15    16   ar
    16    16    17   ar
    17    17    18   ar
    18     8    19    1
    19    19    20    1
    20    19    21    1
    21    21    22    1
    22    21     6    1
    23    18     9   ar
    24    18    12   ar
    25     1    23    1
    26     1    24    1
    27     1    25    1
    28     2    26    1
    29     2    27    1
    30     3    28    1
    31     6    29    1
    32     8    30    1
    33    10    31    1
    34    14    32    1
    35    14    33    1
    36    16    34    1
    37    19    35    1
    38    20    36    1
    39    21    37    1
    40    22    38    1
