
     RDKit          3D

 38 40  0  0  0  0  0  0  0  0999 V2000
   -4.7362    1.3813    0.5698 C   0  0  0  0  0  0  0  0  0  0  0  0
   -3.8643    1.6383   -0.6239 C   0  0  0  0  0  0  0  0  0  0  0  0
   -2.6666    0.8376   -0.6236 N   0  0  0  0  0  0  0  0  0  0  0  0
   -2.6769   -0.5806   -0.6302 C   0  0  0  0  0  0  0  0  0  0  0  0
   -3.7964   -1.1541   -0.6367 O   0  0  0  0  0  0  0  0  0  0  0  0
   -1.4120   -1.3935   -0.6297 C   0  0  1  0  0  0  0  0  0  0  0  0
   -0.3164   -0.5656   -0.6223 O   0  0  0  0  0  0  0  0  0  0  0  0
    0.7331   -1.3009   -0.0624 C   0  0  1  0  0  0  0  0  0  0  0  0
    1.8217   -0.4679    0.3354 N   0  0  0  0  0  0  0  0  0  0  0  0
    2.4017   -0.4383    1.5491 C   0  0  0  0  0  0  0  0  0  0  0  0
    3.3982    0.4835    1.5287 N   0  0  0  0  0  0  0  0  0  0  0  0
    3.4364    1.0269    0.2994 C   0  0  0  0  0  0  0  0  0  0  0  0
    4.2256    1.9965   -0.2964 C   0  0  0  0  0  0  0  0  0  0  0  0
    5.2407    2.6225    0.4395 N   0  0  0  0  0  0  0  0  0  0  0  0
    3.9730    2.2958   -1.5798 N   0  0  0  0  0  0  0  0  0  0  0  0
    3.0033    1.7059   -2.3022 C   0  0  0  0  0  0  0  0  0  0  0  0
    2.2221    0.7608   -1.7481 N   0  0  0  0  0  0  0  0  0  0  0  0
    2.4479    0.4348   -0.4596 C   0  0  0  0  0  0  0  0  0  0  0  0
    0.0649   -1.9676    1.1027 C   0  0  2  0  0  0  0  0  0  0  0  0
    0.7131   -3.1283    1.5078 O   0  0  0  0  0  0  0  0  0  0  0  0
   -1.3411   -2.2400    0.6198 C   0  0  2  0  0  0  0  0  0  0  0  0
   -1.5807   -3.5717    0.3817 O   0  0  0  0  0  0  0  0  0  0  0  0
   -4.7598    2.2380    1.2811 H   0  0  0  0  0  0  0  0  0  0  0  0
   -5.7769    1.1499    0.2715 H   0  0  0  0  0  0  0  0  0  0  0  0
   -4.3124    0.4998    1.1246 H   0  0  0  0  0  0  0  0  0  0  0  0
   -4.4807    1.4560   -1.5511 H   0  0  0  0  0  0  0  0  0  0  0  0
   -3.6100    2.7160   -0.6606 H   0  0  0  0  0  0  0  0  0  0  0  0
   -1.7407    1.3168   -0.6182 H   0  0  0  0  0  0  0  0  0  0  0  0
   -1.4541   -2.0344   -1.5256 H   0  0  0  0  0  0  0  0  0  0  0  0
    1.0007   -2.0786   -0.8081 H   0  0  0  0  0  0  0  0  0  0  0  0
    2.1345   -1.0353    2.4007 H   0  0  0  0  0  0  0  0  0  0  0  0
    5.6072    2.2042    1.3087 H   0  0  0  0  0  0  0  0  0  0  0  0
    5.6408    3.5275    0.1130 H   0  0  0  0  0  0  0  0  0  0  0  0
    2.8827    2.0277   -3.3478 H   0  0  0  0  0  0  0  0  0  0  0  0
   -0.0147   -1.2550    1.9420 H   0  0  0  0  0  0  0  0  0  0  0  0
    0.6433   -3.2219    2.5043 H   0  0  0  0  0  0  0  0  0  0  0  0
   -2.1114   -1.8710    1.3219 H   0  0  0  0  0  0  0  0  0  0  0  0
   -0.9396   -4.0151   -0.1980 H   0  0  0  0  0  0  0  0  0  0  0  0
  1  2  1  0
  2  3  1  0
  3  4  1  0
  4  5  2  0
  4  6  1  0
  6  7  1  0
  7  8  1  0
  8  9  1  0
  9 10  1  0
 10 11  2  0
 11 12  1  0
 12 13  2  0
 13 14  1  0
 13 15  1  0
 15 16  2  0
 16 17  1  0
 17 18  2  0
  8 19  1  0
 19 20  1  0
 19 21  1  0
 21 22  1  0
 21  6  1  0
 18  9  1  0
 18 12  1  0
  1 23  1  0
  1 24  1  0
  1 25  1  0
  2 26  1  0
  2 27  1  0
  3 28  1  0
  6 29  1  6
  8 30  1  6
 10 31  1  0
 14 32  1  0
 14 33  1  0
 16 34  1  0
 19 35  1  1
 20 36  1  0
 21 37  1  1
 22 38  1  0
M  END
$$$$
