@<TRIPOS>MOLECULE
*****
 56 57 0 0 0
SMALL
GASTEIGER

@<TRIPOS>ATOM
      1 C          -6.1673    1.6830   -1.8483 C.3     1  UNL1       -0.0653
      2 C          -5.8428    1.0760   -0.5221 C.3     1  UNL1       -0.0559
      3 C          -4.5907    1.5942    0.1058 C.3     1  UNL1       -0.0533
      4 C          -3.3590    1.3618   -0.7404 C.3     1  UNL1       -0.0527
      5 C          -3.2145   -0.1299   -0.9464 C.3     1  UNL1       -0.0462
      6 C          -1.9982   -0.4615   -1.7870 C.3     1  UNL1        0.0056
      7 C          -0.7462    0.0163   -1.1395 C.ar    1  UNL1        0.1108
      8 N          -0.1488    1.1922   -1.2724 N.ar    1  UNL1       -0.2323
      9 C           0.9744    1.2431   -0.5158 C.ar    1  UNL1        0.0899
     10 C           1.9444    2.1898   -0.2824 C.ar    1  UNL1       -0.0271
     11 C           3.0132    1.9229    0.5843 C.ar    1  UNL1       -0.0227
     12 C           4.0165    2.9611    0.7981 C.2     1  UNL1       -0.0496
     13 C           5.0488    2.8349    1.5722 C.2     1  UNL1        0.0027
     14 C           5.9865    3.9437    1.7081 C.2     1  UNL1        0.2593
     15 O           5.7932    5.0243    1.0761 O.2     1  UNL1       -0.2687
     16 N           7.1399    3.8462    2.5494 N.am    1  UNL1       -0.1940
     17 O           7.9771    4.9169    2.6330 O.3     1  UNL1       -0.2949
     18 C           3.0964    0.7020    1.2104 C.ar    1  UNL1       -0.0525
     19 C           2.1143   -0.2300    0.9621 C.ar    1  UNL1       -0.0355
     20 C           1.0523    0.0139    0.1106 C.ar    1  UNL1        0.0689
     21 N          -0.0136   -0.7398   -0.2786 N.ar    1  UNL1       -0.3263
     22 C          -0.3056   -2.0766    0.1381 C.3     1  UNL1        0.0377
     23 C           0.2950   -3.1458   -0.7333 C.3     1  UNL1        0.0164
     24 N          -0.0841   -4.4276   -0.1924 N.3     1  UNL1       -0.3067
     25 C           0.5137   -4.7325    1.0728 C.3     1  UNL1       -0.0130
     26 C           0.1631   -5.5294   -1.1045 C.3     1  UNL1       -0.0130
     27 H          -6.3957    2.7527   -1.6886 H       1  UNL1        0.0230
     28 H          -7.1027    1.2056   -2.2147 H       1  UNL1        0.0230
     29 H          -5.3699    1.5033   -2.5722 H       1  UNL1        0.0230
     30 H          -6.6814    1.3791    0.1720 H       1  UNL1        0.0263
     31 H          -5.8997   -0.0207   -0.5696 H       1  UNL1        0.0263
     32 H          -4.4830    1.0968    1.0929 H       1  UNL1        0.0265
     33 H          -4.7458    2.6876    0.3003 H       1  UNL1        0.0265
     34 H          -2.4950    1.8015   -0.2040 H       1  UNL1        0.0265
     35 H          -3.5418    1.8901   -1.7093 H       1  UNL1        0.0265
     36 H          -4.1026   -0.4815   -1.5027 H       1  UNL1        0.0269
     37 H          -3.1625   -0.5862    0.0478 H       1  UNL1        0.0269
     38 H          -1.9998   -1.5597   -1.9324 H       1  UNL1        0.0343
     39 H          -2.1022   -0.0123   -2.7986 H       1  UNL1        0.0343
     40 H           1.8736    3.1542   -0.7792 H       1  UNL1        0.0645
     41 H           3.8995    3.9087    0.2753 H       1  UNL1        0.0625
     42 H           5.2190    1.9213    2.1154 H       1  UNL1        0.0670
     43 H           7.3061    2.9637    3.0717 H       1  UNL1        0.1825
     44 H           8.5703    4.7815    3.4349 H       1  UNL1        0.2414
     45 H           3.8979    0.4417    1.8875 H       1  UNL1        0.0624
     46 H           2.1546   -1.2024    1.4410 H       1  UNL1        0.0639
     47 H          -0.0259   -2.2126    1.2030 H       1  UNL1        0.0505
     48 H          -1.4222   -2.2437    0.0985 H       1  UNL1        0.0505
     49 H           1.3791   -3.0368   -0.8712 H       1  UNL1        0.0444
     50 H          -0.1556   -3.0838   -1.7446 H       1  UNL1        0.0444
     51 H           1.2885   -5.5442    0.9289 H       1  UNL1        0.0391
     52 H           1.0997   -3.8818    1.5082 H       1  UNL1        0.0391
     53 H          -0.2263   -5.1246    1.7837 H       1  UNL1        0.0391
     54 H           1.1671   -5.9747   -0.9236 H       1  UNL1        0.0391
     55 H           0.0037   -5.2621   -2.1610 H       1  UNL1        0.0391
     56 H          -0.6054   -6.3096   -0.8473 H       1  UNL1        0.0391
@<TRIPOS>BOND
     1     1     2    1
     2     2     3    1
     3     3     4    1
     4     4     5    1
     5     5     6    1
     6     6     7    1
     7     7     8   ar
     8     8     9   ar
     9     9    10   ar
    10    10    11   ar
    11    11    12    1
    12    12    13    2
    13    13    14    1
    14    14    15    2
    15    14    16   am
    16    16    17    1
    17    11    18   ar
    18    18    19   ar
    19    19    20   ar
    20    20    21   ar
    21    21    22    1
    22    22    23    1
    23    23    24    1
    24    24    25    1
    25    24    26    1
    26    21     7   ar
    27    20     9   ar
    28     1    27    1
    29     1    28    1
    30     1    29    1
    31     2    30    1
    32     2    31    1
    33     3    32    1
    34     3    33    1
    35     4    34    1
    36     4    35    1
    37     5    36    1
    38     5    37    1
    39     6    38    1
    40     6    39    1
    41    10    40    1
    42    12    41    1
    43    13    42    1
    44    16    43    1
    45    17    44    1
    46    18    45    1
    47    19    46    1
    48    22    47    1
    49    22    48    1
    50    23    49    1
    51    23    50    1
    52    25    51    1
    53    25    52    1
    54    25    53    1
    55    26    54    1
    56    26    55    1
    57    26    56    1
