
     RDKit          3D

 59 62  0  0  0  0  0  0  0  0999 V2000
   -5.6493   -2.4574   -3.3743 C   0  0  0  0  0  0  0  0  0  0  0  0
   -6.2031   -1.5053   -2.5033 O   0  0  0  0  0  0  0  0  0  0  0  0
   -5.4426   -0.7623   -1.6210 C   0  0  0  0  0  0  0  0  0  0  0  0
   -4.0770   -0.8678   -1.4955 C   0  0  0  0  0  0  0  0  0  0  0  0
   -3.3666   -0.1030   -0.5996 C   0  0  0  0  0  0  0  0  0  0  0  0
   -4.0128    0.8028    0.2083 C   0  0  0  0  0  0  0  0  0  0  0  0
   -5.3929    0.9364    0.1087 C   0  0  0  0  0  0  0  0  0  0  0  0
   -6.0860    0.1620   -0.7939 C   0  0  0  0  0  0  0  0  0  0  0  0
   -7.4777    0.2771   -0.9146 O   0  0  0  0  0  0  0  0  0  0  0  0
   -8.1450    1.2016   -0.0931 C   0  0  0  0  0  0  0  0  0  0  0  0
   -3.0380    1.4561    1.0357 C   0  0  0  0  0  0  0  0  0  0  0  0
   -3.2815    2.1370    2.0567 O   0  0  0  0  0  0  0  0  0  0  0  0
   -1.6682    1.1796    0.4611 C   0  0  0  0  0  0  0  0  0  0  0  0
   -0.7454    0.9685    1.5926 C   0  0  0  0  0  0  0  0  0  0  0  0
    0.6727    0.6912    1.3163 C   0  0  0  0  0  0  0  0  0  0  0  0
    1.0270   -0.5087    0.5314 C   0  0  0  0  0  0  0  0  0  0  0  0
    2.5043   -0.8208    0.6821 C   0  0  0  0  0  0  0  0  0  0  0  0
    3.2871    0.2531    1.1303 N   0  0  0  0  0  0  0  0  0  0  0  0
    3.9033    1.1125    0.1970 C   0  0  0  0  0  0  0  0  0  0  0  0
    4.8359    0.3417   -0.6701 C   0  0  0  0  0  0  0  0  0  0  0  0
    4.3801   -0.1369   -1.8861 C   0  0  0  0  0  0  0  0  0  0  0  0
    5.2388   -0.8602   -2.6944 C   0  0  0  0  0  0  0  0  0  0  0  0
    6.5111   -1.0728   -2.2542 C   0  0  0  0  0  0  0  0  0  0  0  0
    6.9405   -0.5900   -1.0482 C   0  0  0  0  0  0  0  0  0  0  0  0
    8.3253   -0.8327   -0.5898 C   0  0  0  0  0  0  0  0  0  0  0  0
    6.1080    0.1033   -0.2795 N   0  0  0  0  0  0  0  0  0  0  0  0
    2.8552    0.8658    2.3598 C   0  0  0  0  0  0  0  0  0  0  0  0
    1.4059    0.5935    2.6629 C   0  0  0  0  0  0  0  0  0  0  0  0
   -1.8914   -0.0781   -0.3216 C   0  0  0  0  0  0  0  0  0  0  0  0
   -6.4312   -3.2221   -3.6429 H   0  0  0  0  0  0  0  0  0  0  0  0
   -5.3096   -1.9245   -4.2883 H   0  0  0  0  0  0  0  0  0  0  0  0
   -4.8110   -3.0272   -2.8881 H   0  0  0  0  0  0  0  0  0  0  0  0
   -3.5642   -1.5905   -2.1408 H   0  0  0  0  0  0  0  0  0  0  0  0
   -5.8930    1.6616    0.7589 H   0  0  0  0  0  0  0  0  0  0  0  0
   -7.8585    2.2608   -0.3629 H   0  0  0  0  0  0  0  0  0  0  0  0
   -9.2444    1.0908   -0.1609 H   0  0  0  0  0  0  0  0  0  0  0  0
   -7.8356    1.0733    0.9689 H   0  0  0  0  0  0  0  0  0  0  0  0
   -1.4430    2.0522   -0.1732 H   0  0  0  0  0  0  0  0  0  0  0  0
   -1.1919    0.1808    2.2674 H   0  0  0  0  0  0  0  0  0  0  0  0
   -0.7737    1.8961    2.2426 H   0  0  0  0  0  0  0  0  0  0  0  0
    1.1647    1.5728    0.7995 H   0  0  0  0  0  0  0  0  0  0  0  0
    0.7610   -0.5058   -0.5333 H   0  0  0  0  0  0  0  0  0  0  0  0
    0.5065   -1.4022    0.9849 H   0  0  0  0  0  0  0  0  0  0  0  0
    2.8870   -1.2071   -0.2791 H   0  0  0  0  0  0  0  0  0  0  0  0
    2.6714   -1.6885    1.3966 H   0  0  0  0  0  0  0  0  0  0  0  0
    4.4702    1.9551    0.6772 H   0  0  0  0  0  0  0  0  0  0  0  0
    3.1708    1.6092   -0.4896 H   0  0  0  0  0  0  0  0  0  0  0  0
    3.3604    0.0447   -2.2309 H   0  0  0  0  0  0  0  0  0  0  0  0
    4.8605   -1.2173   -3.6268 H   0  0  0  0  0  0  0  0  0  0  0  0
    7.1924   -1.6361   -2.8753 H   0  0  0  0  0  0  0  0  0  0  0  0
    8.9785    0.0362   -0.6920 H   0  0  0  0  0  0  0  0  0  0  0  0
    8.7610   -1.6480   -1.2027 H   0  0  0  0  0  0  0  0  0  0  0  0
    8.3081   -1.1937    0.4789 H   0  0  0  0  0  0  0  0  0  0  0  0
    2.9808    1.9639    2.2694 H   0  0  0  0  0  0  0  0  0  0  0  0
    3.5293    0.5401    3.1849 H   0  0  0  0  0  0  0  0  0  0  0  0
    1.3293   -0.4444    3.0319 H   0  0  0  0  0  0  0  0  0  0  0  0
    1.0143    1.3382    3.3765 H   0  0  0  0  0  0  0  0  0  0  0  0
   -1.4237   -0.0520   -1.3288 H   0  0  0  0  0  0  0  0  0  0  0  0
   -1.6839   -1.0021    0.2138 H   0  0  0  0  0  0  0  0  0  0  0  0
  1  2  1  0
  2  3  1  0
  3  4  2  0
  4  5  1  0
  5  6  2  0
  6  7  1  0
  7  8  2  0
  8  9  1  0
  9 10  1  0
  6 11  1  0
 11 12  2  0
 11 13  1  0
 13 14  1  0
 14 15  1  0
 15 16  1  0
 16 17  1  0
 17 18  1  0
 18 19  1  0
 19 20  1  0
 20 21  2  0
 21 22  1  0
 22 23  2  0
 23 24  1  0
 24 25  1  0
 24 26  2  0
 18 27  1  0
 27 28  1  0
 13 29  1  0
  8  3  1  0
 28 15  1  0
 29  5  1  0
 26 20  1  0
  1 30  1  0
  1 31  1  0
  1 32  1  0
  4 33  1  0
  7 34  1  0
 10 35  1  0
 10 36  1  0
 10 37  1  0
 13 38  1  0
 14 39  1  0
 14 40  1  0
 15 41  1  0
 16 42  1  0
 16 43  1  0
 17 44  1  0
 17 45  1  0
 19 46  1  0
 19 47  1  0
 21 48  1  0
 22 49  1  0
 23 50  1  0
 25 51  1  0
 25 52  1  0
 25 53  1  0
 27 54  1  0
 27 55  1  0
 28 56  1  0
 28 57  1  0
 29 58  1  0
 29 59  1  0
M  END
$$$$
