@<TRIPOS>MOLECULE
*****
 59 62 0 0 0
SMALL
GASTEIGER

@<TRIPOS>ATOM
      1 C          -5.6493   -2.4574   -3.3743 C.3     1  UNL1        0.0790
      2 O          -6.2031   -1.5053   -2.5033 O.3     1  UNL1       -0.4914
      3 C          -5.4426   -0.7623   -1.6210 C.ar    1  UNL1        0.1618
      4 C          -4.0770   -0.8678   -1.4955 C.ar    1  UNL1       -0.0124
      5 C          -3.3666   -0.1030   -0.5996 C.ar    1  UNL1       -0.0325
      6 C          -4.0128    0.8028    0.2083 C.ar    1  UNL1        0.0246
      7 C          -5.3929    0.9364    0.1087 C.ar    1  UNL1       -0.0056
      8 C          -6.0860    0.1620   -0.7939 C.ar    1  UNL1        0.1622
      9 O          -7.4777    0.2771   -0.9146 O.3     1  UNL1       -0.4914
     10 C          -8.1450    1.2016   -0.0931 C.3     1  UNL1        0.0790
     11 C          -3.0380    1.4561    1.0357 C.2     1  UNL1        0.1669
     12 O          -3.2815    2.1370    2.0567 O.2     1  UNL1       -0.2917
     13 C          -1.6682    1.1796    0.4611 C.3     1  UNL1        0.0264
     14 C          -0.7454    0.9685    1.5926 C.3     1  UNL1       -0.0399
     15 C           0.6727    0.6912    1.3163 C.3     1  UNL1       -0.0381
     16 C           1.0270   -0.5087    0.5314 C.3     1  UNL1       -0.0373
     17 C           2.5043   -0.8208    0.6821 C.3     1  UNL1       -0.0005
     18 N           3.2871    0.2531    1.1303 N.3     1  UNL1       -0.2967
     19 C           3.9033    1.1125    0.1970 C.3     1  UNL1        0.0412
     20 C           4.8359    0.3417   -0.6701 C.ar    1  UNL1        0.0555
     21 C           4.3801   -0.1369   -1.8861 C.ar    1  UNL1       -0.0391
     22 C           5.2388   -0.8602   -2.6944 C.ar    1  UNL1       -0.0583
     23 C           6.5111   -1.0728   -2.2542 C.ar    1  UNL1       -0.0406
     24 C           6.9405   -0.5900   -1.0482 C.ar    1  UNL1        0.0386
     25 C           8.3253   -0.8327   -0.5898 C.3     1  UNL1       -0.0223
     26 N           6.1080    0.1033   -0.2795 N.ar    1  UNL1       -0.2555
     27 C           2.8552    0.8658    2.3598 C.3     1  UNL1       -0.0005
     28 C           1.4059    0.5935    2.6629 C.3     1  UNL1       -0.0373
     29 C          -1.8914   -0.0781   -0.3216 C.3     1  UNL1       -0.0170
     30 H          -6.4312   -3.2221   -3.6429 H       1  UNL1        0.0660
     31 H          -5.3096   -1.9245   -4.2883 H       1  UNL1        0.0660
     32 H          -4.8110   -3.0272   -2.8881 H       1  UNL1        0.0660
     33 H          -3.5642   -1.5905   -2.1408 H       1  UNL1        0.0658
     34 H          -5.8930    1.6616    0.7589 H       1  UNL1        0.0662
     35 H          -7.8585    2.2608   -0.3629 H       1  UNL1        0.0660
     36 H          -9.2444    1.0908   -0.1609 H       1  UNL1        0.0660
     37 H          -7.8356    1.0733    0.9689 H       1  UNL1        0.0660
     38 H          -1.4430    2.0522   -0.1732 H       1  UNL1        0.0384
     39 H          -1.1919    0.1808    2.2674 H       1  UNL1        0.0275
     40 H          -0.7737    1.8961    2.2426 H       1  UNL1        0.0275
     41 H           1.1647    1.5728    0.7995 H       1  UNL1        0.0302
     42 H           0.7610   -0.5058   -0.5333 H       1  UNL1        0.0280
     43 H           0.5065   -1.4022    0.9849 H       1  UNL1        0.0280
     44 H           2.8870   -1.2071   -0.2791 H       1  UNL1        0.0427
     45 H           2.6714   -1.6885    1.3966 H       1  UNL1        0.0427
     46 H           4.4702    1.9551    0.6772 H       1  UNL1        0.0491
     47 H           3.1708    1.6092   -0.4896 H       1  UNL1        0.0491
     48 H           3.3604    0.0447   -2.2309 H       1  UNL1        0.0636
     49 H           4.8605   -1.2173   -3.6268 H       1  UNL1        0.0619
     50 H           7.1924   -1.6361   -2.8753 H       1  UNL1        0.0635
     51 H           8.9785    0.0362   -0.6920 H       1  UNL1        0.0292
     52 H           8.7610   -1.6480   -1.2027 H       1  UNL1        0.0292
     53 H           8.3081   -1.1937    0.4789 H       1  UNL1        0.0292
     54 H           2.9808    1.9639    2.2694 H       1  UNL1        0.0427
     55 H           3.5293    0.5401    3.1849 H       1  UNL1        0.0427
     56 H           1.3293   -0.4444    3.0319 H       1  UNL1        0.0280
     57 H           1.0143    1.3382    3.3765 H       1  UNL1        0.0280
     58 H          -1.4237   -0.0520   -1.3288 H       1  UNL1        0.0320
     59 H          -1.6839   -1.0021    0.2138 H       1  UNL1        0.0320
@<TRIPOS>BOND
     1     1     2    1
     2     2     3    1
     3     3     4   ar
     4     4     5   ar
     5     5     6   ar
     6     6     7   ar
     7     7     8   ar
     8     8     9    1
     9     9    10    1
    10     6    11    1
    11    11    12    2
    12    11    13    1
    13    13    14    1
    14    14    15    1
    15    15    16    1
    16    16    17    1
    17    17    18    1
    18    18    19    1
    19    19    20    1
    20    20    21   ar
    21    21    22   ar
    22    22    23   ar
    23    23    24   ar
    24    24    25    1
    25    24    26   ar
    26    18    27    1
    27    27    28    1
    28    13    29    1
    29     8     3   ar
    30    28    15    1
    31    29     5    1
    32    26    20   ar
    33     1    30    1
    34     1    31    1
    35     1    32    1
    36     4    33    1
    37     7    34    1
    38    10    35    1
    39    10    36    1
    40    10    37    1
    41    13    38    1
    42    14    39    1
    43    14    40    1
    44    15    41    1
    45    16    42    1
    46    16    43    1
    47    17    44    1
    48    17    45    1
    49    19    46    1
    50    19    47    1
    51    21    48    1
    52    22    49    1
    53    23    50    1
    54    25    51    1
    55    25    52    1
    56    25    53    1
    57    27    54    1
    58    27    55    1
    59    28    56    1
    60    28    57    1
    61    29    58    1
    62    29    59    1
