@<TRIPOS>MOLECULE
*****
 58 60 0 0 0
SMALL
GASTEIGER

@<TRIPOS>ATOM
      1 C           6.1512   -2.4866   -0.1598 C.3     1  UNL1       -0.0638
      2 C           5.3160   -2.0826   -1.3323 C.3     1  UNL1       -0.0350
      3 C           5.0383   -0.5909   -1.3286 C.3     1  UNL1        0.0817
      4 S           4.1716   -0.1282    0.1381 S.O2    1  UNL1        0.0318
      5 O           4.0126    1.3656    0.1557 O.2     1  UNL1       -0.1580
      6 O           5.0299   -0.5522    1.3189 O.2     1  UNL1       -0.1580
      7 N           2.6563   -0.9263    0.2970 N.3     1  UNL1       -0.1811
      8 C           1.7566   -0.6077   -0.7869 C.3     1  UNL1        0.0210
      9 C           0.3209   -0.7772   -0.2246 C.3     1  UNL1       -0.0260
     10 C          -0.0337    0.3910    0.6244 C.3     1  UNL1        0.0308
     11 C          -1.0820    0.1317    1.6571 C.3     1  UNL1        0.0230
     12 N          -2.3752   -0.2678    1.2785 N.am    1  UNL1       -0.3104
     13 C          -2.8549   -1.4238    0.6555 C.2     1  UNL1        0.2455
     14 O          -2.0889   -2.3366    0.3483 O.2     1  UNL1       -0.2702
     15 C          -4.2877   -1.6265    0.3287 C.ar    1  UNL1        0.0550
     16 C          -4.9517   -0.8323   -0.5707 C.ar    1  UNL1       -0.0468
     17 C          -6.2693   -1.0498   -0.8482 C.ar    1  UNL1       -0.0426
     18 C          -6.9700   -2.0856   -0.2225 C.ar    1  UNL1        0.0424
     19 CL         -8.6627   -2.3376   -0.6027 Cl      1  UNL1       -0.0835
     20 C          -6.3183   -2.8964    0.6866 C.ar    1  UNL1       -0.0243
     21 C          -4.9930   -2.6541    0.9458 C.ar    1  UNL1        0.0544
     22 CL         -4.1603   -3.6745    2.0964 Cl      1  UNL1       -0.0827
     23 C          -0.3657    1.6062   -0.1794 C.ar    1  UNL1        0.0493
     24 C          -0.4123    1.6019   -1.5338 C.ar    1  UNL1       -0.0398
     25 C          -0.7103    2.7489   -2.2723 C.ar    1  UNL1       -0.0584
     26 C          -0.9649    3.9219   -1.6005 C.ar    1  UNL1       -0.0406
     27 C          -0.9115    3.8999   -0.2274 C.ar    1  UNL1        0.0385
     28 C          -1.1673    5.1139    0.5993 C.3     1  UNL1       -0.0224
     29 N          -0.6178    2.7641    0.4707 N.ar    1  UNL1       -0.2562
     30 C           1.2361    0.7424    1.4409 C.3     1  UNL1       -0.0260
     31 C           2.0701   -0.4810    1.5640 C.3     1  UNL1        0.0210
     32 H           5.5464   -2.8722    0.6936 H       1  UNL1        0.0230
     33 H           6.7754   -1.6468    0.2197 H       1  UNL1        0.0230
     34 H           6.8672   -3.2993   -0.4448 H       1  UNL1        0.0230
     35 H           5.8522   -2.3117   -2.2957 H       1  UNL1        0.0279
     36 H           4.3774   -2.6582   -1.3409 H       1  UNL1        0.0279
     37 H           4.5240   -0.2633   -2.2459 H       1  UNL1        0.0515
     38 H           6.0363   -0.0984   -1.2933 H       1  UNL1        0.0515
     39 H           1.8199   -1.3523   -1.6104 H       1  UNL1        0.0444
     40 H           1.9170    0.3976   -1.1918 H       1  UNL1        0.0444
     41 H           0.4348   -1.6706    0.4502 H       1  UNL1        0.0288
     42 H          -0.3816   -0.9218   -1.0411 H       1  UNL1        0.0288
     43 H          -1.1056    1.0207    2.3716 H       1  UNL1        0.0471
     44 H          -0.5853   -0.6494    2.3469 H       1  UNL1        0.0471
     45 H          -3.1633    0.4430    1.5027 H       1  UNL1        0.1490
     46 H          -4.3668   -0.0342   -1.0378 H       1  UNL1        0.0626
     47 H          -6.7730   -0.4143   -1.5590 H       1  UNL1        0.0632
     48 H          -6.8685   -3.7089    1.1778 H       1  UNL1        0.0647
     49 H          -0.2275    0.7171   -2.1156 H       1  UNL1        0.0636
     50 H          -0.7447    2.7401   -3.3493 H       1  UNL1        0.0619
     51 H          -1.2028    4.8539   -2.1015 H       1  UNL1        0.0635
     52 H          -2.1175    4.9631    1.1335 H       1  UNL1        0.0292
     53 H          -0.3532    5.1828    1.3707 H       1  UNL1        0.0292
     54 H          -1.1132    6.0484    0.0115 H       1  UNL1        0.0292
     55 H           1.8032    1.5097    0.8751 H       1  UNL1        0.0288
     56 H           0.9660    1.0959    2.4376 H       1  UNL1        0.0288
     57 H           1.6026   -1.3415    2.0486 H       1  UNL1        0.0444
     58 H           2.9185   -0.1988    2.2711 H       1  UNL1        0.0444
@<TRIPOS>BOND
     1     1     2    1
     2     2     3    1
     3     3     4    1
     4     4     5    2
     5     4     6    2
     6     4     7    1
     7     7     8    1
     8     8     9    1
     9     9    10    1
    10    10    11    1
    11    11    12    1
    12    12    13   am
    13    13    14    2
    14    13    15    1
    15    15    16   ar
    16    16    17   ar
    17    17    18   ar
    18    18    19    1
    19    18    20   ar
    20    20    21   ar
    21    21    22    1
    22    10    23    1
    23    23    24   ar
    24    24    25   ar
    25    25    26   ar
    26    26    27   ar
    27    27    28    1
    28    27    29   ar
    29    10    30    1
    30    30    31    1
    31    31     7    1
    32    21    15   ar
    33    29    23   ar
    34     1    32    1
    35     1    33    1
    36     1    34    1
    37     2    35    1
    38     2    36    1
    39     3    37    1
    40     3    38    1
    41     8    39    1
    42     8    40    1
    43     9    41    1
    44     9    42    1
    45    11    43    1
    46    11    44    1
    47    12    45    1
    48    16    46    1
    49    17    47    1
    50    20    48    1
    51    24    49    1
    52    25    50    1
    53    26    51    1
    54    28    52    1
    55    28    53    1
    56    28    54    1
    57    30    55    1
    58    30    56    1
    59    31    57    1
    60    31    58    1
