
     RDKit          3D

 58 60  0  0  0  0  0  0  0  0999 V2000
    6.1512   -2.4866   -0.1598 C   0  0  0  0  0  0  0  0  0  0  0  0
    5.3160   -2.0826   -1.3323 C   0  0  0  0  0  0  0  0  0  0  0  0
    5.0383   -0.5909   -1.3286 C   0  0  0  0  0  0  0  0  0  0  0  0
    4.1716   -0.1282    0.1381 S   0  0  0  0  0  6  0  0  0  0  0  0
    4.0126    1.3656    0.1557 O   0  0  0  0  0  0  0  0  0  0  0  0
    5.0299   -0.5522    1.3189 O   0  0  0  0  0  0  0  0  0  0  0  0
    2.6563   -0.9263    0.2970 N   0  0  0  0  0  0  0  0  0  0  0  0
    1.7566   -0.6077   -0.7869 C   0  0  0  0  0  0  0  0  0  0  0  0
    0.3209   -0.7772   -0.2246 C   0  0  0  0  0  0  0  0  0  0  0  0
   -0.0337    0.3910    0.6244 C   0  0  0  0  0  0  0  0  0  0  0  0
   -1.0820    0.1317    1.6571 C   0  0  0  0  0  0  0  0  0  0  0  0
   -2.3752   -0.2678    1.2785 N   0  0  0  0  0  0  0  0  0  0  0  0
   -2.8549   -1.4238    0.6555 C   0  0  0  0  0  0  0  0  0  0  0  0
   -2.0889   -2.3366    0.3483 O   0  0  0  0  0  0  0  0  0  0  0  0
   -4.2877   -1.6265    0.3287 C   0  0  0  0  0  0  0  0  0  0  0  0
   -4.9517   -0.8323   -0.5707 C   0  0  0  0  0  0  0  0  0  0  0  0
   -6.2693   -1.0498   -0.8482 C   0  0  0  0  0  0  0  0  0  0  0  0
   -6.9700   -2.0856   -0.2225 C   0  0  0  0  0  0  0  0  0  0  0  0
   -8.6627   -2.3376   -0.6027 Cl  0  0  0  0  0  0  0  0  0  0  0  0
   -6.3183   -2.8964    0.6866 C   0  0  0  0  0  0  0  0  0  0  0  0
   -4.9930   -2.6541    0.9458 C   0  0  0  0  0  0  0  0  0  0  0  0
   -4.1603   -3.6745    2.0964 Cl  0  0  0  0  0  0  0  0  0  0  0  0
   -0.3657    1.6062   -0.1794 C   0  0  0  0  0  0  0  0  0  0  0  0
   -0.4123    1.6019   -1.5338 C   0  0  0  0  0  0  0  0  0  0  0  0
   -0.7103    2.7489   -2.2723 C   0  0  0  0  0  0  0  0  0  0  0  0
   -0.9649    3.9219   -1.6005 C   0  0  0  0  0  0  0  0  0  0  0  0
   -0.9115    3.8999   -0.2274 C   0  0  0  0  0  0  0  0  0  0  0  0
   -1.1673    5.1139    0.5993 C   0  0  0  0  0  0  0  0  0  0  0  0
   -0.6178    2.7641    0.4707 N   0  0  0  0  0  0  0  0  0  0  0  0
    1.2361    0.7424    1.4409 C   0  0  0  0  0  0  0  0  0  0  0  0
    2.0701   -0.4810    1.5640 C   0  0  0  0  0  0  0  0  0  0  0  0
    5.5464   -2.8722    0.6936 H   0  0  0  0  0  0  0  0  0  0  0  0
    6.7754   -1.6468    0.2197 H   0  0  0  0  0  0  0  0  0  0  0  0
    6.8672   -3.2993   -0.4448 H   0  0  0  0  0  0  0  0  0  0  0  0
    5.8522   -2.3117   -2.2957 H   0  0  0  0  0  0  0  0  0  0  0  0
    4.3774   -2.6582   -1.3409 H   0  0  0  0  0  0  0  0  0  0  0  0
    4.5240   -0.2633   -2.2459 H   0  0  0  0  0  0  0  0  0  0  0  0
    6.0363   -0.0984   -1.2933 H   0  0  0  0  0  0  0  0  0  0  0  0
    1.8199   -1.3523   -1.6104 H   0  0  0  0  0  0  0  0  0  0  0  0
    1.9170    0.3976   -1.1918 H   0  0  0  0  0  0  0  0  0  0  0  0
    0.4348   -1.6706    0.4502 H   0  0  0  0  0  0  0  0  0  0  0  0
   -0.3816   -0.9218   -1.0411 H   0  0  0  0  0  0  0  0  0  0  0  0
   -1.1056    1.0207    2.3716 H   0  0  0  0  0  0  0  0  0  0  0  0
   -0.5853   -0.6494    2.3469 H   0  0  0  0  0  0  0  0  0  0  0  0
   -3.1633    0.4430    1.5027 H   0  0  0  0  0  0  0  0  0  0  0  0
   -4.3668   -0.0342   -1.0378 H   0  0  0  0  0  0  0  0  0  0  0  0
   -6.7730   -0.4143   -1.5590 H   0  0  0  0  0  0  0  0  0  0  0  0
   -6.8685   -3.7089    1.1778 H   0  0  0  0  0  0  0  0  0  0  0  0
   -0.2275    0.7171   -2.1156 H   0  0  0  0  0  0  0  0  0  0  0  0
   -0.7447    2.7401   -3.3493 H   0  0  0  0  0  0  0  0  0  0  0  0
   -1.2028    4.8539   -2.1015 H   0  0  0  0  0  0  0  0  0  0  0  0
   -2.1175    4.9631    1.1335 H   0  0  0  0  0  0  0  0  0  0  0  0
   -0.3532    5.1828    1.3707 H   0  0  0  0  0  0  0  0  0  0  0  0
   -1.1132    6.0484    0.0115 H   0  0  0  0  0  0  0  0  0  0  0  0
    1.8032    1.5097    0.8751 H   0  0  0  0  0  0  0  0  0  0  0  0
    0.9660    1.0959    2.4376 H   0  0  0  0  0  0  0  0  0  0  0  0
    1.6026   -1.3415    2.0486 H   0  0  0  0  0  0  0  0  0  0  0  0
    2.9185   -0.1988    2.2711 H   0  0  0  0  0  0  0  0  0  0  0  0
  1  2  1  0
  2  3  1  0
  3  4  1  0
  4  5  2  0
  4  6  2  0
  4  7  1  0
  7  8  1  0
  8  9  1  0
  9 10  1  0
 10 11  1  0
 11 12  1  0
 12 13  1  0
 13 14  2  0
 13 15  1  0
 15 16  2  0
 16 17  1  0
 17 18  2  0
 18 19  1  0
 18 20  1  0
 20 21  2  0
 21 22  1  0
 10 23  1  0
 23 24  2  0
 24 25  1  0
 25 26  2  0
 26 27  1  0
 27 28  1  0
 27 29  2  0
 10 30  1  0
 30 31  1  0
 31  7  1  0
 21 15  1  0
 29 23  1  0
  1 32  1  0
  1 33  1  0
  1 34  1  0
  2 35  1  0
  2 36  1  0
  3 37  1  0
  3 38  1  0
  8 39  1  0
  8 40  1  0
  9 41  1  0
  9 42  1  0
 11 43  1  0
 11 44  1  0
 12 45  1  0
 16 46  1  0
 17 47  1  0
 20 48  1  0
 24 49  1  0
 25 50  1  0
 26 51  1  0
 28 52  1  0
 28 53  1  0
 28 54  1  0
 30 55  1  0
 30 56  1  0
 31 57  1  0
 31 58  1  0
M  END
$$$$
