@<TRIPOS>MOLECULE
*****
 52 56 0 0 0
SMALL
GASTEIGER

@<TRIPOS>ATOM
      1 C          -6.0225    3.6792   -0.2742 C.3     1  UNL1        0.0004
      2 N          -5.3388    2.5283    0.2664 N.am    1  UNL1       -0.3144
      3 C          -3.9302    2.3748    0.1789 C.2     1  UNL1        0.2460
      4 O          -3.3062    3.3061   -0.4039 O.2     1  UNL1       -0.2701
      5 C          -3.2147    1.2425    0.7084 C.ar    1  UNL1        0.0666
      6 C          -3.6749    0.2523    1.5416 C.ar    1  UNL1        0.0175
      7 N          -2.6525   -0.6012    1.7862 N.ar    1  UNL1       -0.3503
      8 C          -2.7787   -1.7542    2.6160 C.3     1  UNL1        0.0117
      9 C          -1.5454   -0.2081    1.1470 C.ar    1  UNL1        0.0570
     10 C          -1.8947    0.9443    0.4727 C.ar    1  UNL1        0.0722
     11 C          -0.6704    1.3657   -0.2203 C.2     1  UNL1        0.2553
     12 O          -0.6131    2.3944   -0.9473 O.2     1  UNL1       -0.2695
     13 N           0.3981    0.4833    0.0345 N.am    1  UNL1       -0.2374
     14 C           1.7576    0.5467   -0.4283 C.ar    1  UNL1        0.1499
     15 C           2.0845   -0.0734   -1.6060 C.ar    1  UNL1       -0.0131
     16 C           3.3995   -0.0312   -2.0410 C.ar    1  UNL1       -0.0012
     17 C           3.8226   -0.6858   -3.3014 C.3     1  UNL1       -0.0360
     18 C           4.2863    0.6457   -1.2365 C.ar    1  UNL1        0.1811
     19 N           5.6056    0.8637   -1.3680 N.ar    1  UNL1       -0.1275
     20 N           6.0469    1.5702   -0.3357 N.ar    1  UNL1       -0.1263
     21 C           5.0177    1.8340    0.5018 C.ar    1  UNL1        0.2205
     22 C           5.0569    2.5943    1.7712 C.3     1  UNL1        0.2993
     23 F           5.8963    2.0246    2.7208 F       1  UNL1       -0.2005
     24 F           5.5529    3.8698    1.5301 F       1  UNL1       -0.2005
     25 N           3.9449    1.2506   -0.0811 N.ar    1  UNL1       -0.1896
     26 N           2.6796    1.1978    0.3175 N.ar    1  UNL1       -0.1476
     27 C          -0.1301   -0.5709    0.9152 C.3     1  UNL1        0.0986
     28 C          -0.1017   -1.8792    0.2421 C.ar    1  UNL1       -0.0207
     29 C          -0.7440   -2.1547   -0.9351 C.ar    1  UNL1       -0.0550
     30 C          -0.6621   -3.4029   -1.5415 C.ar    1  UNL1       -0.0431
     31 C           0.0747   -4.3987   -0.9658 C.ar    1  UNL1        0.0410
     32 CL          0.2168   -6.0065   -1.6934 Cl      1  UNL1       -0.0835
     33 C           0.7309   -4.1425    0.2208 C.ar    1  UNL1       -0.0431
     34 C           0.6472   -2.9020    0.8215 C.ar    1  UNL1       -0.0550
     35 H          -7.0588    3.3903   -0.5422 H       1  UNL1        0.0426
     36 H          -5.5073    3.9910   -1.2059 H       1  UNL1        0.0426
     37 H          -6.0030    4.5584    0.4109 H       1  UNL1        0.0426
     38 H          -5.8709    1.7464    0.7499 H       1  UNL1        0.1487
     39 H          -4.6685    0.1667    1.9317 H       1  UNL1        0.0817
     40 H          -1.8239   -1.9399    3.1676 H       1  UNL1        0.0456
     41 H          -3.5924   -1.6327    3.3600 H       1  UNL1        0.0456
     42 H          -3.0692   -2.6525    2.0204 H       1  UNL1        0.0456
     43 H           1.3132   -0.5735   -2.1610 H       1  UNL1        0.0656
     44 H           4.6758   -0.1620   -3.7240 H       1  UNL1        0.0279
     45 H           4.1574   -1.7214   -2.9937 H       1  UNL1        0.0279
     46 H           2.9973   -0.7478   -4.0414 H       1  UNL1        0.0279
     47 H           4.0663    2.6651    2.2252 H       1  UNL1        0.1105
     48 H           0.4584   -0.5800    1.8493 H       1  UNL1        0.0620
     49 H          -1.3273   -1.4153   -1.4192 H       1  UNL1        0.0621
     50 H          -1.1760   -3.5861   -2.4607 H       1  UNL1        0.0632
     51 H           1.3213   -4.9274    0.6786 H       1  UNL1        0.0632
     52 H           1.1683   -2.7362    1.7411 H       1  UNL1        0.0621
@<TRIPOS>BOND
     1     1     2    1
     2     2     3   am
     3     3     4    2
     4     3     5    1
     5     5     6   ar
     6     6     7   ar
     7     7     8    1
     8     7     9   ar
     9     9    10   ar
    10    10    11    1
    11    11    12    2
    12    11    13   am
    13    13    14    1
    14    14    15   ar
    15    15    16   ar
    16    16    17    1
    17    16    18   ar
    18    18    19   ar
    19    19    20   ar
    20    20    21   ar
    21    21    22    1
    22    22    23    1
    23    22    24    1
    24    21    25   ar
    25    25    26   ar
    26    13    27    1
    27    27    28    1
    28    28    29   ar
    29    29    30   ar
    30    30    31   ar
    31    31    32    1
    32    31    33   ar
    33    33    34   ar
    34    10     5   ar
    35    26    14   ar
    36    34    28   ar
    37    27     9    1
    38    25    18   ar
    39     1    35    1
    40     1    36    1
    41     1    37    1
    42     2    38    1
    43     6    39    1
    44     8    40    1
    45     8    41    1
    46     8    42    1
    47    15    43    1
    48    17    44    1
    49    17    45    1
    50    17    46    1
    51    22    47    1
    52    27    48    1
    53    29    49    1
    54    30    50    1
    55    33    51    1
    56    34    52    1
