@<TRIPOS>MOLECULE
*****
 47 49 0 0 0
SMALL
GASTEIGER

@<TRIPOS>ATOM
      1 N           8.0444   -1.8117    0.5516 N.3     1  UNL1       -0.2035
      2 S           7.7068   -0.7327   -0.7511 S.O2    1  UNL1        0.0559
      3 O           8.4496    0.5612   -0.5882 O.2     1  UNL1       -0.1533
      4 O           8.0931   -1.3351   -2.0698 O.2     1  UNL1       -0.1533
      5 C           5.9898   -0.3636   -0.8153 C.ar    1  UNL1        0.1050
      6 C           5.1350   -1.1438   -1.5639 C.ar    1  UNL1       -0.0346
      7 C           3.7601   -0.9171   -1.6665 C.ar    1  UNL1       -0.0478
      8 C           3.2227    0.1433   -0.9842 C.ar    1  UNL1        0.0368
      9 C           4.0800    0.9218   -0.2364 C.ar    1  UNL1       -0.0478
     10 C           5.4304    0.6953   -0.1385 C.ar    1  UNL1       -0.0346
     11 C           1.7904    0.3444   -1.1171 C.2     1  UNL1        0.2441
     12 O           1.1691   -0.4691   -1.8440 O.2     1  UNL1       -0.2702
     13 N           0.9932    1.3447   -0.5310 N.am    1  UNL1       -0.3110
     14 C          -0.3300    1.8309   -0.4179 C.3     1  UNL1        0.0161
     15 C          -1.3577    0.9494    0.2329 C.3     1  UNL1       -0.0103
     16 C          -1.5396   -0.3221   -0.4964 C.3     1  UNL1       -0.0594
     17 C          -2.6379    1.7373    0.4600 C.3     1  UNL1        0.0273
     18 N          -3.6938    1.0101    1.0655 N.ar    1  UNL1       -0.3463
     19 C          -3.7550    0.9343    2.4221 C.ar    1  UNL1        0.0057
     20 C          -4.8259    0.1844    2.8470 C.ar    1  UNL1       -0.0364
     21 C          -5.4740   -0.2345    1.7089 C.ar    1  UNL1       -0.0002
     22 C          -6.5987   -0.9979    1.4770 C.ar    1  UNL1       -0.0526
     23 C          -6.9904   -1.2283    0.1846 C.ar    1  UNL1       -0.0611
     24 C          -6.2703   -0.7045   -0.8617 C.ar    1  UNL1       -0.0598
     25 C          -5.1398    0.0640   -0.6799 C.ar    1  UNL1       -0.0376
     26 C          -4.7671    0.2801    0.6416 C.ar    1  UNL1        0.0491
     27 H           8.7441   -1.3541    1.1646 H       1  UNL1        0.1442
     28 H           7.1810   -1.9586    1.1325 H       1  UNL1        0.1442
     29 H           5.5559   -1.9811   -2.1033 H       1  UNL1        0.0637
     30 H           3.2003   -1.6010   -2.2853 H       1  UNL1        0.0626
     31 H           3.6720    1.7614    0.3073 H       1  UNL1        0.0626
     32 H           6.0696    1.3346    0.4629 H       1  UNL1        0.0637
     33 H           1.6822    1.9267    0.0247 H       1  UNL1        0.1490
     34 H          -0.7110    2.1790   -1.4386 H       1  UNL1        0.0465
     35 H          -0.3238    2.7904    0.1595 H       1  UNL1        0.0465
     36 H          -0.9535    0.7644    1.2801 H       1  UNL1        0.0330
     37 H          -0.7559   -1.0421   -0.1362 H       1  UNL1        0.0233
     38 H          -2.5006   -0.8504   -0.1786 H       1  UNL1        0.0233
     39 H          -1.4831   -0.2712   -1.5806 H       1  UNL1        0.0233
     40 H          -2.4088    2.6627    1.0013 H       1  UNL1        0.0495
     41 H          -2.9936    2.0768   -0.5552 H       1  UNL1        0.0495
     42 H          -3.0979    1.3691    3.1874 H       1  UNL1        0.0809
     43 H          -5.1567   -0.0685    3.8292 H       1  UNL1        0.0639
     44 H          -7.1714   -1.4138    2.2898 H       1  UNL1        0.0624
     45 H          -7.8801   -1.8321    0.0010 H       1  UNL1        0.0618
     46 H          -6.6041   -0.9027   -1.8911 H       1  UNL1        0.0618
     47 H          -4.5491    0.4925   -1.5008 H       1  UNL1        0.0638
@<TRIPOS>BOND
     1     1     2    1
     2     2     3    2
     3     2     4    2
     4     2     5    1
     5     5     6   ar
     6     6     7   ar
     7     7     8   ar
     8     8     9   ar
     9     9    10   ar
    10     8    11    1
    11    11    12    2
    12    11    13   am
    13    13    14    1
    14    14    15    1
    15    15    16    1
    16    15    17    1
    17    17    18    1
    18    18    19   ar
    19    19    20   ar
    20    20    21   ar
    21    21    22   ar
    22    22    23   ar
    23    23    24   ar
    24    24    25   ar
    25    25    26   ar
    26    10     5   ar
    27    26    18   ar
    28    26    21   ar
    29     1    27    1
    30     1    28    1
    31     6    29    1
    32     7    30    1
    33     9    31    1
    34    10    32    1
    35    13    33    1
    36    14    34    1
    37    14    35    1
    38    15    36    1
    39    16    37    1
    40    16    38    1
    41    16    39    1
    42    17    40    1
    43    17    41    1
    44    19    42    1
    45    20    43    1
    46    22    44    1
    47    23    45    1
    48    24    46    1
    49    25    47    1
