@<TRIPOS>MOLECULE
*****
 59 63 0 0 0
SMALL
GASTEIGER

@<TRIPOS>ATOM
      1 C          -3.7164    5.1155   -0.1565 C.3     1  UNL1        0.0789
      2 O          -5.0016    4.5115   -0.1648 O.3     1  UNL1       -0.4936
      3 C          -5.1778    3.1469   -0.2471 C.ar    1  UNL1        0.1389
      4 C          -4.1050    2.2818   -0.3269 C.ar    1  UNL1       -0.0107
      5 C          -4.2975    0.9350   -0.4076 C.ar    1  UNL1       -0.0115
      6 C          -3.1290    0.0625   -0.4906 C.ar    1  UNL1        0.0210
      7 C          -3.0964   -1.0666    0.2949 C.ar    1  UNL1       -0.0074
      8 C          -2.0114   -1.8985    0.2330 C.ar    1  UNL1        0.1446
      9 O          -1.9787   -3.0334    1.0225 O.3     1  UNL1       -0.4930
     10 C          -3.0439   -3.3277    1.8757 C.3     1  UNL1        0.0789
     11 C          -0.9264   -1.6610   -0.5916 C.ar    1  UNL1        0.0943
     12 N           0.2118   -2.5068   -0.6768 N.ar    1  UNL1       -0.2733
     13 C           0.1821   -3.6840   -1.3461 C.ar    1  UNL1        0.2563
     14 O          -0.9036   -4.0276   -1.9098 O.2     1  UNL1       -0.2673
     15 C           1.2870   -4.4946   -1.4219 C.ar    1  UNL1        0.0039
     16 C           2.4683   -4.1487   -0.8241 C.ar    1  UNL1       -0.0474
     17 C           2.5129   -2.9511   -0.1383 C.ar    1  UNL1        0.0009
     18 C           3.6824   -2.5530    0.4848 C.ar    1  UNL1       -0.0259
     19 C           3.7132   -1.3428    1.1729 C.ar    1  UNL1        0.1093
     20 S           5.2295   -0.9154    1.9357 S.O2    1  UNL1        0.0746
     21 O           5.9139   -2.1777    2.3625 O.2     1  UNL1       -0.1499
     22 O           4.9914   -0.1124    3.1872 O.2     1  UNL1       -0.1499
     23 N           6.2547   -0.0773    0.8403 N.pl3   1  UNL1       -0.1836
     24 C           5.8783    1.1853    0.2601 C.ar    1  UNL1        0.2347
     25 N           4.7046    1.7685    0.5503 N.ar    1  UNL1       -0.2217
     26 C           4.3373    2.9468    0.0173 C.ar    1  UNL1        0.0327
     27 C           5.1711    3.6133   -0.8659 C.ar    1  UNL1       -0.0253
     28 C           6.3767    3.0057   -1.1586 C.ar    1  UNL1        0.0327
     29 N           6.6917    1.8260   -0.5956 N.ar    1  UNL1       -0.2217
     30 C           2.5804   -0.5605    1.2236 C.ar    1  UNL1       -0.0331
     31 C           1.4007   -0.9669    0.5924 C.ar    1  UNL1       -0.0353
     32 C           1.3793   -2.1691   -0.0882 C.ar    1  UNL1        0.0574
     33 C          -0.9808   -0.5225   -1.3706 C.ar    1  UNL1        0.0017
     34 C          -2.0744    0.3351   -1.3218 C.ar    1  UNL1        0.1333
     35 F          -2.1258    1.4498   -2.0854 F       1  UNL1       -0.2048
     36 C          -5.5734    0.4416   -0.4091 C.ar    1  UNL1       -0.0523
     37 C          -6.6619    1.2873   -0.3301 C.ar    1  UNL1       -0.0393
     38 C          -6.4409    2.6393   -0.2497 C.ar    1  UNL1        0.0825
     39 CL         -7.8117    3.7301   -0.1486 Cl      1  UNL1       -0.0798
     40 H          -3.7705    6.1861    0.1051 H       1  UNL1        0.0660
     41 H          -3.2911    5.0313   -1.1726 H       1  UNL1        0.0660
     42 H          -3.0272    4.5730    0.5212 H       1  UNL1        0.0660
     43 H          -3.0980    2.7184   -0.3228 H       1  UNL1        0.0661
     44 H          -3.9545   -1.2617    0.9522 H       1  UNL1        0.0662
     45 H          -4.0223   -3.3986    1.3409 H       1  UNL1        0.0660
     46 H          -3.1603   -2.4692    2.5803 H       1  UNL1        0.0660
     47 H          -2.8260   -4.2330    2.4672 H       1  UNL1        0.0660
     48 H           1.2478   -5.4410   -1.9652 H       1  UNL1        0.0672
     49 H           3.3548   -4.7886   -0.8794 H       1  UNL1        0.0626
     50 H           4.5412   -3.2037    0.4142 H       1  UNL1        0.0644
     51 H           7.1711   -0.5078    0.5994 H       1  UNL1        0.1767
     52 H           3.3877    3.4257    0.2478 H       1  UNL1        0.0831
     53 H           4.9070    4.5569   -1.3095 H       1  UNL1        0.0648
     54 H           7.0294    3.5257   -1.8491 H       1  UNL1        0.0831
     55 H           2.6215    0.3746    1.7644 H       1  UNL1        0.0638
     56 H           0.5080   -0.3440    0.6355 H       1  UNL1        0.0639
     57 H          -0.1913   -0.2384   -2.0499 H       1  UNL1        0.0668
     58 H          -5.6800   -0.6482   -0.4756 H       1  UNL1        0.0624
     59 H          -7.6580    0.9037   -0.3312 H       1  UNL1        0.0633
@<TRIPOS>BOND
     1     1     2    1
     2     2     3    1
     3     3     4   ar
     4     4     5   ar
     5     5     6    1
     6     6     7   ar
     7     7     8   ar
     8     8     9    1
     9     9    10    1
    10     8    11   ar
    11    11    12    1
    12    12    13   ar
    13    13    14    2
    14    13    15   ar
    15    15    16   ar
    16    16    17   ar
    17    17    18   ar
    18    18    19   ar
    19    19    20    1
    20    20    21    2
    21    20    22    2
    22    20    23    1
    23    23    24    1
    24    24    25   ar
    25    25    26   ar
    26    26    27   ar
    27    27    28   ar
    28    28    29   ar
    29    19    30   ar
    30    30    31   ar
    31    31    32   ar
    32    11    33   ar
    33    33    34   ar
    34    34    35    1
    35     5    36   ar
    36    36    37   ar
    37    37    38   ar
    38    38    39    1
    39    38     3   ar
    40    34     6   ar
    41    32    12   ar
    42    32    17   ar
    43    29    24   ar
    44     1    40    1
    45     1    41    1
    46     1    42    1
    47     4    43    1
    48     7    44    1
    49    10    45    1
    50    10    46    1
    51    10    47    1
    52    15    48    1
    53    16    49    1
    54    18    50    1
    55    23    51    1
    56    26    52    1
    57    27    53    1
    58    28    54    1
    59    30    55    1
    60    31    56    1
    61    33    57    1
    62    36    58    1
    63    37    59    1
