
     RDKit          3D

 59 63  0  0  0  0  0  0  0  0999 V2000
   -3.7164    5.1155   -0.1565 C   0  0  0  0  0  0  0  0  0  0  0  0
   -5.0016    4.5115   -0.1648 O   0  0  0  0  0  0  0  0  0  0  0  0
   -5.1778    3.1469   -0.2471 C   0  0  0  0  0  0  0  0  0  0  0  0
   -4.1050    2.2818   -0.3269 C   0  0  0  0  0  0  0  0  0  0  0  0
   -4.2975    0.9350   -0.4076 C   0  0  0  0  0  0  0  0  0  0  0  0
   -3.1290    0.0625   -0.4906 C   0  0  0  0  0  0  0  0  0  0  0  0
   -3.0964   -1.0666    0.2949 C   0  0  0  0  0  0  0  0  0  0  0  0
   -2.0114   -1.8985    0.2330 C   0  0  0  0  0  0  0  0  0  0  0  0
   -1.9787   -3.0334    1.0225 O   0  0  0  0  0  0  0  0  0  0  0  0
   -3.0439   -3.3277    1.8757 C   0  0  0  0  0  0  0  0  0  0  0  0
   -0.9264   -1.6610   -0.5916 C   0  0  0  0  0  0  0  0  0  0  0  0
    0.2118   -2.5068   -0.6768 N   0  0  0  0  0  0  0  0  0  0  0  0
    0.1821   -3.6840   -1.3461 C   0  0  0  0  0  0  0  0  0  0  0  0
   -0.9036   -4.0276   -1.9098 O   0  0  0  0  0  0  0  0  0  0  0  0
    1.2870   -4.4946   -1.4219 C   0  0  0  0  0  0  0  0  0  0  0  0
    2.4683   -4.1487   -0.8241 C   0  0  0  0  0  0  0  0  0  0  0  0
    2.5129   -2.9511   -0.1383 C   0  0  0  0  0  0  0  0  0  0  0  0
    3.6824   -2.5530    0.4848 C   0  0  0  0  0  0  0  0  0  0  0  0
    3.7132   -1.3428    1.1729 C   0  0  0  0  0  0  0  0  0  0  0  0
    5.2295   -0.9154    1.9357 S   0  0  0  0  0  6  0  0  0  0  0  0
    5.9139   -2.1777    2.3625 O   0  0  0  0  0  0  0  0  0  0  0  0
    4.9914   -0.1124    3.1872 O   0  0  0  0  0  0  0  0  0  0  0  0
    6.2547   -0.0773    0.8403 N   0  0  0  0  0  0  0  0  0  0  0  0
    5.8783    1.1853    0.2601 C   0  0  0  0  0  0  0  0  0  0  0  0
    4.7046    1.7685    0.5503 N   0  0  0  0  0  0  0  0  0  0  0  0
    4.3373    2.9468    0.0173 C   0  0  0  0  0  0  0  0  0  0  0  0
    5.1711    3.6133   -0.8659 C   0  0  0  0  0  0  0  0  0  0  0  0
    6.3767    3.0057   -1.1586 C   0  0  0  0  0  0  0  0  0  0  0  0
    6.6917    1.8260   -0.5956 N   0  0  0  0  0  0  0  0  0  0  0  0
    2.5804   -0.5605    1.2236 C   0  0  0  0  0  0  0  0  0  0  0  0
    1.4007   -0.9669    0.5924 C   0  0  0  0  0  0  0  0  0  0  0  0
    1.3793   -2.1691   -0.0882 C   0  0  0  0  0  0  0  0  0  0  0  0
   -0.9808   -0.5225   -1.3706 C   0  0  0  0  0  0  0  0  0  0  0  0
   -2.0744    0.3351   -1.3218 C   0  0  0  0  0  0  0  0  0  0  0  0
   -2.1258    1.4498   -2.0854 F   0  0  0  0  0  0  0  0  0  0  0  0
   -5.5734    0.4416   -0.4091 C   0  0  0  0  0  0  0  0  0  0  0  0
   -6.6619    1.2873   -0.3301 C   0  0  0  0  0  0  0  0  0  0  0  0
   -6.4409    2.6393   -0.2497 C   0  0  0  0  0  0  0  0  0  0  0  0
   -7.8117    3.7301   -0.1486 Cl  0  0  0  0  0  0  0  0  0  0  0  0
   -3.7705    6.1861    0.1051 H   0  0  0  0  0  0  0  0  0  0  0  0
   -3.2911    5.0313   -1.1726 H   0  0  0  0  0  0  0  0  0  0  0  0
   -3.0272    4.5730    0.5212 H   0  0  0  0  0  0  0  0  0  0  0  0
   -3.0980    2.7184   -0.3228 H   0  0  0  0  0  0  0  0  0  0  0  0
   -3.9545   -1.2617    0.9522 H   0  0  0  0  0  0  0  0  0  0  0  0
   -4.0223   -3.3986    1.3409 H   0  0  0  0  0  0  0  0  0  0  0  0
   -3.1603   -2.4692    2.5803 H   0  0  0  0  0  0  0  0  0  0  0  0
   -2.8260   -4.2330    2.4672 H   0  0  0  0  0  0  0  0  0  0  0  0
    1.2478   -5.4410   -1.9652 H   0  0  0  0  0  0  0  0  0  0  0  0
    3.3548   -4.7886   -0.8794 H   0  0  0  0  0  0  0  0  0  0  0  0
    4.5412   -3.2037    0.4142 H   0  0  0  0  0  0  0  0  0  0  0  0
    7.1711   -0.5078    0.5994 H   0  0  0  0  0  0  0  0  0  0  0  0
    3.3877    3.4257    0.2478 H   0  0  0  0  0  0  0  0  0  0  0  0
    4.9070    4.5569   -1.3095 H   0  0  0  0  0  0  0  0  0  0  0  0
    7.0294    3.5257   -1.8491 H   0  0  0  0  0  0  0  0  0  0  0  0
    2.6215    0.3746    1.7644 H   0  0  0  0  0  0  0  0  0  0  0  0
    0.5080   -0.3440    0.6355 H   0  0  0  0  0  0  0  0  0  0  0  0
   -0.1913   -0.2384   -2.0499 H   0  0  0  0  0  0  0  0  0  0  0  0
   -5.6800   -0.6482   -0.4756 H   0  0  0  0  0  0  0  0  0  0  0  0
   -7.6580    0.9037   -0.3312 H   0  0  0  0  0  0  0  0  0  0  0  0
  1  2  1  0
  2  3  1  0
  3  4  2  0
  4  5  1  0
  5  6  1  0
  6  7  2  0
  7  8  1  0
  8  9  1  0
  9 10  1  0
  8 11  2  0
 11 12  1  0
 12 13  1  0
 13 14  2  0
 13 15  1  0
 15 16  2  0
 16 17  1  0
 17 18  2  0
 18 19  1  0
 19 20  1  0
 20 21  2  0
 20 22  2  0
 20 23  1  0
 23 24  1  0
 24 25  2  0
 25 26  1  0
 26 27  2  0
 27 28  1  0
 28 29  2  0
 19 30  2  0
 30 31  1  0
 31 32  2  0
 11 33  1  0
 33 34  2  0
 34 35  1  0
  5 36  2  0
 36 37  1  0
 37 38  2  0
 38 39  1  0
 38  3  1  0
 34  6  1  0
 32 12  1  0
 32 17  1  0
 29 24  1  0
  1 40  1  0
  1 41  1  0
  1 42  1  0
  4 43  1  0
  7 44  1  0
 10 45  1  0
 10 46  1  0
 10 47  1  0
 15 48  1  0
 16 49  1  0
 18 50  1  0
 23 51  1  0
 26 52  1  0
 27 53  1  0
 28 54  1  0
 30 55  1  0
 31 56  1  0
 33 57  1  0
 36 58  1  0
 37 59  1  0
M  END
$$$$
