@<TRIPOS>MOLECULE
*****
 60 64 0 0 0
SMALL
GASTEIGER

@<TRIPOS>ATOM
      1 C          -1.0441   -1.7286    3.2314 C.3     1  UNL1        0.0790
      2 O          -0.1005   -1.0438    2.4355 O.3     1  UNL1       -0.4914
      3 C          -0.5692   -0.4394    1.2554 C.ar    1  UNL1        0.1623
      4 C           0.2893    0.2658    0.3946 C.ar    1  UNL1        0.1639
      5 O           1.5626    0.2837    0.8295 O.3     1  UNL1       -0.4882
      6 C           2.7383    0.8052    0.3668 C.3     1  UNL1        0.0909
      7 C           3.2009    0.2834   -0.9481 C.3     1  UNL1       -0.0058
      8 C           4.5066    0.9182   -1.3615 C.3     1  UNL1        0.0020
      9 N           5.5933    0.7101   -0.4635 N.3     1  UNL1       -0.3022
     10 C           6.7485    1.4067   -1.0134 C.3     1  UNL1       -0.0011
     11 C           8.0198    1.0658   -0.2908 C.3     1  UNL1       -0.0402
     12 C           8.3180   -0.4175   -0.3244 C.3     1  UNL1       -0.0507
     13 C           7.1201   -1.1736   -0.8562 C.3     1  UNL1       -0.0402
     14 C           5.8866   -0.6428   -0.1228 C.3     1  UNL1       -0.0011
     15 C          -0.3358    0.7929   -0.7132 C.ar    1  UNL1        0.0098
     16 C          -1.6543    0.6869   -1.0209 C.ar    1  UNL1        0.0797
     17 N          -2.1632    1.2366   -2.1249 N.ar    1  UNL1       -0.2352
     18 C          -3.4898    1.1236   -2.4247 C.ar    1  UNL1        0.1187
     19 N          -4.2889    0.4400   -1.5785 N.ar    1  UNL1       -0.2200
     20 C          -3.7946   -0.1206   -0.4617 C.ar    1  UNL1        0.1341
     21 N          -4.7033   -0.8211    0.3725 N.pl3   1  UNL1       -0.2948
     22 C          -6.0719   -0.8922   -0.0128 C.ar    1  UNL1        0.0970
     23 C          -6.5474   -1.9197   -0.8011 C.ar    1  UNL1        0.0659
     24 CL         -5.4013   -3.1334   -1.3083 Cl      1  UNL1       -0.0815
     25 C          -7.8788   -1.9603   -1.1581 C.ar    1  UNL1       -0.0379
     26 C          -8.7071   -0.9527   -0.7063 C.ar    1  UNL1       -0.0146
     27 C          -8.2207    0.0757    0.0853 C.ar    1  UNL1        0.1682
     28 C          -6.8905    0.1295    0.4506 C.ar    1  UNL1        0.1887
     29 O          -6.7804    1.2774    1.2268 O.3     1  UNL1       -0.4507
     30 C          -7.9326    2.0550    1.0734 C.3     1  UNL1        0.2333
     31 O          -8.9173    1.1542    0.6160 O.3     1  UNL1       -0.4525
     32 C          -2.4586   -0.0026   -0.1668 C.ar    1  UNL1        0.0441
     33 C          -1.9264   -0.5690    0.9731 C.ar    1  UNL1       -0.0038
     34 H          -0.5653   -2.1328    4.1236 H       1  UNL1        0.0660
     35 H          -1.4975   -2.5874    2.6959 H       1  UNL1        0.0660
     36 H          -1.8151   -0.9892    3.5296 H       1  UNL1        0.0660
     37 H           3.5354    0.5579    1.1321 H       1  UNL1        0.0697
     38 H           2.7117    1.9194    0.3816 H       1  UNL1        0.0697
     39 H           2.4753    0.5663   -1.7346 H       1  UNL1        0.0310
     40 H           3.2068   -0.8152   -0.9310 H       1  UNL1        0.0310
     41 H           4.8050    0.5051   -2.3488 H       1  UNL1        0.0428
     42 H           4.3219    1.9837   -1.4798 H       1  UNL1        0.0428
     43 H           6.5612    2.4933   -0.8004 H       1  UNL1        0.0426
     44 H           6.8395    1.3245   -2.1051 H       1  UNL1        0.0426
     45 H           8.8402    1.5708   -0.8494 H       1  UNL1        0.0278
     46 H           8.0363    1.4839    0.7245 H       1  UNL1        0.0278
     47 H           8.5827   -0.7746    0.6877 H       1  UNL1        0.0266
     48 H           9.1798   -0.6533   -0.9873 H       1  UNL1        0.0266
     49 H           7.2448   -2.2366   -0.6226 H       1  UNL1        0.0278
     50 H           7.0363   -0.9967   -1.9370 H       1  UNL1        0.0278
     51 H           5.0752   -1.3382   -0.3846 H       1  UNL1        0.0426
     52 H           6.0771   -0.7938    0.9652 H       1  UNL1        0.0426
     53 H           0.3059    1.3382   -1.3702 H       1  UNL1        0.0677
     54 H          -3.8359    1.5837   -3.3194 H       1  UNL1        0.1048
     55 H          -4.5909   -1.3290    1.2612 H       1  UNL1        0.1537
     56 H          -8.1913   -2.7900   -1.7770 H       1  UNL1        0.0634
     57 H          -9.7449   -1.0291   -1.0139 H       1  UNL1        0.0656
     58 H          -8.2664    2.4671    2.0538 H       1  UNL1        0.1166
     59 H          -7.8310    2.8816    0.3390 H       1  UNL1        0.1166
     60 H          -2.6042   -1.1028    1.6143 H       1  UNL1        0.0663
@<TRIPOS>BOND
     1     1     2    1
     2     2     3    1
     3     3     4   ar
     4     4     5    1
     5     5     6    1
     6     6     7    1
     7     7     8    1
     8     8     9    1
     9     9    10    1
    10    10    11    1
    11    11    12    1
    12    12    13    1
    13    13    14    1
    14     4    15   ar
    15    15    16   ar
    16    16    17   ar
    17    17    18   ar
    18    18    19   ar
    19    19    20   ar
    20    20    21    1
    21    21    22    1
    22    22    23   ar
    23    23    24    1
    24    23    25   ar
    25    25    26   ar
    26    26    27   ar
    27    27    28   ar
    28    28    29    1
    29    29    30    1
    30    30    31    1
    31    20    32   ar
    32    32    33   ar
    33    33     3   ar
    34    14     9    1
    35    32    16   ar
    36    28    22   ar
    37    31    27    1
    38     1    34    1
    39     1    35    1
    40     1    36    1
    41     6    37    1
    42     6    38    1
    43     7    39    1
    44     7    40    1
    45     8    41    1
    46     8    42    1
    47    10    43    1
    48    10    44    1
    49    11    45    1
    50    11    46    1
    51    12    47    1
    52    12    48    1
    53    13    49    1
    54    13    50    1
    55    14    51    1
    56    14    52    1
    57    15    53    1
    58    18    54    1
    59    21    55    1
    60    25    56    1
    61    26    57    1
    62    30    58    1
    63    30    59    1
    64    33    60    1
