
     RDKit          3D

 52 54  0  0  0  0  0  0  0  0999 V2000
    4.8896    1.1564    2.7986 C   0  0  0  0  0  0  0  0  0  0  0  0
    4.9071    0.6126    1.3914 C   0  0  0  0  0  0  0  0  0  0  0  0
    3.8090   -0.3908    1.1798 C   0  0  0  0  0  0  0  0  0  0  0  0
    3.8160   -0.9450   -0.2319 C   0  0  0  0  0  0  0  0  0  0  0  0
    2.7254   -1.9117   -0.4825 C   0  0  0  0  0  0  0  0  0  0  0  0
    1.3481   -1.4134   -0.4383 C   0  0  0  0  0  0  0  0  0  0  0  0
    0.9286   -0.4184   -1.5093 C   0  0  0  0  0  0  0  0  0  0  0  0
   -0.5495   -0.1772   -1.1979 C   0  0  0  0  0  0  0  0  0  0  0  0
   -1.4398   -1.2207   -1.3269 C   0  0  0  0  0  0  0  0  0  0  0  0
   -2.7964   -1.0056   -1.0649 C   0  0  0  0  0  0  0  0  0  0  0  0
   -3.2502    0.2296   -0.6813 C   0  0  0  0  0  0  0  0  0  0  0  0
   -4.6152    0.4567   -0.4148 O   0  0  0  0  0  0  0  0  0  0  0  0
   -5.1137    0.2803    0.8496 C   0  0  0  0  0  0  0  0  0  0  0  0
   -5.6020   -0.9602    1.2184 C   0  0  0  0  0  0  0  0  0  0  0  0
   -6.1006   -1.1383    2.4817 C   0  0  0  0  0  0  0  0  0  0  0  0
   -6.1093   -0.0943    3.3572 C   0  0  0  0  0  0  0  0  0  0  0  0
   -5.6254    1.1662    3.0172 C   0  0  0  0  0  0  0  0  0  0  0  0
   -5.1272    1.3220    1.7367 C   0  0  0  0  0  0  0  0  0  0  0  0
   -2.3896    1.2686   -0.5487 C   0  0  0  0  0  0  0  0  0  0  0  0
   -1.0316    1.0451   -0.8134 C   0  0  0  0  0  0  0  0  0  0  0  0
    0.9783   -1.0529   -2.8261 C   0  0  0  0  0  0  0  0  0  0  0  0
    0.6911   -2.2907   -2.9970 O   0  0  0  0  0  0  0  0  0  0  0  0
    1.3487   -0.3333   -3.9831 N   0  0  0  0  0  0  0  0  0  0  0  0
    1.8281    0.9974   -3.9364 C   0  0  0  0  0  0  0  0  0  0  0  0
    2.1617    1.6385   -4.9781 O   0  0  0  0  0  0  0  0  0  0  0  0
    1.9174    1.5833   -2.6520 N   0  0  0  0  0  0  0  0  0  0  0  0
    1.5461    0.8832   -1.4721 C   0  0  0  0  0  0  0  0  0  0  0  0
    1.8033    1.5101   -0.3704 O   0  0  0  0  0  0  0  0  0  0  0  0
    5.9210    1.4191    3.0966 H   0  0  0  0  0  0  0  0  0  0  0  0
    4.4431    0.3765    3.4489 H   0  0  0  0  0  0  0  0  0  0  0  0
    4.1951    2.0308    2.8413 H   0  0  0  0  0  0  0  0  0  0  0  0
    4.7013    1.4749    0.6989 H   0  0  0  0  0  0  0  0  0  0  0  0
    5.9031    0.2200    1.1493 H   0  0  0  0  0  0  0  0  0  0  0  0
    2.8451    0.0091    1.5030 H   0  0  0  0  0  0  0  0  0  0  0  0
    3.9824   -1.2683    1.8924 H   0  0  0  0  0  0  0  0  0  0  0  0
    4.7956   -1.5242   -0.3294 H   0  0  0  0  0  0  0  0  0  0  0  0
    3.8688   -0.0816   -0.9227 H   0  0  0  0  0  0  0  0  0  0  0  0
    2.9169   -2.5247   -1.4236 H   0  0  0  0  0  0  0  0  0  0  0  0
    2.8186   -2.6996    0.3409 H   0  0  0  0  0  0  0  0  0  0  0  0
    0.5715   -2.2170   -0.4449 H   0  0  0  0  0  0  0  0  0  0  0  0
    1.1590   -0.8762    0.5328 H   0  0  0  0  0  0  0  0  0  0  0  0
   -1.0938   -2.2065   -1.6225 H   0  0  0  0  0  0  0  0  0  0  0  0
   -3.5036   -1.8014   -1.1593 H   0  0  0  0  0  0  0  0  0  0  0  0
   -5.5990   -1.7962    0.5286 H   0  0  0  0  0  0  0  0  0  0  0  0
   -6.4767   -2.1055    2.7563 H   0  0  0  0  0  0  0  0  0  0  0  0
   -6.4998   -0.2160    4.3615 H   0  0  0  0  0  0  0  0  0  0  0  0
   -5.6235    1.9932    3.6860 H   0  0  0  0  0  0  0  0  0  0  0  0
   -4.7409    2.2933    1.4369 H   0  0  0  0  0  0  0  0  0  0  0  0
   -2.7144    2.2703   -0.2441 H   0  0  0  0  0  0  0  0  0  0  0  0
   -0.3659    1.8782   -0.7114 H   0  0  0  0  0  0  0  0  0  0  0  0
    1.2767   -0.7814   -4.9516 H   0  0  0  0  0  0  0  0  0  0  0  0
    2.2714    2.5730   -2.5695 H   0  0  0  0  0  0  0  0  0  0  0  0
  1  2  1  0
  2  3  1  0
  3  4  1  0
  4  5  1  0
  5  6  1  0
  6  7  1  0
  7  8  1  0
  8  9  2  0
  9 10  1  0
 10 11  2  0
 11 12  1  0
 12 13  1  0
 13 14  2  0
 14 15  1  0
 15 16  2  0
 16 17  1  0
 17 18  2  0
 11 19  1  0
 19 20  2  0
  7 21  1  0
 21 22  2  0
 21 23  1  0
 23 24  1  0
 24 25  2  0
 24 26  1  0
 26 27  1  0
 27 28  2  0
 27  7  1  0
 20  8  1  0
 18 13  1  0
  1 29  1  0
  1 30  1  0
  1 31  1  0
  2 32  1  0
  2 33  1  0
  3 34  1  0
  3 35  1  0
  4 36  1  0
  4 37  1  0
  5 38  1  0
  5 39  1  0
  6 40  1  0
  6 41  1  0
  9 42  1  0
 10 43  1  0
 14 44  1  0
 15 45  1  0
 16 46  1  0
 17 47  1  0
 18 48  1  0
 19 49  1  0
 20 50  1  0
 23 51  1  0
 26 52  1  0
M  END
$$$$
