@<TRIPOS>MOLECULE
*****
 52 54 0 0 0
SMALL
GASTEIGER

@<TRIPOS>ATOM
      1 C           4.8896    1.1564    2.7986 C.3     1  UNL1       -0.0653
      2 C           4.9071    0.6126    1.3914 C.3     1  UNL1       -0.0559
      3 C           3.8090   -0.3908    1.1798 C.3     1  UNL1       -0.0533
      4 C           3.8160   -0.9450   -0.2319 C.3     1  UNL1       -0.0530
      5 C           2.7254   -1.9117   -0.4825 C.3     1  UNL1       -0.0514
      6 C           1.3481   -1.4134   -0.4383 C.3     1  UNL1       -0.0264
      7 C           0.9286   -0.4184   -1.5093 C.3     1  UNL1        0.1482
      8 C          -0.5495   -0.1772   -1.1979 C.ar    1  UNL1       -0.0235
      9 C          -1.4398   -1.2207   -1.3269 C.ar    1  UNL1       -0.0536
     10 C          -2.7964   -1.0056   -1.0649 C.ar    1  UNL1       -0.0190
     11 C          -3.2502    0.2296   -0.6813 C.ar    1  UNL1        0.1285
     12 O          -4.6152    0.4567   -0.4148 O.3     1  UNL1       -0.4560
     13 C          -5.1137    0.2803    0.8496 C.ar    1  UNL1        0.1284
     14 C          -5.6020   -0.9602    1.2184 C.ar    1  UNL1       -0.0193
     15 C          -6.1006   -1.1383    2.4817 C.ar    1  UNL1       -0.0583
     16 C          -6.1093   -0.0943    3.3572 C.ar    1  UNL1       -0.0615
     17 C          -5.6254    1.1662    3.0172 C.ar    1  UNL1       -0.0583
     18 C          -5.1272    1.3220    1.7367 C.ar    1  UNL1       -0.0193
     19 C          -2.3896    1.2686   -0.5487 C.ar    1  UNL1       -0.0190
     20 C          -1.0316    1.0451   -0.8134 C.ar    1  UNL1       -0.0536
     21 C           0.9783   -1.0529   -2.8261 C.2     1  UNL1        0.2398
     22 O           0.6911   -2.2907   -2.9970 O.2     1  UNL1       -0.2739
     23 N           1.3487   -0.3333   -3.9831 N.am    1  UNL1       -0.2387
     24 C           1.8281    0.9974   -3.9364 C.2     1  UNL1        0.3122
     25 O           2.1617    1.6385   -4.9781 O.2     1  UNL1       -0.2520
     26 N           1.9174    1.5833   -2.6520 N.am    1  UNL1       -0.2387
     27 C           1.5461    0.8832   -1.4721 C.2     1  UNL1        0.2398
     28 O           1.8033    1.5101   -0.3704 O.2     1  UNL1       -0.2739
     29 H           5.9210    1.4191    3.0966 H       1  UNL1        0.0230
     30 H           4.4431    0.3765    3.4489 H       1  UNL1        0.0230
     31 H           4.1951    2.0308    2.8413 H       1  UNL1        0.0230
     32 H           4.7013    1.4749    0.6989 H       1  UNL1        0.0263
     33 H           5.9031    0.2200    1.1493 H       1  UNL1        0.0263
     34 H           2.8451    0.0091    1.5030 H       1  UNL1        0.0265
     35 H           3.9824   -1.2683    1.8924 H       1  UNL1        0.0265
     36 H           4.7956   -1.5242   -0.3294 H       1  UNL1        0.0265
     37 H           3.8688   -0.0816   -0.9227 H       1  UNL1        0.0265
     38 H           2.9169   -2.5247   -1.4236 H       1  UNL1        0.0266
     39 H           2.8186   -2.6996    0.3409 H       1  UNL1        0.0266
     40 H           0.5715   -2.2170   -0.4449 H       1  UNL1        0.0283
     41 H           1.1590   -0.8762    0.5328 H       1  UNL1        0.0283
     42 H          -1.0938   -2.2065   -1.6225 H       1  UNL1        0.0622
     43 H          -3.5036   -1.8014   -1.1593 H       1  UNL1        0.0654
     44 H          -5.5990   -1.7962    0.5286 H       1  UNL1        0.0654
     45 H          -6.4767   -2.1055    2.7563 H       1  UNL1        0.0619
     46 H          -6.4998   -0.2160    4.3615 H       1  UNL1        0.0618
     47 H          -5.6235    1.9932    3.6860 H       1  UNL1        0.0619
     48 H          -4.7409    2.2933    1.4369 H       1  UNL1        0.0654
     49 H          -2.7144    2.2703   -0.2441 H       1  UNL1        0.0654
     50 H          -0.3659    1.8782   -0.7114 H       1  UNL1        0.0622
     51 H           1.2767   -0.7814   -4.9516 H       1  UNL1        0.1591
     52 H           2.2714    2.5730   -2.5695 H       1  UNL1        0.1591
@<TRIPOS>BOND
     1     1     2    1
     2     2     3    1
     3     3     4    1
     4     4     5    1
     5     5     6    1
     6     6     7    1
     7     7     8    1
     8     8     9   ar
     9     9    10   ar
    10    10    11   ar
    11    11    12    1
    12    12    13    1
    13    13    14   ar
    14    14    15   ar
    15    15    16   ar
    16    16    17   ar
    17    17    18   ar
    18    11    19   ar
    19    19    20   ar
    20     7    21    1
    21    21    22    2
    22    21    23   am
    23    23    24   am
    24    24    25    2
    25    24    26   am
    26    26    27   am
    27    27    28    2
    28    27     7    1
    29    20     8   ar
    30    18    13   ar
    31     1    29    1
    32     1    30    1
    33     1    31    1
    34     2    32    1
    35     2    33    1
    36     3    34    1
    37     3    35    1
    38     4    36    1
    39     4    37    1
    40     5    38    1
    41     5    39    1
    42     6    40    1
    43     6    41    1
    44     9    42    1
    45    10    43    1
    46    14    44    1
    47    15    45    1
    48    16    46    1
    49    17    47    1
    50    18    48    1
    51    19    49    1
    52    20    50    1
    53    23    51    1
    54    26    52    1
