@<TRIPOS>MOLECULE
*****
 27 29 0 0 0
SMALL
GASTEIGER

@<TRIPOS>ATOM
      1 O          -4.9717    2.4961    0.2382 O.2     1  UNL1       -0.2663
      2 C          -4.0920    1.6225    0.0917 C.2     1  UNL1        0.2887
      3 N          -4.2671    0.2646   -0.2862 N.am    1  UNL1       -0.2782
      4 C          -3.0090   -0.3923   -0.3383 C.ar    1  UNL1        0.0450
      5 C          -2.6445   -1.7077   -0.6524 C.ar    1  UNL1       -0.0363
      6 C          -1.3223   -2.0976   -0.6273 C.ar    1  UNL1       -0.0175
      7 C          -0.3349   -1.1971   -0.2919 C.ar    1  UNL1        0.1292
      8 O           0.9774   -1.6464   -0.2835 O.3     1  UNL1       -0.4560
      9 C           2.0456   -0.8073    0.0435 C.ar    1  UNL1        0.1285
     10 C           2.4837   -0.6778    1.3453 C.ar    1  UNL1       -0.0180
     11 C           3.5335    0.1389    1.7100 C.ar    1  UNL1       -0.0399
     12 C           4.1966    0.8738    0.7483 C.ar    1  UNL1        0.0412
     13 CL          5.5455    1.9324    1.1673 Cl      1  UNL1       -0.0835
     14 C           3.7632    0.7489   -0.5564 C.ar    1  UNL1       -0.0399
     15 C           2.7118   -0.0706   -0.9134 C.ar    1  UNL1       -0.0180
     16 C          -0.7105    0.0910    0.0139 C.ar    1  UNL1       -0.0066
     17 C          -2.0237    0.5118   -0.0021 C.ar    1  UNL1        0.0516
     18 C          -2.6562    1.7999    0.2786 C.2     1  UNL1        0.2494
     19 O          -2.0307    2.8456    0.6174 O.2     1  UNL1       -0.2817
     20 H          -5.2082   -0.1773   -0.4952 H       1  UNL1        0.1552
     21 H          -3.4533   -2.3705   -0.9073 H       1  UNL1        0.0637
     22 H          -1.0836   -3.1423   -0.8817 H       1  UNL1        0.0655
     23 H           1.9515   -1.2648    2.1019 H       1  UNL1        0.0655
     24 H           3.8648    0.2297    2.7335 H       1  UNL1        0.0633
     25 H           4.2947    1.3351   -1.3114 H       1  UNL1        0.0633
     26 H           2.3925   -0.1472   -1.9584 H       1  UNL1        0.0655
     27 H           0.0470    0.8087    0.2783 H       1  UNL1        0.0662
@<TRIPOS>BOND
     1     1     2    2
     2     2     3   am
     3     3     4    1
     4     4     5   ar
     5     5     6   ar
     6     6     7   ar
     7     7     8    1
     8     8     9    1
     9     9    10   ar
    10    10    11   ar
    11    11    12   ar
    12    12    13    1
    13    12    14   ar
    14    14    15   ar
    15     7    16   ar
    16    16    17   ar
    17    17    18    1
    18    18    19    2
    19    18     2    1
    20    17     4   ar
    21    15     9   ar
    22     3    20    1
    23     5    21    1
    24     6    22    1
    25    10    23    1
    26    11    24    1
    27    14    25    1
    28    15    26    1
    29    16    27    1
