@<TRIPOS>MOLECULE
*****
 36 37 0 0 0
SMALL
GASTEIGER

@<TRIPOS>ATOM
      1 C          -3.3640   -3.8507   -0.2104 C.3     1  UNL1       -0.0106
      2 S          -2.9206   -2.9621    1.3221 S.3     1  UNL1       -0.0892
      3 C          -1.7514   -1.6851    0.8464 C.ar    1  UNL1        0.1960
      4 N          -0.4287   -1.8535    0.8060 N.ar    1  UNL1       -0.2003
      5 C           0.1293   -0.7030    0.4118 C.ar    1  UNL1        0.1829
      6 C           1.5917   -0.5053    0.2485 C.ar    1  UNL1        0.0211
      7 C           2.1561   -0.4877   -1.0062 C.ar    1  UNL1       -0.0475
      8 C           3.5275   -0.3034   -1.1841 C.ar    1  UNL1       -0.0190
      9 C           4.3570   -0.1330   -0.0968 C.ar    1  UNL1        0.1300
     10 O           5.7195    0.0501   -0.2710 O.3     1  UNL1       -0.4057
     11 C           6.2225    1.3500   -0.4168 C.3     1  UNL1        0.5752
     12 F           5.6686    1.9583   -1.5139 F       1  UNL1       -0.1328
     13 F           6.0140    2.0462    0.7551 F       1  UNL1       -0.1328
     14 F           7.6055    1.2742   -0.6189 F       1  UNL1       -0.1328
     15 C           3.8008   -0.1491    1.1641 C.ar    1  UNL1       -0.0190
     16 C           2.4329   -0.3338    1.3239 C.ar    1  UNL1       -0.0475
     17 N          -0.8418    0.1710    0.2098 N.ar    1  UNL1       -0.1403
     18 N          -2.0003   -0.4235    0.4742 N.ar    1  UNL1       -0.1574
     19 C          -3.3004    0.1661    0.3829 C.2     1  UNL1        0.3392
     20 O          -4.2936   -0.5449    0.6720 O.2     1  UNL1       -0.2474
     21 N          -3.4592    1.5254   -0.0260 N.am    1  UNL1       -0.2880
     22 C          -4.7681    2.0979   -0.1113 C.3     1  UNL1        0.0046
     23 C          -2.3004    2.3260   -0.3544 C.3     1  UNL1        0.0046
     24 H          -3.8553   -4.7820    0.0999 H       1  UNL1        0.0345
     25 H          -2.4230   -4.0551   -0.7762 H       1  UNL1        0.0345
     26 H          -4.0525   -3.2232   -0.7888 H       1  UNL1        0.0345
     27 H           1.4919   -0.6238   -1.8682 H       1  UNL1        0.0626
     28 H           3.9190   -0.2983   -2.1967 H       1  UNL1        0.0654
     29 H           4.4455   -0.0148    2.0444 H       1  UNL1        0.0654
     30 H           2.0163   -0.3431    2.3229 H       1  UNL1        0.0626
     31 H          -4.8636    2.7969   -0.9514 H       1  UNL1        0.0429
     32 H          -5.5110    1.2724   -0.2093 H       1  UNL1        0.0429
     33 H          -5.0140    2.6147    0.8389 H       1  UNL1        0.0429
     34 H          -2.6086    3.3542   -0.6418 H       1  UNL1        0.0429
     35 H          -1.7090    1.8872   -1.1846 H       1  UNL1        0.0429
     36 H          -1.6327    2.3848    0.5528 H       1  UNL1        0.0429
@<TRIPOS>BOND
     1     1     2    1
     2     2     3    1
     3     3     4   ar
     4     4     5   ar
     5     5     6    1
     6     6     7   ar
     7     7     8   ar
     8     8     9   ar
     9     9    10    1
    10    10    11    1
    11    11    12    1
    12    11    13    1
    13    11    14    1
    14     9    15   ar
    15    15    16   ar
    16     5    17   ar
    17    17    18   ar
    18    18    19   am
    19    19    20    2
    20    19    21   am
    21    21    22    1
    22    21    23    1
    23    18     3   ar
    24    16     6   ar
    25     1    24    1
    26     1    25    1
    27     1    26    1
    28     7    27    1
    29     8    28    1
    30    15    29    1
    31    16    30    1
    32    22    31    1
    33    22    32    1
    34    22    33    1
    35    23    34    1
    36    23    35    1
    37    23    36    1
