@<TRIPOS>MOLECULE
*****
 101 105 0 0 0
SMALL
GASTEIGER

@<TRIPOS>ATOM
      1 C          -8.9369    1.6588   -2.8645 C.3     1  UNL1        0.0364
      2 O          -9.4657    2.1420   -1.7410 O.3     1  UNL1       -0.3830
      3 C          -8.8007    2.7887   -0.7902 C.3     1  UNL1        0.0476
      4 C          -7.6639    2.1832   -0.0516 C.3     1  UNL1       -0.0255
      5 C          -6.4867    1.9052   -0.8919 C.3     1  UNL1       -0.0255
      6 C          -5.3571    1.3070   -0.0971 C.ar    1  UNL1       -0.0435
      7 C          -4.4294    2.1087    0.5175 C.ar    1  UNL1       -0.0537
      8 C          -3.3802    1.5803    1.2617 C.ar    1  UNL1       -0.0264
      9 C          -2.4157    2.5265    1.8768 C.3     1  UNL1        0.0401
     10 N          -1.2225    2.7295    0.9634 N.am    1  UNL1       -0.2938
     11 C          -0.1229    1.9752    1.3219 C.2     1  UNL1        0.2210
     12 O          -0.2999    1.1625    2.3293 O.2     1  UNL1       -0.2752
     13 C           1.2531    1.9031    0.7819 C.3     1  UNL1        0.0550
     14 C           2.0692    3.1237    1.0643 C.3     1  UNL1        0.0076
     15 N           3.0164    3.0002    2.1064 N.3     1  UNL1       -0.3152
     16 C           2.8066    1.9439    3.0189 C.3     1  UNL1       -0.0035
     17 C           2.7646    0.6054    2.3797 C.3     1  UNL1       -0.0329
     18 C           1.9018    0.5976    1.1721 C.3     1  UNL1       -0.0024
     19 C           2.6666   -0.0433    0.0725 C.ar    1  UNL1       -0.0432
     20 C           2.4365   -1.3330   -0.3803 C.ar    1  UNL1       -0.0548
     21 C           3.2002   -1.8491   -1.3891 C.ar    1  UNL1       -0.0197
     22 C           4.2325   -1.1388   -2.0163 C.ar    1  UNL1        0.1207
     23 O           4.9181   -1.7584   -3.0025 O.3     1  UNL1       -0.4886
     24 C           5.9582   -1.3785   -3.7909 C.3     1  UNL1        0.1235
     25 C           7.2083   -1.0819   -3.0155 C.3     1  UNL1        0.1236
     26 O           7.6024   -2.2573   -2.2929 O.3     1  UNL1       -0.4857
     27 C           8.7622   -2.1124   -1.5168 C.ar    1  UNL1        0.1571
     28 C          10.0013   -2.3892   -2.0127 C.ar    1  UNL1        0.0842
     29 CL         10.1579   -2.9415   -3.6604 Cl      1  UNL1       -0.0797
     30 C          11.1219   -2.2341   -1.2248 C.ar    1  UNL1       -0.0368
     31 C          11.0258   -1.8006    0.0723 C.ar    1  UNL1       -0.0475
     32 C          12.2581   -1.6303    0.9130 C.3     1  UNL1       -0.0396
     33 C           9.7804   -1.5285    0.5570 C.ar    1  UNL1       -0.0368
     34 C           8.6424   -1.6707   -0.1997 C.ar    1  UNL1        0.0842
     35 CL          7.0443   -1.3215    0.4192 Cl      1  UNL1       -0.0797
     36 C           4.4455    0.1317   -1.5603 C.ar    1  UNL1       -0.0197
     37 C           3.6722    0.6539   -0.5375 C.ar    1  UNL1       -0.0548
     38 C          -1.4336    3.5839   -0.1474 C.3     1  UNL1        0.0265
     39 C          -1.1969    3.0933   -1.5447 C.3     1  UNL1       -0.0326
     40 C          -0.4471    4.2660   -1.0139 C.3     1  UNL1       -0.0326
     41 C          -3.3172    0.2306    1.3541 C.ar    1  UNL1       -0.0152
     42 C          -4.2577   -0.6378    0.7329 C.ar    1  UNL1        0.1211
     43 O          -4.0953   -1.9589    0.8904 O.3     1  UNL1       -0.4909
     44 C          -4.4908   -3.1942    0.6643 C.3     1  UNL1        0.1048
     45 C          -5.8330   -3.6908    1.1316 C.3     1  UNL1        0.0958
     46 C          -6.0040   -3.5713    2.6325 C.3     1  UNL1       -0.0465
     47 C          -6.9634   -3.1457    0.3334 C.3     1  UNL1       -0.0465
     48 C          -5.8664   -5.1918    0.8800 C.2     1  UNL1        0.3137
     49 O          -4.9022   -5.7757    0.3794 O.2     1  UNL1       -0.2503
     50 O          -7.0069   -5.8795    1.2280 O.3     1  UNL1       -0.4802
     51 C          -5.2765   -0.0438    0.0056 C.ar    1  UNL1       -0.0167
     52 H          -8.3727    2.3673   -3.5134 H       1  UNL1        0.0523
     53 H          -9.8285    1.4185   -3.6029 H       1  UNL1        0.0523
     54 H          -8.4823    0.6585   -2.7996 H       1  UNL1        0.0523
     55 H          -9.5414    3.2148   -0.0302 H       1  UNL1        0.0560
     56 H          -8.3530    3.7755   -1.2285 H       1  UNL1        0.0560
     57 H          -8.0261    1.1875    0.3637 H       1  UNL1        0.0290
     58 H          -7.4447    2.8656    0.8112 H       1  UNL1        0.0290
     59 H          -6.6628    1.2183   -1.7075 H       1  UNL1        0.0314
     60 H          -6.0429    2.8479   -1.3183 H       1  UNL1        0.0314
     61 H          -4.5372    3.1938    0.4197 H       1  UNL1        0.0624
     62 H          -2.8858    3.5220    1.9157 H       1  UNL1        0.0514
     63 H          -2.0766    2.2174    2.8639 H       1  UNL1        0.0514
     64 H           1.1504    1.8445   -0.3310 H       1  UNL1        0.0413
     65 H           2.5469    3.5232    0.1517 H       1  UNL1        0.0432
     66 H           1.3219    3.9184    1.3675 H       1  UNL1        0.0432
     67 H           3.9917    2.9973    1.7392 H       1  UNL1        0.1220
     68 H           3.6980    1.9454    3.7295 H       1  UNL1        0.0424
     69 H           1.8872    2.1323    3.6088 H       1  UNL1        0.0424
     70 H           3.7938    0.2350    2.1190 H       1  UNL1        0.0283
     71 H           2.3589   -0.1682    3.1039 H       1  UNL1        0.0283
     72 H           1.0628   -0.1610    1.3839 H       1  UNL1        0.0357
     73 H           1.6366   -1.8663    0.1169 H       1  UNL1        0.0622
     74 H           2.9973   -2.8738   -1.7296 H       1  UNL1        0.0654
     75 H           6.2221   -2.2137   -4.5217 H       1  UNL1        0.0731
     76 H           5.7314   -0.5187   -4.4772 H       1  UNL1        0.0731
     77 H           8.0480   -0.8838   -3.7405 H       1  UNL1        0.0731
     78 H           7.1910   -0.2427   -2.3385 H       1  UNL1        0.0731
     79 H          12.1130   -2.4600   -1.6399 H       1  UNL1        0.0636
     80 H          12.7490   -0.6543    0.6738 H       1  UNL1        0.0278
     81 H          12.9299   -2.4825    0.7149 H       1  UNL1        0.0278
     82 H          11.9717   -1.5831    1.9698 H       1  UNL1        0.0278
     83 H           9.6859   -1.1830    1.5875 H       1  UNL1        0.0636
     84 H           5.2018    0.7581   -1.9948 H       1  UNL1        0.0654
     85 H           3.9104    1.6635   -0.2312 H       1  UNL1        0.0622
     86 H          -2.4634    4.1098   -0.0706 H       1  UNL1        0.0500
     87 H          -1.9721    3.3445   -2.3003 H       1  UNL1        0.0284
     88 H          -0.6632    2.1751   -1.7744 H       1  UNL1        0.0284
     89 H          -0.7716    5.3005   -1.3998 H       1  UNL1        0.0284
     90 H           0.6247    4.1637   -1.0025 H       1  UNL1        0.0284
     91 H          -2.5313   -0.2392    1.9244 H       1  UNL1        0.0657
     92 H          -4.5333   -3.3626   -0.4775 H       1  UNL1        0.0707
     93 H          -3.7066   -3.9849    0.9364 H       1  UNL1        0.0707
     94 H          -6.3651   -2.5665    2.9400 H       1  UNL1        0.0241
     95 H          -5.0482   -3.8698    3.1055 H       1  UNL1        0.0241
     96 H          -6.7596   -4.3026    3.0076 H       1  UNL1        0.0241
     97 H          -7.3510   -2.2329    0.8269 H       1  UNL1        0.0241
     98 H          -6.6713   -2.9836   -0.7180 H       1  UNL1        0.0241
     99 H          -7.8368   -3.8484    0.2844 H       1  UNL1        0.0241
    100 H          -7.1790   -6.8507    1.0127 H       1  UNL1        0.2951
    101 H          -5.9922   -0.7082   -0.4829 H       1  UNL1        0.0657
@<TRIPOS>BOND
     1     1     2    1
     2     2     3    1
     3     3     4    1
     4     4     5    1
     5     5     6    1
     6     6     7   ar
     7     7     8   ar
     8     8     9    1
     9     9    10    1
    10    10    11   am
    11    11    12    2
    12    11    13    1
    13    13    14    1
    14    14    15    1
    15    15    16    1
    16    16    17    1
    17    17    18    1
    18    18    19    1
    19    19    20   ar
    20    20    21   ar
    21    21    22   ar
    22    22    23    1
    23    23    24    1
    24    24    25    1
    25    25    26    1
    26    26    27    1
    27    27    28   ar
    28    28    29    1
    29    28    30   ar
    30    30    31   ar
    31    31    32    1
    32    31    33   ar
    33    33    34   ar
    34    34    35    1
    35    22    36   ar
    36    36    37   ar
    37    10    38    1
    38    38    39    1
    39    39    40    1
    40     8    41   ar
    41    41    42   ar
    42    42    43    1
    43    43    44    1
    44    44    45    1
    45    45    46    1
    46    45    47    1
    47    45    48    1
    48    48    49    2
    49    48    50    1
    50    42    51   ar
    51    51     6   ar
    52    18    13    1
    53    37    19   ar
    54    40    38    1
    55    34    27   ar
    56     1    52    1
    57     1    53    1
    58     1    54    1
    59     3    55    1
    60     3    56    1
    61     4    57    1
    62     4    58    1
    63     5    59    1
    64     5    60    1
    65     7    61    1
    66     9    62    1
    67     9    63    1
    68    13    64    1
    69    14    65    1
    70    14    66    1
    71    15    67    1
    72    16    68    1
    73    16    69    1
    74    17    70    1
    75    17    71    1
    76    18    72    1
    77    20    73    1
    78    21    74    1
    79    24    75    1
    80    24    76    1
    81    25    77    1
    82    25    78    1
    83    30    79    1
    84    32    80    1
    85    32    81    1
    86    32    82    1
    87    33    83    1
    88    36    84    1
    89    37    85    1
    90    38    86    1
    91    39    87    1
    92    39    88    1
    93    40    89    1
    94    40    90    1
    95    41    91    1
    96    44    92    1
    97    44    93    1
    98    46    94    1
    99    46    95    1
   100    46    96    1
   101    47    97    1
   102    47    98    1
   103    47    99    1
   104    50   100    1
   105    51   101    1
