
     RDKit          3D

101105  0  0  0  0  0  0  0  0999 V2000
   -8.9369    1.6588   -2.8645 C   0  0  0  0  0  0  0  0  0  0  0  0
   -9.4657    2.1420   -1.7410 O   0  0  0  0  0  0  0  0  0  0  0  0
   -8.8007    2.7887   -0.7902 C   0  0  0  0  0  0  0  0  0  0  0  0
   -7.6639    2.1832   -0.0516 C   0  0  0  0  0  0  0  0  0  0  0  0
   -6.4867    1.9052   -0.8919 C   0  0  0  0  0  0  0  0  0  0  0  0
   -5.3571    1.3070   -0.0971 C   0  0  0  0  0  0  0  0  0  0  0  0
   -4.4294    2.1087    0.5175 C   0  0  0  0  0  0  0  0  0  0  0  0
   -3.3802    1.5803    1.2617 C   0  0  0  0  0  0  0  0  0  0  0  0
   -2.4157    2.5265    1.8768 C   0  0  0  0  0  0  0  0  0  0  0  0
   -1.2225    2.7295    0.9634 N   0  0  0  0  0  0  0  0  0  0  0  0
   -0.1229    1.9752    1.3219 C   0  0  0  0  0  0  0  0  0  0  0  0
   -0.2999    1.1625    2.3293 O   0  0  0  0  0  0  0  0  0  0  0  0
    1.2531    1.9031    0.7819 C   0  0  1  0  0  0  0  0  0  0  0  0
    2.0692    3.1237    1.0643 C   0  0  0  0  0  0  0  0  0  0  0  0
    3.0164    3.0002    2.1064 N   0  0  0  0  0  0  0  0  0  0  0  0
    2.8066    1.9439    3.0189 C   0  0  0  0  0  0  0  0  0  0  0  0
    2.7646    0.6054    2.3797 C   0  0  0  0  0  0  0  0  0  0  0  0
    1.9018    0.5976    1.1721 C   0  0  2  0  0  0  0  0  0  0  0  0
    2.6666   -0.0433    0.0725 C   0  0  0  0  0  0  0  0  0  0  0  0
    2.4365   -1.3330   -0.3803 C   0  0  0  0  0  0  0  0  0  0  0  0
    3.2002   -1.8491   -1.3891 C   0  0  0  0  0  0  0  0  0  0  0  0
    4.2325   -1.1388   -2.0163 C   0  0  0  0  0  0  0  0  0  0  0  0
    4.9181   -1.7584   -3.0025 O   0  0  0  0  0  0  0  0  0  0  0  0
    5.9582   -1.3785   -3.7909 C   0  0  0  0  0  0  0  0  0  0  0  0
    7.2083   -1.0819   -3.0155 C   0  0  0  0  0  0  0  0  0  0  0  0
    7.6024   -2.2573   -2.2929 O   0  0  0  0  0  0  0  0  0  0  0  0
    8.7622   -2.1124   -1.5168 C   0  0  0  0  0  0  0  0  0  0  0  0
   10.0013   -2.3892   -2.0127 C   0  0  0  0  0  0  0  0  0  0  0  0
   10.1579   -2.9415   -3.6604 Cl  0  0  0  0  0  0  0  0  0  0  0  0
   11.1219   -2.2341   -1.2248 C   0  0  0  0  0  0  0  0  0  0  0  0
   11.0258   -1.8006    0.0723 C   0  0  0  0  0  0  0  0  0  0  0  0
   12.2581   -1.6303    0.9130 C   0  0  0  0  0  0  0  0  0  0  0  0
    9.7804   -1.5285    0.5570 C   0  0  0  0  0  0  0  0  0  0  0  0
    8.6424   -1.6707   -0.1997 C   0  0  0  0  0  0  0  0  0  0  0  0
    7.0443   -1.3215    0.4192 Cl  0  0  0  0  0  0  0  0  0  0  0  0
    4.4455    0.1317   -1.5603 C   0  0  0  0  0  0  0  0  0  0  0  0
    3.6722    0.6539   -0.5375 C   0  0  0  0  0  0  0  0  0  0  0  0
   -1.4336    3.5839   -0.1474 C   0  0  0  0  0  0  0  0  0  0  0  0
   -1.1969    3.0933   -1.5447 C   0  0  0  0  0  0  0  0  0  0  0  0
   -0.4471    4.2660   -1.0139 C   0  0  0  0  0  0  0  0  0  0  0  0
   -3.3172    0.2306    1.3541 C   0  0  0  0  0  0  0  0  0  0  0  0
   -4.2577   -0.6378    0.7329 C   0  0  0  0  0  0  0  0  0  0  0  0
   -4.0953   -1.9589    0.8904 O   0  0  0  0  0  0  0  0  0  0  0  0
   -4.4908   -3.1942    0.6643 C   0  0  0  0  0  0  0  0  0  0  0  0
   -5.8330   -3.6908    1.1316 C   0  0  0  0  0  0  0  0  0  0  0  0
   -6.0040   -3.5713    2.6325 C   0  0  0  0  0  0  0  0  0  0  0  0
   -6.9634   -3.1457    0.3334 C   0  0  0  0  0  0  0  0  0  0  0  0
   -5.8664   -5.1918    0.8800 C   0  0  0  0  0  0  0  0  0  0  0  0
   -4.9022   -5.7757    0.3794 O   0  0  0  0  0  0  0  0  0  0  0  0
   -7.0069   -5.8795    1.2280 O   0  0  0  0  0  0  0  0  0  0  0  0
   -5.2765   -0.0438    0.0056 C   0  0  0  0  0  0  0  0  0  0  0  0
   -8.3727    2.3673   -3.5134 H   0  0  0  0  0  0  0  0  0  0  0  0
   -9.8285    1.4185   -3.6029 H   0  0  0  0  0  0  0  0  0  0  0  0
   -8.4823    0.6585   -2.7996 H   0  0  0  0  0  0  0  0  0  0  0  0
   -9.5414    3.2148   -0.0302 H   0  0  0  0  0  0  0  0  0  0  0  0
   -8.3530    3.7755   -1.2285 H   0  0  0  0  0  0  0  0  0  0  0  0
   -8.0261    1.1875    0.3637 H   0  0  0  0  0  0  0  0  0  0  0  0
   -7.4447    2.8656    0.8112 H   0  0  0  0  0  0  0  0  0  0  0  0
   -6.6628    1.2183   -1.7075 H   0  0  0  0  0  0  0  0  0  0  0  0
   -6.0429    2.8479   -1.3183 H   0  0  0  0  0  0  0  0  0  0  0  0
   -4.5372    3.1938    0.4197 H   0  0  0  0  0  0  0  0  0  0  0  0
   -2.8858    3.5220    1.9157 H   0  0  0  0  0  0  0  0  0  0  0  0
   -2.0766    2.2174    2.8639 H   0  0  0  0  0  0  0  0  0  0  0  0
    1.1504    1.8445   -0.3310 H   0  0  0  0  0  0  0  0  0  0  0  0
    2.5469    3.5232    0.1517 H   0  0  0  0  0  0  0  0  0  0  0  0
    1.3219    3.9184    1.3675 H   0  0  0  0  0  0  0  0  0  0  0  0
    3.9917    2.9973    1.7392 H   0  0  0  0  0  0  0  0  0  0  0  0
    3.6980    1.9454    3.7295 H   0  0  0  0  0  0  0  0  0  0  0  0
    1.8872    2.1323    3.6088 H   0  0  0  0  0  0  0  0  0  0  0  0
    3.7938    0.2350    2.1190 H   0  0  0  0  0  0  0  0  0  0  0  0
    2.3589   -0.1682    3.1039 H   0  0  0  0  0  0  0  0  0  0  0  0
    1.0628   -0.1610    1.3839 H   0  0  0  0  0  0  0  0  0  0  0  0
    1.6366   -1.8663    0.1169 H   0  0  0  0  0  0  0  0  0  0  0  0
    2.9973   -2.8738   -1.7296 H   0  0  0  0  0  0  0  0  0  0  0  0
    6.2221   -2.2137   -4.5217 H   0  0  0  0  0  0  0  0  0  0  0  0
    5.7314   -0.5187   -4.4772 H   0  0  0  0  0  0  0  0  0  0  0  0
    8.0480   -0.8838   -3.7405 H   0  0  0  0  0  0  0  0  0  0  0  0
    7.1910   -0.2427   -2.3385 H   0  0  0  0  0  0  0  0  0  0  0  0
   12.1130   -2.4600   -1.6399 H   0  0  0  0  0  0  0  0  0  0  0  0
   12.7490   -0.6543    0.6738 H   0  0  0  0  0  0  0  0  0  0  0  0
   12.9299   -2.4825    0.7149 H   0  0  0  0  0  0  0  0  0  0  0  0
   11.9717   -1.5831    1.9698 H   0  0  0  0  0  0  0  0  0  0  0  0
    9.6859   -1.1830    1.5875 H   0  0  0  0  0  0  0  0  0  0  0  0
    5.2018    0.7581   -1.9948 H   0  0  0  0  0  0  0  0  0  0  0  0
    3.9104    1.6635   -0.2312 H   0  0  0  0  0  0  0  0  0  0  0  0
   -2.4634    4.1098   -0.0706 H   0  0  0  0  0  0  0  0  0  0  0  0
   -1.9721    3.3445   -2.3003 H   0  0  0  0  0  0  0  0  0  0  0  0
   -0.6632    2.1751   -1.7744 H   0  0  0  0  0  0  0  0  0  0  0  0
   -0.7716    5.3005   -1.3998 H   0  0  0  0  0  0  0  0  0  0  0  0
    0.6247    4.1637   -1.0025 H   0  0  0  0  0  0  0  0  0  0  0  0
   -2.5313   -0.2392    1.9244 H   0  0  0  0  0  0  0  0  0  0  0  0
   -4.5333   -3.3626   -0.4775 H   0  0  0  0  0  0  0  0  0  0  0  0
   -3.7066   -3.9849    0.9364 H   0  0  0  0  0  0  0  0  0  0  0  0
   -6.3651   -2.5665    2.9400 H   0  0  0  0  0  0  0  0  0  0  0  0
   -5.0482   -3.8698    3.1055 H   0  0  0  0  0  0  0  0  0  0  0  0
   -6.7596   -4.3026    3.0076 H   0  0  0  0  0  0  0  0  0  0  0  0
   -7.3510   -2.2329    0.8269 H   0  0  0  0  0  0  0  0  0  0  0  0
   -6.6713   -2.9836   -0.7180 H   0  0  0  0  0  0  0  0  0  0  0  0
   -7.8368   -3.8484    0.2844 H   0  0  0  0  0  0  0  0  0  0  0  0
   -7.1790   -6.8507    1.0127 H   0  0  0  0  0  0  0  0  0  0  0  0
   -5.9922   -0.7082   -0.4829 H   0  0  0  0  0  0  0  0  0  0  0  0
  1  2  1  0
  2  3  1  0
  3  4  1  0
  4  5  1  0
  5  6  1  0
  6  7  2  0
  7  8  1  0
  8  9  1  0
  9 10  1  0
 10 11  1  0
 11 12  2  0
 11 13  1  0
 13 14  1  0
 14 15  1  0
 15 16  1  0
 16 17  1  0
 17 18  1  0
 18 19  1  0
 19 20  2  0
 20 21  1  0
 21 22  2  0
 22 23  1  0
 23 24  1  0
 24 25  1  0
 25 26  1  0
 26 27  1  0
 27 28  2  0
 28 29  1  0
 28 30  1  0
 30 31  2  0
 31 32  1  0
 31 33  1  0
 33 34  2  0
 34 35  1  0
 22 36  1  0
 36 37  2  0
 10 38  1  0
 38 39  1  0
 39 40  1  0
  8 41  2  0
 41 42  1  0
 42 43  1  0
 43 44  1  0
 44 45  1  0
 45 46  1  0
 45 47  1  0
 45 48  1  0
 48 49  2  0
 48 50  1  0
 42 51  2  0
 51  6  1  0
 18 13  1  0
 37 19  1  0
 40 38  1  0
 34 27  1  0
  1 52  1  0
  1 53  1  0
  1 54  1  0
  3 55  1  0
  3 56  1  0
  4 57  1  0
  4 58  1  0
  5 59  1  0
  5 60  1  0
  7 61  1  0
  9 62  1  0
  9 63  1  0
 13 64  1  6
 14 65  1  0
 14 66  1  0
 15 67  1  0
 16 68  1  0
 16 69  1  0
 17 70  1  0
 17 71  1  0
 18 72  1  1
 20 73  1  0
 21 74  1  0
 24 75  1  0
 24 76  1  0
 25 77  1  0
 25 78  1  0
 30 79  1  0
 32 80  1  0
 32 81  1  0
 32 82  1  0
 33 83  1  0
 36 84  1  0
 37 85  1  0
 38 86  1  0
 39 87  1  0
 39 88  1  0
 40 89  1  0
 40 90  1  0
 41 91  1  0
 44 92  1  0
 44 93  1  0
 46 94  1  0
 46 95  1  0
 46 96  1  0
 47 97  1  0
 47 98  1  0
 47 99  1  0
 50100  1  0
 51101  1  0
M  END
$$$$
