@<TRIPOS>MOLECULE
*****
 22 22 0 0 0
SMALL
GASTEIGER

@<TRIPOS>ATOM
      1 C          -2.9022    0.3395    0.8442 C.3     1  UNL1        0.0492
      2 P          -2.3731   -0.8988   -0.3619 P.3     1  UNL1        0.3761
      3 O          -3.7116   -1.4668   -1.2081 O.3     1  UNL1       -0.3153
      4 O          -1.7558   -2.0844    0.3643 O.2     1  UNL1       -0.2445
      5 O          -1.2248   -0.2192   -1.4691 O.3     1  UNL1       -0.4240
      6 C           0.0407    0.0083   -0.9038 C.ar    1  UNL1        0.1303
      7 C           0.3752    1.3238   -0.5774 C.ar    1  UNL1       -0.0131
      8 C           1.6186    1.5623   -0.0198 C.ar    1  UNL1        0.0190
      9 C           2.4692    0.4711    0.1847 C.ar    1  UNL1        0.2734
     10 C           2.1371   -0.8287   -0.1385 C.ar    1  UNL1        0.0190
     11 C           0.8930   -1.0380   -0.6923 C.ar    1  UNL1       -0.0131
     12 N           3.7558    0.7067    0.7600 N.pl3   1  UNL1        0.0796
     13 O           4.5844   -0.3529    0.9597 O.co2   1  UNL1       -0.5760
     14 O           4.1108    1.8667    1.0732 O.2     1  UNL1        0.0414
     15 H          -2.4032    0.1187    1.8243 H       1  UNL1        0.0362
     16 H          -3.9914    0.3415    1.0284 H       1  UNL1        0.0362
     17 H          -2.6414    1.3763    0.4990 H       1  UNL1        0.0362
     18 H          -4.0596   -2.2747   -0.7659 H       1  UNL1        0.2208
     19 H          -0.2809    2.1709   -0.7344 H       1  UNL1        0.0656
     20 H           1.9925    2.5387    0.2754 H       1  UNL1        0.0686
     21 H           2.8199   -1.6428    0.0343 H       1  UNL1        0.0686
     22 H           0.5470   -2.0183   -0.9763 H       1  UNL1        0.0656
@<TRIPOS>UNITY_ATOM_ATTR
12 1
charge 1
13 1
charge -1
@<TRIPOS>BOND
     1     1     2    1
     2     2     3    1
     3     2     4    2
     4     2     5    1
     5     5     6    1
     6     6     7   ar
     7     7     8   ar
     8     8     9   ar
     9     9    10   ar
    10    10    11   ar
    11     9    12    1
    12    12    13    1
    13    12    14    2
    14    11     6   ar
    15     1    15    1
    16     1    16    1
    17     1    17    1
    18     3    18    1
    19     7    19    1
    20     8    20    1
    21    10    21    1
    22    11    22    1
