@<TRIPOS>MOLECULE
*****
 27 29 0 0 0
SMALL
GASTEIGER

@<TRIPOS>ATOM
      1 C          -2.3026   -0.7474    0.2543 C.3     1  UNL1        0.0085
      2 C          -2.7336    0.0405   -0.9451 C.3     1  UNL1       -0.0361
      3 C          -2.0899    1.4215   -0.7469 C.3     1  UNL1       -0.0356
      4 C          -1.0215    1.0254    0.2843 C.3     1  UNL1        0.0148
      5 N          -1.9238    0.3079    1.1950 N.3     1  UNL1       -0.3099
      6 C          -0.1769   -0.0248   -0.3005 C.3     1  UNL1        0.0024
      7 C          -0.9156   -1.3300    0.0374 C.3     1  UNL1       -0.0292
      8 C           1.2385   -0.0579    0.0358 C.ar    1  UNL1       -0.0246
      9 C           2.1931   -0.0406   -0.9887 C.ar    1  UNL1       -0.0540
     10 C           3.5605   -0.0717   -0.6927 C.ar    1  UNL1       -0.0245
     11 C           3.9040   -0.1196    0.6445 C.ar    1  UNL1        0.1292
     12 CL          5.6286   -0.1584    1.0032 Cl      1  UNL1       -0.0620
     13 N           2.9771   -0.1360    1.6218 N.ar    1  UNL1       -0.2433
     14 C           1.6563   -0.1068    1.3646 C.ar    1  UNL1        0.0327
     15 H          -3.0229   -1.4573    0.6574 H       1  UNL1        0.0461
     16 H          -2.2401   -0.3889   -1.8409 H       1  UNL1        0.0281
     17 H          -3.8311    0.1142   -1.0726 H       1  UNL1        0.0281
     18 H          -1.5523    1.7732   -1.6278 H       1  UNL1        0.0281
     19 H          -2.7967    2.1381   -0.2965 H       1  UNL1        0.0281
     20 H          -0.5448    1.8945    0.7351 H       1  UNL1        0.0466
     21 H          -1.4247   -0.1252    1.9948 H       1  UNL1        0.1225
     22 H          -0.2439    0.0121   -1.4265 H       1  UNL1        0.0365
     23 H          -0.8869   -2.0568   -0.7760 H       1  UNL1        0.0287
     24 H          -0.5772   -1.7241    1.0245 H       1  UNL1        0.0287
     25 H           1.8775   -0.0021   -2.0429 H       1  UNL1        0.0622
     26 H           4.2820   -0.0576   -1.5003 H       1  UNL1        0.0648
     27 H           0.9670   -0.1222    2.1939 H       1  UNL1        0.0833
@<TRIPOS>BOND
     1     1     2    1
     2     2     3    1
     3     3     4    1
     4     4     5    1
     5     4     6    1
     6     6     7    1
     7     6     8    1
     8     8     9   ar
     9     9    10   ar
    10    10    11   ar
    11    11    12    1
    12    11    13   ar
    13    13    14   ar
    14     5     1    1
    15    14     8   ar
    16     7     1    1
    17     1    15    1
    18     2    16    1
    19     2    17    1
    20     3    18    1
    21     3    19    1
    22     4    20    1
    23     5    21    1
    24     6    22    1
    25     7    23    1
    26     7    24    1
    27     9    25    1
    28    10    26    1
    29    14    27    1
