
     RDKit          3D

 63 67  0  0  0  0  0  0  0  0999 V2000
   -4.0225    3.9322    1.5233 C   0  0  0  0  0  0  0  0  0  0  0  0
   -4.7187    2.7258    2.0857 C   0  0  0  0  0  0  0  0  0  0  0  0
   -4.6061    1.6025    1.2737 O   0  0  0  0  0  0  0  0  0  0  0  0
   -3.4548    0.9645    0.8851 C   0  0  0  0  0  0  0  0  0  0  0  0
   -2.2218    1.4068    1.2950 C   0  0  0  0  0  0  0  0  0  0  0  0
   -1.0479    0.7793    0.9152 C   0  0  0  0  0  0  0  0  0  0  0  0
   -1.0868   -0.3177    0.1071 C   0  0  0  0  0  0  0  0  0  0  0  0
    0.1281   -1.0538   -0.3496 C   0  0  0  0  0  0  0  0  0  0  0  0
    0.9706   -0.1675   -1.2242 C   0  0  0  0  0  0  0  0  0  0  0  0
    0.7125   -0.1166   -2.5773 C   0  0  0  0  0  0  0  0  0  0  0  0
    1.4658    0.6964   -3.4268 C   0  0  0  0  0  0  0  0  0  0  0  0
    2.4868    1.4674   -2.9268 C   0  0  0  0  0  0  0  0  0  0  0  0
    2.7543    1.4249   -1.5751 C   0  0  0  0  0  0  0  0  0  0  0  0
    3.8328    2.2330   -1.0091 C   0  0  0  0  0  0  0  0  0  0  0  0
    4.7316    1.7243   -0.0980 C   0  0  0  0  0  0  0  0  0  0  0  0
    5.7445    2.5484    0.4102 C   0  0  0  0  0  0  0  0  0  0  0  0
    5.8617    3.8649    0.0158 C   0  0  0  0  0  0  0  0  0  0  0  0
    4.9699    4.3293   -0.8733 N   0  0  0  0  0  0  0  0  0  0  0  0
    3.9722    3.5504   -1.3860 C   0  0  0  0  0  0  0  0  0  0  0  0
    3.1277    4.1233   -2.2773 F   0  0  0  0  0  0  0  0  0  0  0  0
    1.9886    0.6035   -0.7363 C   0  0  0  0  0  0  0  0  0  0  0  0
   -0.2066   -2.2545   -1.0415 N   0  0  0  0  0  0  0  0  0  0  0  0
    0.3131   -3.2696   -0.5273 C   0  0  0  0  0  0  0  0  0  0  0  0
    0.2119   -4.6565   -0.9422 N   0  0  0  0  0  0  0  0  0  0  0  0
    1.0648   -2.9095    0.6507 N   0  0  0  0  0  0  0  0  0  0  0  0
    1.8466   -3.6947    1.5719 C   0  0  0  0  0  0  0  0  0  0  0  0
    1.9091   -3.0702    2.9130 C   0  0  0  0  0  0  0  0  0  0  0  0
    2.2367   -1.5881    2.8489 C   0  0  0  0  0  0  0  0  0  0  0  0
    1.4768   -0.9374    1.8193 N   0  0  0  0  0  0  0  0  0  0  0  0
    0.9353   -1.5221    0.8017 C   0  0  0  0  0  0  0  0  0  0  0  0
   -2.3049   -0.7934   -0.3262 C   0  0  0  0  0  0  0  0  0  0  0  0
   -3.4856   -0.1533    0.0623 C   0  0  0  0  0  0  0  0  0  0  0  0
   -4.7271   -0.5852   -0.3405 O   0  0  0  0  0  0  0  0  0  0  0  0
   -4.9887   -1.6861   -1.1699 C   0  0  0  0  0  0  0  0  0  0  0  0
   -4.3725   -1.5844   -2.5353 C   0  0  0  0  0  0  0  0  0  0  0  0
   -3.5162    3.6657    0.5684 H   0  0  0  0  0  0  0  0  0  0  0  0
   -4.8195    4.6777    1.2966 H   0  0  0  0  0  0  0  0  0  0  0  0
   -3.2687    4.3592    2.2013 H   0  0  0  0  0  0  0  0  0  0  0  0
   -5.7931    2.9032    2.2933 H   0  0  0  0  0  0  0  0  0  0  0  0
   -4.2626    2.4814    3.0818 H   0  0  0  0  0  0  0  0  0  0  0  0
   -2.1373    2.2695    1.9366 H   0  0  0  0  0  0  0  0  0  0  0  0
   -0.0851    1.1356    1.2433 H   0  0  0  0  0  0  0  0  0  0  0  0
   -0.0902   -0.7267   -2.9503 H   0  0  0  0  0  0  0  0  0  0  0  0
    1.2219    0.6989   -4.4786 H   0  0  0  0  0  0  0  0  0  0  0  0
    3.0870    2.1120   -3.5876 H   0  0  0  0  0  0  0  0  0  0  0  0
    4.6453    0.7109    0.2087 H   0  0  0  0  0  0  0  0  0  0  0  0
    6.4483    2.1399    1.1273 H   0  0  0  0  0  0  0  0  0  0  0  0
    6.6561    4.4713    0.4295 H   0  0  0  0  0  0  0  0  0  0  0  0
    2.2649    0.6337    0.3054 H   0  0  0  0  0  0  0  0  0  0  0  0
    0.4697   -4.9539   -1.9096 H   0  0  0  0  0  0  0  0  0  0  0  0
   -0.1194   -5.3923   -0.2892 H   0  0  0  0  0  0  0  0  0  0  0  0
    1.4544   -4.7258    1.6713 H   0  0  0  0  0  0  0  0  0  0  0  0
    2.8743   -3.7536    1.1534 H   0  0  0  0  0  0  0  0  0  0  0  0
    0.9737   -3.2757    3.4635 H   0  0  0  0  0  0  0  0  0  0  0  0
    2.7209   -3.5883    3.4939 H   0  0  0  0  0  0  0  0  0  0  0  0
    2.0414   -1.1814    3.8644 H   0  0  0  0  0  0  0  0  0  0  0  0
    3.3180   -1.4584    2.6456 H   0  0  0  0  0  0  0  0  0  0  0  0
   -2.3701   -1.6605   -0.9657 H   0  0  0  0  0  0  0  0  0  0  0  0
   -4.5132   -2.5732   -0.6556 H   0  0  0  0  0  0  0  0  0  0  0  0
   -6.0608   -1.9346   -1.2284 H   0  0  0  0  0  0  0  0  0  0  0  0
   -5.1709   -1.5225   -3.3165 H   0  0  0  0  0  0  0  0  0  0  0  0
   -3.7182   -2.4524   -2.7800 H   0  0  0  0  0  0  0  0  0  0  0  0
   -3.7479   -0.6763   -2.6592 H   0  0  0  0  0  0  0  0  0  0  0  0
  1  2  1  0
  2  3  1  0
  3  4  1  0
  4  5  2  0
  5  6  1  0
  6  7  2  0
  7  8  1  0
  8  9  1  0
  9 10  2  0
 10 11  1  0
 11 12  2  0
 12 13  1  0
 13 14  1  0
 14 15  2  0
 15 16  1  0
 16 17  2  0
 17 18  1  0
 18 19  2  0
 19 20  1  0
 13 21  2  0
  8 22  1  0
 22 23  2  0
 23 24  1  0
 23 25  1  0
 25 26  1  0
 26 27  1  0
 27 28  1  0
 28 29  1  0
 29 30  2  0
  7 31  1  0
 31 32  2  0
 32 33  1  0
 33 34  1  0
 34 35  1  0
 32  4  1  0
 30  8  1  0
 21  9  1  0
 30 25  1  0
 19 14  1  0
  1 36  1  0
  1 37  1  0
  1 38  1  0
  2 39  1  0
  2 40  1  0
  5 41  1  0
  6 42  1  0
 10 43  1  0
 11 44  1  0
 12 45  1  0
 15 46  1  0
 16 47  1  0
 17 48  1  0
 21 49  1  0
 24 50  1  0
 24 51  1  0
 26 52  1  0
 26 53  1  0
 27 54  1  0
 27 55  1  0
 28 56  1  0
 28 57  1  0
 31 58  1  0
 34 59  1  0
 34 60  1  0
 35 61  1  0
 35 62  1  0
 35 63  1  0
M  END
$$$$
