@<TRIPOS>MOLECULE
*****
 63 67 0 0 0
SMALL
GASTEIGER

@<TRIPOS>ATOM
      1 C          -4.0225    3.9322    1.5233 C.3     1  UNL1       -0.0307
      2 C          -4.7187    2.7258    2.0857 C.3     1  UNL1        0.0870
      3 O          -4.6061    1.6025    1.2737 O.3     1  UNL1       -0.4886
      4 C          -3.4548    0.9645    0.8851 C.ar    1  UNL1        0.1619
      5 C          -2.2218    1.4068    1.2950 C.ar    1  UNL1       -0.0159
      6 C          -1.0479    0.7793    0.9152 C.ar    1  UNL1       -0.0503
      7 C          -1.0868   -0.3177    0.1071 C.ar    1  UNL1        0.0157
      8 C           0.1281   -1.0538   -0.3496 C.3     1  UNL1        0.2766
      9 C           0.9706   -0.1675   -1.2242 C.ar    1  UNL1        0.0126
     10 C           0.7125   -0.1166   -2.5773 C.ar    1  UNL1       -0.0539
     11 C           1.4658    0.6964   -3.4268 C.ar    1  UNL1       -0.0608
     12 C           2.4868    1.4674   -2.9268 C.ar    1  UNL1       -0.0539
     13 C           2.7543    1.4249   -1.5751 C.ar    1  UNL1       -0.0132
     14 C           3.8328    2.2330   -1.0091 C.ar    1  UNL1        0.0365
     15 C           4.7316    1.7243   -0.0980 C.ar    1  UNL1       -0.0483
     16 C           5.7445    2.5484    0.4102 C.ar    1  UNL1       -0.0428
     17 C           5.8617    3.8649    0.0158 C.ar    1  UNL1        0.0307
     18 N           4.9699    4.3293   -0.8733 N.ar    1  UNL1       -0.2271
     19 C           3.9722    3.5504   -1.3860 C.ar    1  UNL1        0.2209
     20 F           3.1277    4.1233   -2.2773 F       1  UNL1       -0.1832
     21 C           1.9886    0.6035   -0.7363 C.ar    1  UNL1       -0.0461
     22 N          -0.2066   -2.2545   -1.0415 N.2     1  UNL1       -0.0797
     23 C           0.3131   -3.2696   -0.5273 C.cat   1  UNL1        0.4035
     24 N           0.2119   -4.6565   -0.9422 N.pl3   1  UNL1       -0.2440
     25 N           1.0648   -2.9095    0.6507 N.pl3   1  UNL1       -0.1308
     26 C           1.8466   -3.6947    1.5719 C.3     1  UNL1        0.0948
     27 C           1.9091   -3.0702    2.9130 C.3     1  UNL1        0.0258
     28 C           2.2367   -1.5881    2.8489 C.3     1  UNL1        0.1354
     29 N           1.4768   -0.9374    1.8193 N.2     1  UNL1       -0.0826
     30 C           0.9353   -1.5221    0.8017 C.2     1  UNL1        0.3456
     31 C          -2.3049   -0.7934   -0.3262 C.ar    1  UNL1       -0.0085
     32 C          -3.4856   -0.1533    0.0623 C.ar    1  UNL1        0.1623
     33 O          -4.7271   -0.5852   -0.3405 O.3     1  UNL1       -0.4886
     34 C          -4.9887   -1.6861   -1.1699 C.3     1  UNL1        0.0870
     35 C          -4.3725   -1.5844   -2.5353 C.3     1  UNL1       -0.0307
     36 H          -3.5162    3.6657    0.5684 H       1  UNL1        0.0262
     37 H          -4.8195    4.6777    1.2966 H       1  UNL1        0.0262
     38 H          -3.2687    4.3592    2.2013 H       1  UNL1        0.0262
     39 H          -5.7931    2.9032    2.2933 H       1  UNL1        0.0694
     40 H          -4.2626    2.4814    3.0818 H       1  UNL1        0.0694
     41 H          -2.1373    2.2695    1.9366 H       1  UNL1        0.0655
     42 H          -0.0851    1.1356    1.2433 H       1  UNL1        0.0623
     43 H          -0.0902   -0.7267   -2.9503 H       1  UNL1        0.0622
     44 H           1.2219    0.6989   -4.4786 H       1  UNL1        0.0618
     45 H           3.0870    2.1120   -3.5876 H       1  UNL1        0.0624
     46 H           4.6453    0.7109    0.2087 H       1  UNL1        0.0625
     47 H           6.4483    2.1399    1.1273 H       1  UNL1        0.0633
     48 H           6.6561    4.4713    0.4295 H       1  UNL1        0.0830
     49 H           2.2649    0.6337    0.3054 H       1  UNL1        0.0628
     50 H           0.4697   -4.9539   -1.9096 H       1  UNL1        0.2420
     51 H          -0.1194   -5.3923   -0.2892 H       1  UNL1        0.2420
     52 H           1.4544   -4.7258    1.6713 H       1  UNL1        0.0733
     53 H           2.8743   -3.7536    1.1534 H       1  UNL1        0.0733
     54 H           0.9737   -3.2757    3.4635 H       1  UNL1        0.0341
     55 H           2.7209   -3.5883    3.4939 H       1  UNL1        0.0341
     56 H           2.0414   -1.1814    3.8644 H       1  UNL1        0.0792
     57 H           3.3180   -1.4584    2.6456 H       1  UNL1        0.0792
     58 H          -2.3701   -1.6605   -0.9657 H       1  UNL1        0.0659
     59 H          -4.5132   -2.5732   -0.6556 H       1  UNL1        0.0694
     60 H          -6.0608   -1.9346   -1.2284 H       1  UNL1        0.0694
     61 H          -5.1709   -1.5225   -3.3165 H       1  UNL1        0.0262
     62 H          -3.7182   -2.4524   -2.7800 H       1  UNL1        0.0262
     63 H          -3.7479   -0.6763   -2.6592 H       1  UNL1        0.0262
@<TRIPOS>BOND
     1     1     2    1
     2     2     3    1
     3     3     4    1
     4     4     5   ar
     5     5     6   ar
     6     6     7   ar
     7     7     8    1
     8     8     9    1
     9     9    10   ar
    10    10    11   ar
    11    11    12   ar
    12    12    13   ar
    13    13    14    1
    14    14    15   ar
    15    15    16   ar
    16    16    17   ar
    17    17    18   ar
    18    18    19   ar
    19    19    20    1
    20    13    21   ar
    21     8    22    1
    22    22    23    2
    23    23    24    1
    24    23    25    1
    25    25    26    1
    26    26    27    1
    27    27    28    1
    28    28    29    1
    29    29    30    2
    30     7    31   ar
    31    31    32   ar
    32    32    33    1
    33    33    34    1
    34    34    35    1
    35    32     4   ar
    36    30     8    1
    37    21     9   ar
    38    30    25    1
    39    19    14   ar
    40     1    36    1
    41     1    37    1
    42     1    38    1
    43     2    39    1
    44     2    40    1
    45     5    41    1
    46     6    42    1
    47    10    43    1
    48    11    44    1
    49    12    45    1
    50    15    46    1
    51    16    47    1
    52    17    48    1
    53    21    49    1
    54    24    50    1
    55    24    51    1
    56    26    52    1
    57    26    53    1
    58    27    54    1
    59    27    55    1
    60    28    56    1
    61    28    57    1
    62    31    58    1
    63    34    59    1
    64    34    60    1
    65    35    61    1
    66    35    62    1
    67    35    63    1
