@<TRIPOS>MOLECULE
*****
 68 73 0 0 0
SMALL
GASTEIGER

@<TRIPOS>ATOM
      1 C          -6.3395    0.8518    0.4516 C.3     1  UNL1       -0.0380
      2 C          -5.5085    2.0641    0.6626 C.ar    1  UNL1       -0.0279
      3 C          -5.8290    2.9260    1.6904 C.ar    1  UNL1       -0.0557
      4 C          -5.0660    4.0579    1.9021 C.ar    1  UNL1       -0.0433
      5 C          -3.9946    4.2637    1.0439 C.ar    1  UNL1        0.0279
      6 N          -3.7053    3.3991    0.0437 N.ar    1  UNL1       -0.2583
      7 C          -4.4339    2.2929   -0.1796 C.ar    1  UNL1        0.0581
      8 C          -4.0918    1.3673   -1.2857 C.3     1  UNL1        0.0415
      9 N          -3.4508    0.1737   -0.8438 N.3     1  UNL1       -0.2965
     10 C          -3.1343   -0.7562   -1.8635 C.3     1  UNL1        0.0017
     11 C          -1.6917   -0.9893   -2.1311 C.3     1  UNL1       -0.0095
     12 C          -0.8243   -1.1046   -0.9306 C.3     1  UNL1        0.1240
     13 C          -1.4508   -0.6583    0.3511 C.3     1  UNL1       -0.0095
     14 C          -2.5718    0.2971    0.2501 C.3     1  UNL1        0.0017
     15 C           0.3459   -0.1760   -1.1494 C.2     1  UNL1        0.2516
     16 O           0.3050    0.8838   -1.8187 O.2     1  UNL1       -0.2724
     17 N           1.4723   -0.7036   -0.4788 N.am    1  UNL1       -0.1920
     18 C           2.6614   -0.0293   -0.1038 C.ar    1  UNL1        0.0455
     19 C           2.7168    0.5741    1.1329 C.ar    1  UNL1       -0.0392
     20 C           3.8505    1.2531    1.5729 C.ar    1  UNL1       -0.0523
     21 C           4.9484    1.3136    0.7260 C.ar    1  UNL1       -0.0178
     22 C           6.1176    2.0337    1.2194 C.ar    1  UNL1       -0.0179
     23 C           5.9947    3.1119    2.0633 C.ar    1  UNL1       -0.0540
     24 C           7.0790    3.8141    2.5488 C.ar    1  UNL1       -0.0612
     25 C           8.3715    3.4415    2.1885 C.ar    1  UNL1       -0.0617
     26 C           8.5041    2.3651    1.3455 C.ar    1  UNL1       -0.0612
     27 C           7.4049    1.6671    0.8641 C.ar    1  UNL1       -0.0540
     28 C           4.9202    0.7189   -0.5168 C.ar    1  UNL1       -0.0523
     29 C           3.7721    0.0522   -0.9176 C.ar    1  UNL1       -0.0392
     30 C           1.1362   -2.0837   -0.2657 C.2     1  UNL1        0.3219
     31 O           1.9554   -2.8540    0.3274 O.2     1  UNL1       -0.2512
     32 N          -0.1479   -2.3856   -0.7883 N.am    1  UNL1       -0.2240
     33 C          -0.6460   -3.6820   -1.0994 C.ar    1  UNL1        0.1330
     34 C           0.0862   -4.8394   -0.9649 C.ar    1  UNL1        0.0202
     35 C          -0.4357   -6.0815   -1.2650 C.ar    1  UNL1        0.1216
     36 O           0.3092   -7.2315   -1.1254 O.3     1  UNL1       -0.5066
     37 C          -1.7299   -6.1840   -1.7151 C.ar    1  UNL1       -0.0019
     38 C          -2.4652   -5.0257   -1.8505 C.ar    1  UNL1        0.0332
     39 N          -1.9086   -3.8643   -1.5467 N.ar    1  UNL1       -0.2396
     40 H          -7.2909    0.9135    1.0218 H       1  UNL1        0.0278
     41 H          -5.8066   -0.0364    0.8553 H       1  UNL1        0.0278
     42 H          -6.5934    0.7581   -0.6099 H       1  UNL1        0.0278
     43 H          -6.6659    2.7540    2.3496 H       1  UNL1        0.0621
     44 H          -5.3124    4.7464    2.7130 H       1  UNL1        0.0633
     45 H          -3.3898    5.1478    1.2013 H       1  UNL1        0.0829
     46 H          -3.4247    1.8885   -2.0064 H       1  UNL1        0.0491
     47 H          -5.0374    1.1626   -1.8597 H       1  UNL1        0.0491
     48 H          -3.5631   -0.3327   -2.8246 H       1  UNL1        0.0427
     49 H          -3.6601   -1.7210   -1.6406 H       1  UNL1        0.0427
     50 H          -1.5963   -1.8831   -2.7813 H       1  UNL1        0.0303
     51 H          -1.3169   -0.1503   -2.7940 H       1  UNL1        0.0303
     52 H          -0.6621   -0.2496    1.0394 H       1  UNL1        0.0303
     53 H          -1.8232   -1.5903    0.8694 H       1  UNL1        0.0303
     54 H          -3.1915    0.3106    1.1909 H       1  UNL1        0.0427
     55 H          -2.1316    1.3387    0.2208 H       1  UNL1        0.0427
     56 H           1.8405    0.5100    1.7761 H       1  UNL1        0.0636
     57 H           3.8657    1.7164    2.5482 H       1  UNL1        0.0624
     58 H           4.9809    3.4102    2.3510 H       1  UNL1        0.0624
     59 H           6.9129    4.6664    3.2199 H       1  UNL1        0.0618
     60 H           9.2136    3.9925    2.5700 H       1  UNL1        0.0618
     61 H           9.5082    2.0741    1.0643 H       1  UNL1        0.0618
     62 H           7.5071    0.8226    0.2028 H       1  UNL1        0.0624
     63 H           5.7890    0.7775   -1.1633 H       1  UNL1        0.0624
     64 H           3.7213   -0.4226   -1.8848 H       1  UNL1        0.0636
     65 H           1.1205   -4.7546   -0.6081 H       1  UNL1        0.0689
     66 H           0.1650   -7.9158   -0.3958 H       1  UNL1        0.2921
     67 H          -2.2078   -7.1170   -1.9693 H       1  UNL1        0.0669
     68 H          -3.4768   -5.0901   -2.1996 H       1  UNL1        0.0831
@<TRIPOS>BOND
     1     1     2    1
     2     2     3   ar
     3     3     4   ar
     4     4     5   ar
     5     5     6   ar
     6     6     7   ar
     7     7     8    1
     8     8     9    1
     9     9    10    1
    10    10    11    1
    11    11    12    1
    12    12    13    1
    13    13    14    1
    14    12    15    1
    15    15    16    2
    16    15    17   am
    17    17    18    1
    18    18    19   ar
    19    19    20   ar
    20    20    21   ar
    21    21    22    1
    22    22    23   ar
    23    23    24   ar
    24    24    25   ar
    25    25    26   ar
    26    26    27   ar
    27    21    28   ar
    28    28    29   ar
    29    17    30   am
    30    30    31    2
    31    30    32   am
    32    32    33    1
    33    33    34   ar
    34    34    35   ar
    35    35    36    1
    36    35    37   ar
    37    37    38   ar
    38    38    39   ar
    39     7     2   ar
    40    14     9    1
    41    29    18   ar
    42    39    33   ar
    43    32    12    1
    44    27    22   ar
    45     1    40    1
    46     1    41    1
    47     1    42    1
    48     3    43    1
    49     4    44    1
    50     5    45    1
    51     8    46    1
    52     8    47    1
    53    10    48    1
    54    10    49    1
    55    11    50    1
    56    11    51    1
    57    13    52    1
    58    13    53    1
    59    14    54    1
    60    14    55    1
    61    19    56    1
    62    20    57    1
    63    23    58    1
    64    24    59    1
    65    25    60    1
    66    26    61    1
    67    27    62    1
    68    28    63    1
    69    29    64    1
    70    34    65    1
    71    36    66    1
    72    37    67    1
    73    38    68    1
