
     RDKit          3D

 47 51  0  0  0  0  0  0  0  0999 V2000
   -8.2794    0.9846    0.6446 C   0  0  0  0  0  0  0  0  0  0  0  0
   -7.1565    0.0265    0.7951 C   0  0  0  0  0  0  0  0  0  0  0  0
   -7.2653   -1.3074    0.8827 N   0  0  0  0  0  0  0  0  0  0  0  0
   -6.0583   -1.8281    1.0068 O   0  0  0  0  0  0  0  0  0  0  0  0
   -5.1684   -0.8839    1.0031 C   0  0  0  0  0  0  0  0  0  0  0  0
   -3.6997   -1.0379    1.1185 C   0  0  0  0  0  0  0  0  0  0  0  0
   -3.0410   -1.7280    2.0610 N   0  0  0  0  0  0  0  0  0  0  0  0
   -1.7540   -1.6204    1.8146 N   0  0  0  0  0  0  0  0  0  0  0  0
   -1.5821   -0.8656    0.7205 C   0  0  0  0  0  0  0  0  0  0  0  0
   -2.7936   -0.5088    0.2956 N   0  0  0  0  0  0  0  0  0  0  0  0
   -2.9554    0.3303   -0.8772 C   0  0  0  0  0  0  0  0  0  0  0  0
   -1.8859    1.4035   -0.8502 C   0  0  0  0  0  0  0  0  0  0  0  0
   -0.5811    0.8858   -0.5501 N   0  0  0  0  0  0  0  0  0  0  0  0
    0.5926    1.6896   -0.7832 C   0  0  0  0  0  0  0  0  0  0  0  0
    0.4122    2.8429   -1.2409 O   0  0  0  0  0  0  0  0  0  0  0  0
    1.9454    1.2036   -0.5082 C   0  0  0  0  0  0  0  0  0  0  0  0
    2.4725    1.1277    0.7598 C   0  0  0  0  0  0  0  0  0  0  0  0
    3.7655    0.6586    0.9968 C   0  0  0  0  0  0  0  0  0  0  0  0
    4.5722    0.2501   -0.0378 C   0  0  0  0  0  0  0  0  0  0  0  0
    5.9338   -0.2543    0.1976 C   0  0  0  0  0  0  0  0  0  0  0  0
    6.8474   -0.7039   -0.6849 C   0  0  0  0  0  0  0  0  0  0  0  0
    8.0244   -1.1254   -0.2521 C   0  0  0  0  0  0  0  0  0  0  0  0
    8.3258   -1.1102    1.0811 C   0  0  0  0  0  0  0  0  0  0  0  0
    6.7429   -0.4178    1.7477 S   0  0  0  0  0  0  0  0  0  0  0  0
    4.0480    0.3257   -1.3077 C   0  0  0  0  0  0  0  0  0  0  0  0
    2.7708    0.7877   -1.5511 C   0  0  0  0  0  0  0  0  0  0  0  0
   -0.3794   -0.4284   -0.0130 C   0  0  2  0  0  0  0  0  0  0  0  0
    0.0127   -1.4229   -1.0938 C   0  0  0  0  0  0  0  0  0  0  0  0
   -5.8192    0.2952    0.8718 N   0  0  0  0  0  0  0  0  0  0  0  0
   -8.5014    1.1521   -0.4451 H   0  0  0  0  0  0  0  0  0  0  0  0
   -7.9351    2.0008    0.9997 H   0  0  0  0  0  0  0  0  0  0  0  0
   -9.1832    0.7156    1.2011 H   0  0  0  0  0  0  0  0  0  0  0  0
   -2.8624   -0.2741   -1.7853 H   0  0  0  0  0  0  0  0  0  0  0  0
   -3.9333    0.8497   -0.8012 H   0  0  0  0  0  0  0  0  0  0  0  0
   -2.1444    2.1531   -0.0751 H   0  0  0  0  0  0  0  0  0  0  0  0
   -1.8844    1.9524   -1.8328 H   0  0  0  0  0  0  0  0  0  0  0  0
    1.8539    1.4445    1.5989 H   0  0  0  0  0  0  0  0  0  0  0  0
    4.1562    0.6102    2.0159 H   0  0  0  0  0  0  0  0  0  0  0  0
    6.5718   -0.7045   -1.7798 H   0  0  0  0  0  0  0  0  0  0  0  0
    8.8233   -1.5116   -0.9503 H   0  0  0  0  0  0  0  0  0  0  0  0
    9.1537   -1.3767    1.6868 H   0  0  0  0  0  0  0  0  0  0  0  0
    4.6832    0.0049   -2.1208 H   0  0  0  0  0  0  0  0  0  0  0  0
    2.3727    0.8433   -2.5427 H   0  0  0  0  0  0  0  0  0  0  0  0
    0.5041   -0.4181    0.6920 H   0  0  0  0  0  0  0  0  0  0  0  0
   -0.8947   -1.9832   -1.3810 H   0  0  0  0  0  0  0  0  0  0  0  0
    0.4137   -0.8688   -1.9716 H   0  0  0  0  0  0  0  0  0  0  0  0
    0.7596   -2.1585   -0.7108 H   0  0  0  0  0  0  0  0  0  0  0  0
  1  2  1  0
  2  3  2  0
  3  4  1  0
  4  5  1  0
  5  6  1  0
  6  7  2  0
  7  8  1  0
  8  9  2  0
  9 10  1  0
 10 11  1  0
 11 12  1  0
 12 13  1  0
 13 14  1  0
 14 15  2  0
 14 16  1  0
 16 17  2  0
 17 18  1  0
 18 19  2  0
 19 20  1  0
 20 21  2  0
 21 22  1  0
 22 23  2  0
 23 24  1  0
 19 25  1  0
 25 26  2  0
 13 27  1  0
 27 28  1  0
  5 29  2  0
 29  2  1  0
 10  6  1  0
 26 16  1  0
 27  9  1  0
 24 20  1  0
  1 30  1  0
  1 31  1  0
  1 32  1  0
 11 33  1  0
 11 34  1  0
 12 35  1  0
 12 36  1  0
 17 37  1  0
 18 38  1  0
 21 39  1  0
 22 40  1  0
 23 41  1  0
 25 42  1  0
 26 43  1  0
 27 44  1  1
 28 45  1  0
 28 46  1  0
 28 47  1  0
M  END
$$$$
