@<TRIPOS>MOLECULE
*****
 47 51 0 0 0
SMALL
GASTEIGER

@<TRIPOS>ATOM
      1 C          -8.2794    0.9846    0.6446 C.3     1  UNL1       -0.0012
      2 C          -7.1565    0.0265    0.7951 C.ar    1  UNL1        0.1692
      3 N          -7.2653   -1.3074    0.8827 N.ar    1  UNL1       -0.0610
      4 O          -6.0583   -1.8281    1.0068 O.2     1  UNL1       -0.3295
      5 C          -5.1684   -0.8839    1.0031 C.ar    1  UNL1        0.2958
      6 C          -3.6997   -1.0379    1.1185 C.ar    1  UNL1        0.2221
      7 N          -3.0410   -1.7280    2.0610 N.ar    1  UNL1       -0.1241
      8 N          -1.7540   -1.6204    1.8146 N.ar    1  UNL1       -0.1319
      9 C          -1.5821   -0.8656    0.7205 C.ar    1  UNL1        0.1542
     10 N          -2.7936   -0.5088    0.2956 N.ar    1  UNL1       -0.3040
     11 C          -2.9554    0.3303   -0.8772 C.3     1  UNL1        0.0424
     12 C          -1.8859    1.4035   -0.8502 C.3     1  UNL1        0.0338
     13 N          -0.5811    0.8858   -0.5501 N.am    1  UNL1       -0.2860
     14 C           0.5926    1.6896   -0.7832 C.2     1  UNL1        0.2472
     15 O           0.4122    2.8429   -1.2409 O.2     1  UNL1       -0.2700
     16 C           1.9454    1.2036   -0.5082 C.ar    1  UNL1        0.0370
     17 C           2.4725    1.1277    0.7598 C.ar    1  UNL1       -0.0490
     18 C           3.7655    0.6586    0.9968 C.ar    1  UNL1       -0.0528
     19 C           4.5722    0.2501   -0.0378 C.ar    1  UNL1       -0.0113
     20 C           5.9338   -0.2543    0.1976 C.ar    1  UNL1        0.0193
     21 C           6.8474   -0.7039   -0.6849 C.ar    1  UNL1       -0.0469
     22 C           8.0244   -1.1254   -0.2521 C.ar    1  UNL1       -0.0541
     23 C           8.3258   -1.1102    1.0811 C.ar    1  UNL1       -0.0237
     24 S           6.7429   -0.4178    1.7477 S.2     1  UNL1       -0.0967
     25 C           4.0480    0.3257   -1.3077 C.ar    1  UNL1       -0.0528
     26 C           2.7708    0.7877   -1.5511 C.ar    1  UNL1       -0.0490
     27 C          -0.3794   -0.4284   -0.0130 C.3     1  UNL1        0.0834
     28 C           0.0127   -1.4229   -1.0938 C.3     1  UNL1       -0.0393
     29 N          -5.8192    0.2952    0.8718 N.ar    1  UNL1       -0.1895
     30 H          -8.5014    1.1521   -0.4451 H       1  UNL1        0.0309
     31 H          -7.9351    2.0008    0.9997 H       1  UNL1        0.0309
     32 H          -9.1832    0.7156    1.2011 H       1  UNL1        0.0309
     33 H          -2.8624   -0.2741   -1.7853 H       1  UNL1        0.0508
     34 H          -3.9333    0.8497   -0.8012 H       1  UNL1        0.0508
     35 H          -2.1444    2.1531   -0.0751 H       1  UNL1        0.0482
     36 H          -1.8844    1.9524   -1.8328 H       1  UNL1        0.0482
     37 H           1.8539    1.4445    1.5989 H       1  UNL1        0.0625
     38 H           4.1562    0.6102    2.0159 H       1  UNL1        0.0624
     39 H           6.5718   -0.7045   -1.7798 H       1  UNL1        0.0629
     40 H           8.8233   -1.5116   -0.9503 H       1  UNL1        0.0623
     41 H           9.1537   -1.3767    1.6868 H       1  UNL1        0.0693
     42 H           4.6832    0.0049   -2.1208 H       1  UNL1        0.0624
     43 H           2.3727    0.8433   -2.5427 H       1  UNL1        0.0625
     44 H           0.5041   -0.4181    0.6920 H       1  UNL1        0.0579
     45 H          -0.8947   -1.9832   -1.3810 H       1  UNL1        0.0252
     46 H           0.4137   -0.8688   -1.9716 H       1  UNL1        0.0252
     47 H           0.7596   -2.1585   -0.7108 H       1  UNL1        0.0252
@<TRIPOS>BOND
     1     1     2    1
     2     2     3   ar
     3     3     4   ar
     4     4     5   ar
     5     5     6    1
     6     6     7   ar
     7     7     8   ar
     8     8     9   ar
     9     9    10   ar
    10    10    11    1
    11    11    12    1
    12    12    13    1
    13    13    14   am
    14    14    15    2
    15    14    16    1
    16    16    17   ar
    17    17    18   ar
    18    18    19   ar
    19    19    20    1
    20    20    21   ar
    21    21    22   ar
    22    22    23   ar
    23    23    24   ar
    24    19    25   ar
    25    25    26   ar
    26    13    27    1
    27    27    28    1
    28     5    29   ar
    29    29     2   ar
    30    10     6   ar
    31    26    16   ar
    32    27     9    1
    33    24    20   ar
    34     1    30    1
    35     1    31    1
    36     1    32    1
    37    11    33    1
    38    11    34    1
    39    12    35    1
    40    12    36    1
    41    17    37    1
    42    18    38    1
    43    21    39    1
    44    22    40    1
    45    23    41    1
    46    25    42    1
    47    26    43    1
    48    27    44    1
    49    28    45    1
    50    28    46    1
    51    28    47    1
