@<TRIPOS>MOLECULE
*****
 75 78 0 0 0
SMALL
GASTEIGER

@<TRIPOS>ATOM
      1 C          -0.1764   -2.6749   -1.7952 C.3     1  UNL1       -0.0233
      2 C          -1.0084   -1.4688   -1.5214 C.ar    1  UNL1        0.0337
      3 C          -0.2768   -0.2628   -1.5731 C.ar    1  UNL1        0.0688
      4 C           1.1523   -0.2637   -1.8325 C.ar    1  UNL1        0.0278
      5 C           1.5467   -0.1723   -3.1611 C.ar    1  UNL1       -0.0508
      6 C           2.8812   -0.1628   -3.5261 C.ar    1  UNL1       -0.0575
      7 C           3.8304   -0.2484   -2.5159 C.ar    1  UNL1       -0.0170
      8 C           3.4727   -0.3404   -1.1892 C.ar    1  UNL1        0.1561
      9 O           4.4494   -0.4248   -0.2119 O.3     1  UNL1       -0.4891
     10 C           5.8132   -0.4148   -0.5815 C.3     1  UNL1        0.0897
     11 C           6.7148   -0.5233    0.6337 C.3     1  UNL1       -0.0181
     12 C           6.4750    0.6336    1.5704 C.3     1  UNL1       -0.0399
     13 C           7.3526    0.5409    2.7743 C.3     1  UNL1        0.0449
     14 C           8.7890    0.5542    2.4295 C.2     1  UNL1        0.3047
     15 O           9.3795   -0.4943    2.0359 O.2     1  UNL1       -0.2510
     16 O           9.4975    1.7236    2.5368 O.3     1  UNL1       -0.4806
     17 C           2.1285   -0.3456   -0.8789 C.ar    1  UNL1        0.1727
     18 F           1.7423   -0.4346    0.4190 F       1  UNL1       -0.2010
     19 C          -0.9997    0.8857   -1.3674 C.ar    1  UNL1        0.2647
     20 O          -0.3609    1.9866   -1.4083 O.2     1  UNL1       -0.2668
     21 N          -2.3211    0.8449   -1.1344 N.ar    1  UNL1       -0.2585
     22 C          -3.0128    2.1023   -0.9757 C.3     1  UNL1        0.0503
     23 C          -3.0596    2.6531    0.3985 C.3     1  UNL1        0.0488
     24 N          -3.6881    1.8366    1.3925 N.3     1  UNL1       -0.3222
     25 C          -3.8211    3.9383    0.3744 C.ar    1  UNL1       -0.0290
     26 C          -4.2752    4.5239   -0.7867 C.ar    1  UNL1       -0.0570
     27 C          -4.9751    5.7174   -0.7768 C.ar    1  UNL1       -0.0615
     28 C          -5.2304    6.3446    0.4192 C.ar    1  UNL1       -0.0617
     29 C          -4.7859    5.7818    1.6233 C.ar    1  UNL1       -0.0615
     30 C          -4.0925    4.5944    1.5810 C.ar    1  UNL1       -0.0570
     31 C          -2.9394   -0.3425   -1.1013 C.ar    1  UNL1        0.3325
     32 O          -4.1834   -0.2950   -0.8889 O.2     1  UNL1       -0.2462
     33 N          -2.3023   -1.5545   -1.2926 N.ar    1  UNL1       -0.2927
     34 C          -3.1028   -2.7230   -1.1643 C.3     1  UNL1        0.0560
     35 C          -3.0216   -3.6565   -0.0566 C.ar    1  UNL1        0.0191
     36 C          -2.2620   -4.8026   -0.2367 C.ar    1  UNL1        0.1288
     37 F          -1.7822   -5.1246   -1.4786 F       1  UNL1       -0.2051
     38 C          -2.0412   -5.7314    0.7388 C.ar    1  UNL1       -0.0261
     39 C          -2.5951   -5.5512    1.9849 C.ar    1  UNL1       -0.0585
     40 C          -3.3519   -4.4246    2.1726 C.ar    1  UNL1       -0.0496
     41 C          -3.5853   -3.4623    1.1807 C.ar    1  UNL1        0.0624
     42 C          -4.4494   -2.3084    1.5480 C.3     1  UNL1        0.4178
     43 F          -5.5668   -2.1913    0.7464 F       1  UNL1       -0.1659
     44 F          -3.7776   -1.1666    1.8260 F       1  UNL1       -0.1659
     45 F          -5.0377   -2.6582    2.8060 F       1  UNL1       -0.1659
     46 H          -0.6581   -3.1687   -2.6689 H       1  UNL1        0.0292
     47 H           0.8344   -2.3920   -2.1951 H       1  UNL1        0.0292
     48 H           0.0272   -3.2941   -0.9294 H       1  UNL1        0.0292
     49 H           0.8172   -0.1038   -3.9646 H       1  UNL1        0.0625
     50 H           3.1613   -0.0895   -4.5805 H       1  UNL1        0.0619
     51 H           4.8797   -0.2380   -2.8416 H       1  UNL1        0.0655
     52 H           6.0986    0.5445   -1.0867 H       1  UNL1        0.0696
     53 H           5.9830   -1.2188   -1.3029 H       1  UNL1        0.0696
     54 H           7.7835   -0.5134    0.3396 H       1  UNL1        0.0298
     55 H           6.5291   -1.4995    1.1142 H       1  UNL1        0.0298
     56 H           5.4112    0.5950    1.9025 H       1  UNL1        0.0271
     57 H           6.6325    1.6099    1.0725 H       1  UNL1        0.0271
     58 H           7.1368    1.3553    3.4927 H       1  UNL1        0.0377
     59 H           7.1228   -0.4074    3.3199 H       1  UNL1        0.0377
     60 H          10.4409    1.7536    2.1554 H       1  UNL1        0.2951
     61 H          -4.0354    1.9942   -1.4095 H       1  UNL1        0.0513
     62 H          -2.5289    2.8973   -1.6196 H       1  UNL1        0.0513
     63 H          -2.0134    2.8860    0.7614 H       1  UNL1        0.0526
     64 H          -4.7245    1.8193    1.3364 H       1  UNL1        0.1188
     65 H          -3.3103    1.9647    2.3466 H       1  UNL1        0.1188
     66 H          -4.1130    4.0837   -1.7419 H       1  UNL1        0.0621
     67 H          -5.3181    6.1536   -1.6887 H       1  UNL1        0.0618
     68 H          -5.7841    7.2889    0.4259 H       1  UNL1        0.0618
     69 H          -5.0248    6.3310    2.5189 H       1  UNL1        0.0618
     70 H          -3.7644    4.1871    2.5222 H       1  UNL1        0.0621
     71 H          -2.9011   -3.3158   -2.1319 H       1  UNL1        0.0544
     72 H          -4.1990   -2.4584   -1.3391 H       1  UNL1        0.0544
     73 H          -1.4207   -6.6167    0.5210 H       1  UNL1        0.0646
     74 H          -2.4261   -6.2775    2.7595 H       1  UNL1        0.0619
     75 H          -3.7787   -4.3084    3.1749 H       1  UNL1        0.0623
@<TRIPOS>BOND
     1     1     2    1
     2     2     3   ar
     3     3     4    1
     4     4     5   ar
     5     5     6   ar
     6     6     7   ar
     7     7     8   ar
     8     8     9    1
     9     9    10    1
    10    10    11    1
    11    11    12    1
    12    12    13    1
    13    13    14    1
    14    14    15    2
    15    14    16    1
    16     8    17   ar
    17    17    18    1
    18     3    19   ar
    19    19    20    2
    20    19    21   ar
    21    21    22    1
    22    22    23    1
    23    23    24    1
    24    23    25    1
    25    25    26   ar
    26    26    27   ar
    27    27    28   ar
    28    28    29   ar
    29    29    30   ar
    30    21    31   ar
    31    31    32    2
    32    31    33   ar
    33    33    34    1
    34    34    35    1
    35    35    36   ar
    36    36    37    1
    37    36    38   ar
    38    38    39   ar
    39    39    40   ar
    40    40    41   ar
    41    41    42    1
    42    42    43    1
    43    42    44    1
    44    42    45    1
    45    33     2   ar
    46    41    35   ar
    47    17     4   ar
    48    30    25   ar
    49     1    46    1
    50     1    47    1
    51     1    48    1
    52     5    49    1
    53     6    50    1
    54     7    51    1
    55    10    52    1
    56    10    53    1
    57    11    54    1
    58    11    55    1
    59    12    56    1
    60    12    57    1
    61    13    58    1
    62    13    59    1
    63    16    60    1
    64    22    61    1
    65    22    62    1
    66    23    63    1
    67    24    64    1
    68    24    65    1
    69    26    66    1
    70    27    67    1
    71    28    68    1
    72    29    69    1
    73    30    70    1
    74    34    71    1
    75    34    72    1
    76    38    73    1
    77    39    74    1
    78    40    75    1
