
     RDKit          3D

 75 78  0  0  0  0  0  0  0  0999 V2000
   -0.1764   -2.6749   -1.7952 C   0  0  0  0  0  0  0  0  0  0  0  0
   -1.0084   -1.4688   -1.5214 C   0  0  0  0  0  0  0  0  0  0  0  0
   -0.2768   -0.2628   -1.5731 C   0  0  0  0  0  0  0  0  0  0  0  0
    1.1523   -0.2637   -1.8325 C   0  0  0  0  0  0  0  0  0  0  0  0
    1.5467   -0.1723   -3.1611 C   0  0  0  0  0  0  0  0  0  0  0  0
    2.8812   -0.1628   -3.5261 C   0  0  0  0  0  0  0  0  0  0  0  0
    3.8304   -0.2484   -2.5159 C   0  0  0  0  0  0  0  0  0  0  0  0
    3.4727   -0.3404   -1.1892 C   0  0  0  0  0  0  0  0  0  0  0  0
    4.4494   -0.4248   -0.2119 O   0  0  0  0  0  0  0  0  0  0  0  0
    5.8132   -0.4148   -0.5815 C   0  0  0  0  0  0  0  0  0  0  0  0
    6.7148   -0.5233    0.6337 C   0  0  0  0  0  0  0  0  0  0  0  0
    6.4750    0.6336    1.5704 C   0  0  0  0  0  0  0  0  0  0  0  0
    7.3526    0.5409    2.7743 C   0  0  0  0  0  0  0  0  0  0  0  0
    8.7890    0.5542    2.4295 C   0  0  0  0  0  0  0  0  0  0  0  0
    9.3795   -0.4943    2.0359 O   0  0  0  0  0  0  0  0  0  0  0  0
    9.4975    1.7236    2.5368 O   0  0  0  0  0  0  0  0  0  0  0  0
    2.1285   -0.3456   -0.8789 C   0  0  0  0  0  0  0  0  0  0  0  0
    1.7423   -0.4346    0.4190 F   0  0  0  0  0  0  0  0  0  0  0  0
   -0.9997    0.8857   -1.3674 C   0  0  0  0  0  0  0  0  0  0  0  0
   -0.3609    1.9866   -1.4083 O   0  0  0  0  0  0  0  0  0  0  0  0
   -2.3211    0.8449   -1.1344 N   0  0  0  0  0  0  0  0  0  0  0  0
   -3.0128    2.1023   -0.9757 C   0  0  0  0  0  0  0  0  0  0  0  0
   -3.0596    2.6531    0.3985 C   0  0  2  0  0  0  0  0  0  0  0  0
   -3.6881    1.8366    1.3925 N   0  0  0  0  0  0  0  0  0  0  0  0
   -3.8211    3.9383    0.3744 C   0  0  0  0  0  0  0  0  0  0  0  0
   -4.2752    4.5239   -0.7867 C   0  0  0  0  0  0  0  0  0  0  0  0
   -4.9751    5.7174   -0.7768 C   0  0  0  0  0  0  0  0  0  0  0  0
   -5.2304    6.3446    0.4192 C   0  0  0  0  0  0  0  0  0  0  0  0
   -4.7859    5.7818    1.6233 C   0  0  0  0  0  0  0  0  0  0  0  0
   -4.0925    4.5944    1.5810 C   0  0  0  0  0  0  0  0  0  0  0  0
   -2.9394   -0.3425   -1.1013 C   0  0  0  0  0  0  0  0  0  0  0  0
   -4.1834   -0.2950   -0.8889 O   0  0  0  0  0  0  0  0  0  0  0  0
   -2.3023   -1.5545   -1.2926 N   0  0  0  0  0  0  0  0  0  0  0  0
   -3.1028   -2.7230   -1.1643 C   0  0  0  0  0  0  0  0  0  0  0  0
   -3.0216   -3.6565   -0.0566 C   0  0  0  0  0  0  0  0  0  0  0  0
   -2.2620   -4.8026   -0.2367 C   0  0  0  0  0  0  0  0  0  0  0  0
   -1.7822   -5.1246   -1.4786 F   0  0  0  0  0  0  0  0  0  0  0  0
   -2.0412   -5.7314    0.7388 C   0  0  0  0  0  0  0  0  0  0  0  0
   -2.5951   -5.5512    1.9849 C   0  0  0  0  0  0  0  0  0  0  0  0
   -3.3519   -4.4246    2.1726 C   0  0  0  0  0  0  0  0  0  0  0  0
   -3.5853   -3.4623    1.1807 C   0  0  0  0  0  0  0  0  0  0  0  0
   -4.4494   -2.3084    1.5480 C   0  0  0  0  0  0  0  0  0  0  0  0
   -5.5668   -2.1913    0.7464 F   0  0  0  0  0  0  0  0  0  0  0  0
   -3.7776   -1.1666    1.8260 F   0  0  0  0  0  0  0  0  0  0  0  0
   -5.0377   -2.6582    2.8060 F   0  0  0  0  0  0  0  0  0  0  0  0
   -0.6581   -3.1687   -2.6689 H   0  0  0  0  0  0  0  0  0  0  0  0
    0.8344   -2.3920   -2.1951 H   0  0  0  0  0  0  0  0  0  0  0  0
    0.0272   -3.2941   -0.9294 H   0  0  0  0  0  0  0  0  0  0  0  0
    0.8172   -0.1038   -3.9646 H   0  0  0  0  0  0  0  0  0  0  0  0
    3.1613   -0.0895   -4.5805 H   0  0  0  0  0  0  0  0  0  0  0  0
    4.8797   -0.2380   -2.8416 H   0  0  0  0  0  0  0  0  0  0  0  0
    6.0986    0.5445   -1.0867 H   0  0  0  0  0  0  0  0  0  0  0  0
    5.9830   -1.2188   -1.3029 H   0  0  0  0  0  0  0  0  0  0  0  0
    7.7835   -0.5134    0.3396 H   0  0  0  0  0  0  0  0  0  0  0  0
    6.5291   -1.4995    1.1142 H   0  0  0  0  0  0  0  0  0  0  0  0
    5.4112    0.5950    1.9025 H   0  0  0  0  0  0  0  0  0  0  0  0
    6.6325    1.6099    1.0725 H   0  0  0  0  0  0  0  0  0  0  0  0
    7.1368    1.3553    3.4927 H   0  0  0  0  0  0  0  0  0  0  0  0
    7.1228   -0.4074    3.3199 H   0  0  0  0  0  0  0  0  0  0  0  0
   10.4409    1.7536    2.1554 H   0  0  0  0  0  0  0  0  0  0  0  0
   -4.0354    1.9942   -1.4095 H   0  0  0  0  0  0  0  0  0  0  0  0
   -2.5289    2.8973   -1.6196 H   0  0  0  0  0  0  0  0  0  0  0  0
   -2.0134    2.8860    0.7614 H   0  0  0  0  0  0  0  0  0  0  0  0
   -4.7245    1.8193    1.3364 H   0  0  0  0  0  0  0  0  0  0  0  0
   -3.3103    1.9647    2.3466 H   0  0  0  0  0  0  0  0  0  0  0  0
   -4.1130    4.0837   -1.7419 H   0  0  0  0  0  0  0  0  0  0  0  0
   -5.3181    6.1536   -1.6887 H   0  0  0  0  0  0  0  0  0  0  0  0
   -5.7841    7.2889    0.4259 H   0  0  0  0  0  0  0  0  0  0  0  0
   -5.0248    6.3310    2.5189 H   0  0  0  0  0  0  0  0  0  0  0  0
   -3.7644    4.1871    2.5222 H   0  0  0  0  0  0  0  0  0  0  0  0
   -2.9011   -3.3158   -2.1319 H   0  0  0  0  0  0  0  0  0  0  0  0
   -4.1990   -2.4584   -1.3391 H   0  0  0  0  0  0  0  0  0  0  0  0
   -1.4207   -6.6167    0.5210 H   0  0  0  0  0  0  0  0  0  0  0  0
   -2.4261   -6.2775    2.7595 H   0  0  0  0  0  0  0  0  0  0  0  0
   -3.7787   -4.3084    3.1749 H   0  0  0  0  0  0  0  0  0  0  0  0
  1  2  1  0
  2  3  2  0
  3  4  1  0
  4  5  2  0
  5  6  1  0
  6  7  2  0
  7  8  1  0
  8  9  1  0
  9 10  1  0
 10 11  1  0
 11 12  1  0
 12 13  1  0
 13 14  1  0
 14 15  2  0
 14 16  1  0
  8 17  2  0
 17 18  1  0
  3 19  1  0
 19 20  2  0
 19 21  1  0
 21 22  1  0
 22 23  1  0
 23 24  1  0
 23 25  1  0
 25 26  2  0
 26 27  1  0
 27 28  2  0
 28 29  1  0
 29 30  2  0
 21 31  1  0
 31 32  2  0
 31 33  1  0
 33 34  1  0
 34 35  1  0
 35 36  2  0
 36 37  1  0
 36 38  1  0
 38 39  2  0
 39 40  1  0
 40 41  2  0
 41 42  1  0
 42 43  1  0
 42 44  1  0
 42 45  1  0
 33  2  1  0
 41 35  1  0
 17  4  1  0
 30 25  1  0
  1 46  1  0
  1 47  1  0
  1 48  1  0
  5 49  1  0
  6 50  1  0
  7 51  1  0
 10 52  1  0
 10 53  1  0
 11 54  1  0
 11 55  1  0
 12 56  1  0
 12 57  1  0
 13 58  1  0
 13 59  1  0
 16 60  1  0
 22 61  1  0
 22 62  1  0
 23 63  1  1
 24 64  1  0
 24 65  1  0
 26 66  1  0
 27 67  1  0
 28 68  1  0
 29 69  1  0
 30 70  1  0
 34 71  1  0
 34 72  1  0
 38 73  1  0
 39 74  1  0
 40 75  1  0
M  END
$$$$
