@<TRIPOS>MOLECULE
*****
 63 67 0 0 0
SMALL
GASTEIGER

@<TRIPOS>ATOM
      1 C          -5.0735    0.7581   -2.4370 C.3     1  UNL1       -0.0275
      2 C          -4.8054    0.2963   -0.9993 C.3     1  UNL1        0.1021
      3 O          -3.5564    0.0280   -0.7061 O.3     1  UNL1       -0.4880
      4 C          -2.5700   -0.7391   -0.2674 C.ar    1  UNL1        0.1321
      5 C          -1.2339   -0.2417   -0.2596 C.ar    1  UNL1       -0.0114
      6 C          -0.1859   -0.9806    0.1773 C.ar    1  UNL1       -0.0123
      7 C           1.1947   -0.4428    0.1669 C.ar    1  UNL1       -0.0176
      8 C           1.6011    0.4427   -0.7934 C.ar    1  UNL1       -0.0523
      9 C           2.8734    0.9472   -0.8166 C.ar    1  UNL1       -0.0401
     10 C           3.7885    0.5552    0.1601 C.ar    1  UNL1        0.0298
     11 N           5.1049    1.0572    0.1638 N.pl3   1  UNL1       -0.3275
     12 C           6.1291    0.6042    1.0450 C.3     1  UNL1        0.0250
     13 C           7.4086    0.2944    0.2593 C.3     1  UNL1        0.0144
     14 N           7.6646    1.2322   -0.7873 N.3     1  UNL1       -0.3024
     15 C           9.0476    1.4592   -1.0712 C.3     1  UNL1       -0.0126
     16 C           6.8842    2.4484   -0.6466 C.3     1  UNL1        0.0144
     17 C           5.4264    2.1025   -0.7904 C.3     1  UNL1        0.0250
     18 C           3.3922   -0.3310    1.1274 C.ar    1  UNL1       -0.0401
     19 C           2.1046   -0.8140    1.1137 C.ar    1  UNL1       -0.0523
     20 C          -0.4394   -2.2532    0.6256 C.ar    1  UNL1       -0.0260
     21 C          -1.7320   -2.7765    0.6343 C.ar    1  UNL1        0.0968
     22 N          -2.2294   -3.9705    1.0158 N.ar    1  UNL1       -0.1713
     23 N          -3.5302   -3.9940    0.8324 N.ar    1  UNL1       -0.2732
     24 C          -4.4684   -5.0769    1.1089 C.3     1  UNL1        0.0302
     25 C          -3.9449   -2.8012    0.3162 C.ar    1  UNL1        0.0364
     26 C          -2.8080   -2.0405    0.1937 C.ar    1  UNL1        0.0614
     27 C          -5.3971    1.4224   -0.1361 C.3     1  UNL1        0.0195
     28 C          -6.8744    1.5628   -0.4150 C.3     1  UNL1        0.0182
     29 N          -7.4804    1.7385    0.8898 N.am    1  UNL1       -0.3149
     30 C          -6.6862    1.0309    1.8372 C.2     1  UNL1        0.2135
     31 O          -7.0779    0.5193    2.9368 O.2     1  UNL1       -0.2758
     32 C          -5.3050    1.0035    1.2932 C.3     1  UNL1        0.0315
     33 H          -4.4524    0.2399   -3.1666 H       1  UNL1        0.0265
     34 H          -6.1355    0.6101   -2.7160 H       1  UNL1        0.0265
     35 H          -4.8620    1.8452   -2.5223 H       1  UNL1        0.0265
     36 H          -5.5109   -0.5600   -0.8578 H       1  UNL1        0.0733
     37 H          -1.1077    0.7855   -0.6317 H       1  UNL1        0.0660
     38 H           0.8808    0.7434   -1.5549 H       1  UNL1        0.0624
     39 H           3.2293    1.6469   -1.5585 H       1  UNL1        0.0636
     40 H           6.4377    1.4202    1.7579 H       1  UNL1        0.0476
     41 H           5.9284   -0.3172    1.6109 H       1  UNL1        0.0476
     42 H           8.2349    0.2859    0.9890 H       1  UNL1        0.0442
     43 H           7.3480   -0.7237   -0.1884 H       1  UNL1        0.0442
     44 H           9.3896    0.7923   -1.9135 H       1  UNL1        0.0391
     45 H           9.2842    2.4966   -1.4048 H       1  UNL1        0.0391
     46 H           9.6789    1.1922   -0.1961 H       1  UNL1        0.0391
     47 H           7.0411    2.8361    0.3785 H       1  UNL1        0.0442
     48 H           7.2203    3.1581   -1.4469 H       1  UNL1        0.0442
     49 H           5.3002    1.6439   -1.8110 H       1  UNL1        0.0476
     50 H           4.7693    2.9881   -0.6710 H       1  UNL1        0.0476
     51 H           4.0774   -0.6726    1.9342 H       1  UNL1        0.0636
     52 H           1.8274   -1.5113    1.8906 H       1  UNL1        0.0624
     53 H           0.3694   -2.8620    0.9763 H       1  UNL1        0.0646
     54 H          -3.8649   -5.9376    1.4823 H       1  UNL1        0.0473
     55 H          -5.2268   -4.7682    1.8593 H       1  UNL1        0.0473
     56 H          -5.0337   -5.2934    0.1840 H       1  UNL1        0.0473
     57 H          -4.9446   -2.5252    0.0654 H       1  UNL1        0.0833
     58 H          -4.8104    2.3266   -0.3201 H       1  UNL1        0.0356
     59 H          -7.3124    0.6144   -0.8176 H       1  UNL1        0.0466
     60 H          -7.0503    2.4352   -1.0420 H       1  UNL1        0.0466
     61 H          -8.3401    2.2907    1.0591 H       1  UNL1        0.1487
     62 H          -4.8483    0.0002    1.4067 H       1  UNL1        0.0363
     63 H          -4.7388    1.7786    1.8830 H       1  UNL1        0.0363
@<TRIPOS>BOND
     1     1     2    1
     2     2     3    1
     3     3     4    1
     4     4     5   ar
     5     5     6   ar
     6     6     7    1
     7     7     8   ar
     8     8     9   ar
     9     9    10   ar
    10    10    11    1
    11    11    12    1
    12    12    13    1
    13    13    14    1
    14    14    15    1
    15    14    16    1
    16    16    17    1
    17    10    18   ar
    18    18    19   ar
    19     6    20   ar
    20    20    21   ar
    21    21    22   ar
    22    22    23   ar
    23    23    24    1
    24    23    25   ar
    25    25    26   ar
    26     2    27    1
    27    27    28    1
    28    28    29    1
    29    29    30   am
    30    30    31    2
    31    30    32    1
    32    26     4   ar
    33    32    27    1
    34    19     7   ar
    35    26    21   ar
    36    17    11    1
    37     1    33    1
    38     1    34    1
    39     1    35    1
    40     2    36    1
    41     5    37    1
    42     8    38    1
    43     9    39    1
    44    12    40    1
    45    12    41    1
    46    13    42    1
    47    13    43    1
    48    15    44    1
    49    15    45    1
    50    15    46    1
    51    16    47    1
    52    16    48    1
    53    17    49    1
    54    17    50    1
    55    18    51    1
    56    19    52    1
    57    20    53    1
    58    24    54    1
    59    24    55    1
    60    24    56    1
    61    25    57    1
    62    27    58    1
    63    28    59    1
    64    28    60    1
    65    29    61    1
    66    32    62    1
    67    32    63    1
