
     RDKit          3D

 63 67  0  0  0  0  0  0  0  0999 V2000
   -5.0735    0.7581   -2.4370 C   0  0  0  0  0  0  0  0  0  0  0  0
   -4.8054    0.2963   -0.9993 C   0  0  1  0  0  0  0  0  0  0  0  0
   -3.5564    0.0280   -0.7061 O   0  0  0  0  0  0  0  0  0  0  0  0
   -2.5700   -0.7391   -0.2674 C   0  0  0  0  0  0  0  0  0  0  0  0
   -1.2339   -0.2417   -0.2596 C   0  0  0  0  0  0  0  0  0  0  0  0
   -0.1859   -0.9806    0.1773 C   0  0  0  0  0  0  0  0  0  0  0  0
    1.1947   -0.4428    0.1669 C   0  0  0  0  0  0  0  0  0  0  0  0
    1.6011    0.4427   -0.7934 C   0  0  0  0  0  0  0  0  0  0  0  0
    2.8734    0.9472   -0.8166 C   0  0  0  0  0  0  0  0  0  0  0  0
    3.7885    0.5552    0.1601 C   0  0  0  0  0  0  0  0  0  0  0  0
    5.1049    1.0572    0.1638 N   0  0  0  0  0  0  0  0  0  0  0  0
    6.1291    0.6042    1.0450 C   0  0  0  0  0  0  0  0  0  0  0  0
    7.4086    0.2944    0.2593 C   0  0  0  0  0  0  0  0  0  0  0  0
    7.6646    1.2322   -0.7873 N   0  0  0  0  0  0  0  0  0  0  0  0
    9.0476    1.4592   -1.0712 C   0  0  0  0  0  0  0  0  0  0  0  0
    6.8842    2.4484   -0.6466 C   0  0  0  0  0  0  0  0  0  0  0  0
    5.4264    2.1025   -0.7904 C   0  0  0  0  0  0  0  0  0  0  0  0
    3.3922   -0.3310    1.1274 C   0  0  0  0  0  0  0  0  0  0  0  0
    2.1046   -0.8140    1.1137 C   0  0  0  0  0  0  0  0  0  0  0  0
   -0.4394   -2.2532    0.6256 C   0  0  0  0  0  0  0  0  0  0  0  0
   -1.7320   -2.7765    0.6343 C   0  0  0  0  0  0  0  0  0  0  0  0
   -2.2294   -3.9705    1.0158 N   0  0  0  0  0  0  0  0  0  0  0  0
   -3.5302   -3.9940    0.8324 N   0  0  0  0  0  0  0  0  0  0  0  0
   -4.4684   -5.0769    1.1089 C   0  0  0  0  0  0  0  0  0  0  0  0
   -3.9449   -2.8012    0.3162 C   0  0  0  0  0  0  0  0  0  0  0  0
   -2.8080   -2.0405    0.1937 C   0  0  0  0  0  0  0  0  0  0  0  0
   -5.3971    1.4224   -0.1361 C   0  0  1  0  0  0  0  0  0  0  0  0
   -6.8744    1.5628   -0.4150 C   0  0  0  0  0  0  0  0  0  0  0  0
   -7.4804    1.7385    0.8898 N   0  0  0  0  0  0  0  0  0  0  0  0
   -6.6862    1.0309    1.8372 C   0  0  0  0  0  0  0  0  0  0  0  0
   -7.0779    0.5193    2.9368 O   0  0  0  0  0  0  0  0  0  0  0  0
   -5.3050    1.0035    1.2932 C   0  0  0  0  0  0  0  0  0  0  0  0
   -4.4524    0.2399   -3.1666 H   0  0  0  0  0  0  0  0  0  0  0  0
   -6.1355    0.6101   -2.7160 H   0  0  0  0  0  0  0  0  0  0  0  0
   -4.8620    1.8452   -2.5223 H   0  0  0  0  0  0  0  0  0  0  0  0
   -5.5109   -0.5600   -0.8578 H   0  0  0  0  0  0  0  0  0  0  0  0
   -1.1077    0.7855   -0.6317 H   0  0  0  0  0  0  0  0  0  0  0  0
    0.8808    0.7434   -1.5549 H   0  0  0  0  0  0  0  0  0  0  0  0
    3.2293    1.6469   -1.5585 H   0  0  0  0  0  0  0  0  0  0  0  0
    6.4377    1.4202    1.7579 H   0  0  0  0  0  0  0  0  0  0  0  0
    5.9284   -0.3172    1.6109 H   0  0  0  0  0  0  0  0  0  0  0  0
    8.2349    0.2859    0.9890 H   0  0  0  0  0  0  0  0  0  0  0  0
    7.3480   -0.7237   -0.1884 H   0  0  0  0  0  0  0  0  0  0  0  0
    9.3896    0.7923   -1.9135 H   0  0  0  0  0  0  0  0  0  0  0  0
    9.2842    2.4966   -1.4048 H   0  0  0  0  0  0  0  0  0  0  0  0
    9.6789    1.1922   -0.1961 H   0  0  0  0  0  0  0  0  0  0  0  0
    7.0411    2.8361    0.3785 H   0  0  0  0  0  0  0  0  0  0  0  0
    7.2203    3.1581   -1.4469 H   0  0  0  0  0  0  0  0  0  0  0  0
    5.3002    1.6439   -1.8110 H   0  0  0  0  0  0  0  0  0  0  0  0
    4.7693    2.9881   -0.6710 H   0  0  0  0  0  0  0  0  0  0  0  0
    4.0774   -0.6726    1.9342 H   0  0  0  0  0  0  0  0  0  0  0  0
    1.8274   -1.5113    1.8906 H   0  0  0  0  0  0  0  0  0  0  0  0
    0.3694   -2.8620    0.9763 H   0  0  0  0  0  0  0  0  0  0  0  0
   -3.8649   -5.9376    1.4823 H   0  0  0  0  0  0  0  0  0  0  0  0
   -5.2268   -4.7682    1.8593 H   0  0  0  0  0  0  0  0  0  0  0  0
   -5.0337   -5.2934    0.1840 H   0  0  0  0  0  0  0  0  0  0  0  0
   -4.9446   -2.5252    0.0654 H   0  0  0  0  0  0  0  0  0  0  0  0
   -4.8104    2.3266   -0.3201 H   0  0  0  0  0  0  0  0  0  0  0  0
   -7.3124    0.6144   -0.8176 H   0  0  0  0  0  0  0  0  0  0  0  0
   -7.0503    2.4352   -1.0420 H   0  0  0  0  0  0  0  0  0  0  0  0
   -8.3401    2.2907    1.0591 H   0  0  0  0  0  0  0  0  0  0  0  0
   -4.8483    0.0002    1.4067 H   0  0  0  0  0  0  0  0  0  0  0  0
   -4.7388    1.7786    1.8830 H   0  0  0  0  0  0  0  0  0  0  0  0
  1  2  1  0
  2  3  1  0
  3  4  1  0
  4  5  2  0
  5  6  1  0
  6  7  1  0
  7  8  2  0
  8  9  1  0
  9 10  2  0
 10 11  1  0
 11 12  1  0
 12 13  1  0
 13 14  1  0
 14 15  1  0
 14 16  1  0
 16 17  1  0
 10 18  1  0
 18 19  2  0
  6 20  2  0
 20 21  1  0
 21 22  2  0
 22 23  1  0
 23 24  1  0
 23 25  1  0
 25 26  2  0
  2 27  1  0
 27 28  1  0
 28 29  1  0
 29 30  1  0
 30 31  2  0
 30 32  1  0
 26  4  1  0
 32 27  1  0
 19  7  1  0
 26 21  1  0
 17 11  1  0
  1 33  1  0
  1 34  1  0
  1 35  1  0
  2 36  1  1
  5 37  1  0
  8 38  1  0
  9 39  1  0
 12 40  1  0
 12 41  1  0
 13 42  1  0
 13 43  1  0
 15 44  1  0
 15 45  1  0
 15 46  1  0
 16 47  1  0
 16 48  1  0
 17 49  1  0
 17 50  1  0
 18 51  1  0
 19 52  1  0
 20 53  1  0
 24 54  1  0
 24 55  1  0
 24 56  1  0
 25 57  1  0
 27 58  1  1
 28 59  1  0
 28 60  1  0
 29 61  1  0
 32 62  1  0
 32 63  1  0
M  END
$$$$
