
     RDKit          3D

 38 40  0  0  0  0  0  0  0  0999 V2000
   -4.3353    1.4093    2.2542 O   0  0  0  0  0  0  0  0  0  0  0  0
   -3.3481    1.0882    1.5455 C   0  0  0  0  0  0  0  0  0  0  0  0
   -2.1345    1.7445    1.7061 O   0  0  0  0  0  0  0  0  0  0  0  0
   -3.5433   -0.0075    0.5475 C   0  0  1  0  0  0  0  0  0  0  0  0
   -4.2492    0.5500   -0.6727 C   0  0  0  0  0  0  0  0  0  0  0  0
   -2.9500    0.2809   -1.4026 C   0  0  0  0  0  0  0  0  0  0  0  0
   -2.3622   -0.3098   -0.2201 N   0  0  0  0  0  0  0  0  0  0  0  0
   -1.1301   -0.9347    0.0789 C   0  0  0  0  0  0  0  0  0  0  0  0
   -0.8323   -1.3823    1.2054 O   0  0  0  0  0  0  0  0  0  0  0  0
   -0.1315   -1.0850   -0.9451 N   0  0  0  0  0  0  0  0  0  0  0  0
    1.1195   -1.6989   -0.7148 C   0  0  0  0  0  0  0  0  0  0  0  0
    1.2400   -3.0765   -0.9588 C   0  0  0  0  0  0  0  0  0  0  0  0
    2.4318   -3.7233   -0.7319 C   0  0  0  0  0  0  0  0  0  0  0  0
    3.4882   -2.9848   -0.2640 C   0  0  0  0  0  0  0  0  0  0  0  0
    3.3698   -1.6365   -0.0255 C   0  0  0  0  0  0  0  0  0  0  0  0
    2.1650   -0.9591   -0.2502 C   0  0  0  0  0  0  0  0  0  0  0  0
    2.0484    0.4451   -0.0065 C   0  0  0  0  0  0  0  0  0  0  0  0
    1.5466    1.3254   -0.9247 C   0  0  0  0  0  0  0  0  0  0  0  0
    1.4659    2.6605   -0.5848 C   0  0  0  0  0  0  0  0  0  0  0  0
    1.8678    3.1517    0.6378 C   0  0  0  0  0  0  0  0  0  0  0  0
    2.3737    2.2631    1.5617 C   0  0  0  0  0  0  0  0  0  0  0  0
    2.4641    0.9302    1.2480 C   0  0  0  0  0  0  0  0  0  0  0  0
   -2.1233    2.7194    1.9896 H   0  0  0  0  0  0  0  0  0  0  0  0
   -4.0556   -0.9137    0.9617 H   0  0  0  0  0  0  0  0  0  0  0  0
   -5.1139   -0.0380   -1.0293 H   0  0  0  0  0  0  0  0  0  0  0  0
   -4.4845    1.6170   -0.6438 H   0  0  0  0  0  0  0  0  0  0  0  0
   -2.4441    1.2139   -1.7482 H   0  0  0  0  0  0  0  0  0  0  0  0
   -3.1261   -0.4023   -2.2486 H   0  0  0  0  0  0  0  0  0  0  0  0
   -0.3824   -0.7216   -1.8864 H   0  0  0  0  0  0  0  0  0  0  0  0
    0.3955   -3.6255   -1.3244 H   0  0  0  0  0  0  0  0  0  0  0  0
    2.4903   -4.7883   -0.9309 H   0  0  0  0  0  0  0  0  0  0  0  0
    4.4288   -3.4788   -0.0815 H   0  0  0  0  0  0  0  0  0  0  0  0
    4.2200   -1.0813    0.3431 H   0  0  0  0  0  0  0  0  0  0  0  0
    1.2311    0.9746   -1.8938 H   0  0  0  0  0  0  0  0  0  0  0  0
    1.0584    3.3218   -1.3513 H   0  0  0  0  0  0  0  0  0  0  0  0
    1.7896    4.2229    0.8762 H   0  0  0  0  0  0  0  0  0  0  0  0
    2.6837    2.6714    2.5163 H   0  0  0  0  0  0  0  0  0  0  0  0
    2.8680    0.2578    2.0009 H   0  0  0  0  0  0  0  0  0  0  0  0
  1  2  2  0
  2  3  1  0
  2  4  1  0
  4  5  1  0
  5  6  1  0
  6  7  1  0
  7  8  1  0
  8  9  2  0
  8 10  1  0
 10 11  1  0
 11 12  2  0
 12 13  1  0
 13 14  2  0
 14 15  1  0
 15 16  2  0
 16 17  1  0
 17 18  2  0
 18 19  1  0
 19 20  2  0
 20 21  1  0
 21 22  2  0
  7  4  1  0
 16 11  1  0
 22 17  1  0
  3 23  1  0
  4 24  1  1
  5 25  1  0
  5 26  1  0
  6 27  1  0
  6 28  1  0
 10 29  1  0
 12 30  1  0
 13 31  1  0
 14 32  1  0
 15 33  1  0
 18 34  1  0
 19 35  1  0
 20 36  1  0
 21 37  1  0
 22 38  1  0
M  END
$$$$
