@<TRIPOS>MOLECULE
*****
 38 40 0 0 0
SMALL
GASTEIGER

@<TRIPOS>ATOM
      1 O          -4.3353    1.4093    2.2542 O.2     1  UNL1       -0.2489
      2 C          -3.3481    1.0882    1.5455 C.2     1  UNL1        0.3256
      3 O          -2.1345    1.7445    1.7061 O.3     1  UNL1       -0.4793
      4 C          -3.5433   -0.0075    0.5475 C.3     1  UNL1        0.1256
      5 C          -4.2492    0.5500   -0.6727 C.3     1  UNL1       -0.0079
      6 C          -2.9500    0.2809   -1.4026 C.3     1  UNL1        0.0192
      7 N          -2.3622   -0.3098   -0.2201 N.am    1  UNL1       -0.2718
      8 C          -1.1301   -0.9347    0.0789 C.2     1  UNL1        0.3071
      9 O          -0.8323   -1.3823    1.2054 O.2     1  UNL1       -0.2523
     10 N          -0.1315   -1.0850   -0.9451 N.am    1  UNL1       -0.2687
     11 C           1.1195   -1.6989   -0.7148 C.ar    1  UNL1        0.0425
     12 C           1.2400   -3.0765   -0.9588 C.ar    1  UNL1       -0.0398
     13 C           2.4318   -3.7233   -0.7319 C.ar    1  UNL1       -0.0600
     14 C           3.4882   -2.9848   -0.2640 C.ar    1  UNL1       -0.0611
     15 C           3.3698   -1.6365   -0.0255 C.ar    1  UNL1       -0.0523
     16 C           2.1650   -0.9591   -0.2502 C.ar    1  UNL1        0.0034
     17 C           2.0484    0.4451   -0.0065 C.ar    1  UNL1       -0.0161
     18 C           1.5466    1.3254   -0.9247 C.ar    1  UNL1       -0.0540
     19 C           1.4659    2.6605   -0.5848 C.ar    1  UNL1       -0.0612
     20 C           1.8678    3.1517    0.6378 C.ar    1  UNL1       -0.0617
     21 C           2.3737    2.2631    1.5617 C.ar    1  UNL1       -0.0612
     22 C           2.4641    0.9302    1.2480 C.ar    1  UNL1       -0.0540
     23 H          -2.1233    2.7194    1.9896 H       1  UNL1        0.2951
     24 H          -4.0556   -0.9137    0.9617 H       1  UNL1        0.0617
     25 H          -5.1139   -0.0380   -1.0293 H       1  UNL1        0.0304
     26 H          -4.4845    1.6170   -0.6438 H       1  UNL1        0.0304
     27 H          -2.4441    1.2139   -1.7482 H       1  UNL1        0.0466
     28 H          -3.1261   -0.4023   -2.2486 H       1  UNL1        0.0466
     29 H          -0.3824   -0.7216   -1.8864 H       1  UNL1        0.1564
     30 H           0.3955   -3.6255   -1.3244 H       1  UNL1        0.0636
     31 H           2.4903   -4.7883   -0.9309 H       1  UNL1        0.0618
     32 H           4.4288   -3.4788   -0.0815 H       1  UNL1        0.0618
     33 H           4.2200   -1.0813    0.3431 H       1  UNL1        0.0624
     34 H           1.2311    0.9746   -1.8938 H       1  UNL1        0.0624
     35 H           1.0584    3.3218   -1.3513 H       1  UNL1        0.0618
     36 H           1.7896    4.2229    0.8762 H       1  UNL1        0.0618
     37 H           2.6837    2.6714    2.5163 H       1  UNL1        0.0618
     38 H           2.8680    0.2578    2.0009 H       1  UNL1        0.0624
@<TRIPOS>BOND
     1     1     2    2
     2     2     3    1
     3     2     4    1
     4     4     5    1
     5     5     6    1
     6     6     7    1
     7     7     8   am
     8     8     9    2
     9     8    10   am
    10    10    11    1
    11    11    12   ar
    12    12    13   ar
    13    13    14   ar
    14    14    15   ar
    15    15    16   ar
    16    16    17    1
    17    17    18   ar
    18    18    19   ar
    19    19    20   ar
    20    20    21   ar
    21    21    22   ar
    22     7     4    1
    23    16    11   ar
    24    22    17   ar
    25     3    23    1
    26     4    24    1
    27     5    25    1
    28     5    26    1
    29     6    27    1
    30     6    28    1
    31    10    29    1
    32    12    30    1
    33    13    31    1
    34    14    32    1
    35    15    33    1
    36    18    34    1
    37    19    35    1
    38    20    36    1
    39    21    37    1
    40    22    38    1
