
     RDKit          3D

 47 49  0  0  0  0  0  0  0  0999 V2000
   -4.7914    1.6542    0.8355 C   0  0  0  0  0  0  0  0  0  0  0  0
   -3.8589    0.5069    0.9799 C   0  0  0  0  0  0  0  0  0  0  0  0
   -3.5890   -0.3129   -0.1222 N   0  0  0  0  0  0  0  0  0  0  0  0
   -4.6034   -1.1638   -0.6213 C   0  0  0  0  0  0  0  0  0  0  0  0
   -5.7776   -0.5570   -1.2857 C   0  0  0  0  0  0  0  0  0  0  0  0
   -2.5908    0.0352   -1.0554 C   0  0  0  0  0  0  0  0  0  0  0  0
   -1.2808    0.3125   -0.4804 C   0  0  0  0  0  0  0  0  0  0  0  0
   -1.0063    1.5680    0.0276 C   0  0  0  0  0  0  0  0  0  0  0  0
   -1.8436    2.6597    0.0194 O   0  0  0  0  0  0  0  0  0  0  0  0
    0.2178    1.8680    0.6296 C   0  0  0  0  0  0  0  0  0  0  0  0
    1.2023    0.8868    0.7305 C   0  0  0  0  0  0  0  0  0  0  0  0
    0.8783   -0.3388    0.2108 C   0  0  0  0  0  0  0  0  0  0  0  0
    1.8995   -1.3595    0.3248 N   0  0  0  0  0  0  0  0  0  0  0  0
    3.2330   -1.1944    0.7103 C   0  0  0  0  0  0  0  0  0  0  0  0
    4.2223   -0.4547    0.0798 C   0  0  0  0  0  0  0  0  0  0  0  0
    3.8247    0.1884   -1.0743 C   0  0  0  0  0  0  0  0  0  0  0  0
    4.7623    0.9477   -1.7762 C   0  0  0  0  0  0  0  0  0  0  0  0
    6.0570    1.0431   -1.3126 C   0  0  0  0  0  0  0  0  0  0  0  0
    7.3140    1.9677   -2.1118 Cl  0  0  0  0  0  0  0  0  0  0  0  0
    6.4270    0.3910   -0.1589 C   0  0  0  0  0  0  0  0  0  0  0  0
    5.5102   -0.3756    0.5639 C   0  0  0  0  0  0  0  0  0  0  0  0
    5.8778   -1.0151    1.6792 N   0  0  0  0  0  0  0  0  0  0  0  0
    4.9843   -1.7559    2.3554 C   0  0  0  0  0  0  0  0  0  0  0  0
    3.6851   -1.8394    1.8722 C   0  0  0  0  0  0  0  0  0  0  0  0
   -0.3059   -0.6946   -0.3935 C   0  0  0  0  0  0  0  0  0  0  0  0
   -4.5219    2.3794    1.6702 H   0  0  0  0  0  0  0  0  0  0  0  0
   -5.8647    1.4138    1.0682 H   0  0  0  0  0  0  0  0  0  0  0  0
   -4.7421    2.2279   -0.0928 H   0  0  0  0  0  0  0  0  0  0  0  0
   -2.9249    0.7566    1.5345 H   0  0  0  0  0  0  0  0  0  0  0  0
   -4.3883   -0.1843    1.7395 H   0  0  0  0  0  0  0  0  0  0  0  0
   -4.9786   -1.7697    0.2605 H   0  0  0  0  0  0  0  0  0  0  0  0
   -4.1662   -1.9118   -1.3201 H   0  0  0  0  0  0  0  0  0  0  0  0
   -6.7183   -1.1165   -0.9945 H   0  0  0  0  0  0  0  0  0  0  0  0
   -5.7288   -0.6999   -2.4099 H   0  0  0  0  0  0  0  0  0  0  0  0
   -5.9842    0.4930   -1.1100 H   0  0  0  0  0  0  0  0  0  0  0  0
   -2.4527   -0.8524   -1.7402 H   0  0  0  0  0  0  0  0  0  0  0  0
   -2.8899    0.8667   -1.7254 H   0  0  0  0  0  0  0  0  0  0  0  0
   -2.0863    3.0868   -0.8692 H   0  0  0  0  0  0  0  0  0  0  0  0
    0.4943    2.8319    1.0472 H   0  0  0  0  0  0  0  0  0  0  0  0
    2.1667    1.0590    1.1886 H   0  0  0  0  0  0  0  0  0  0  0  0
    1.7693   -2.3741    0.1284 H   0  0  0  0  0  0  0  0  0  0  0  0
    2.8247    0.1395   -1.4850 H   0  0  0  0  0  0  0  0  0  0  0  0
    4.5024    1.4698   -2.6852 H   0  0  0  0  0  0  0  0  0  0  0  0
    7.4462    0.4535    0.2248 H   0  0  0  0  0  0  0  0  0  0  0  0
    5.2765   -2.2782    3.2610 H   0  0  0  0  0  0  0  0  0  0  0  0
    3.0244   -2.4528    2.4707 H   0  0  0  0  0  0  0  0  0  0  0  0
   -0.5054   -1.6833   -0.7878 H   0  0  0  0  0  0  0  0  0  0  0  0
  1  2  1  0
  2  3  1  0
  3  4  1  0
  4  5  1  0
  3  6  1  0
  6  7  1  0
  7  8  2  0
  8  9  1  0
  8 10  1  0
 10 11  2  0
 11 12  1  0
 12 13  1  0
 13 14  1  0
 14 15  1  0
 15 16  2  0
 16 17  1  0
 17 18  2  0
 18 19  1  0
 18 20  1  0
 20 21  2  0
 21 22  1  0
 22 23  2  0
 23 24  1  0
 12 25  2  0
 25  7  1  0
 24 14  2  0
 21 15  1  0
  1 26  1  0
  1 27  1  0
  1 28  1  0
  2 29  1  0
  2 30  1  0
  4 31  1  0
  4 32  1  0
  5 33  1  0
  5 34  1  0
  5 35  1  0
  6 36  1  0
  6 37  1  0
  9 38  1  0
 10 39  1  0
 11 40  1  0
 13 41  1  0
 16 42  1  0
 17 43  1  0
 20 44  1  0
 23 45  1  0
 24 46  1  0
 25 47  1  0
M  END
$$$$
