@<TRIPOS>MOLECULE
*****
 51 53 0 0 0
SMALL
GASTEIGER

@<TRIPOS>ATOM
      1 C           1.4663   -0.7956    2.2362 C.3     1  UNL1       -0.0421
      2 C           1.6303    0.4438    1.3701 C.3     1  UNL1        0.0515
      3 C           2.8835    0.3459    0.5870 C.ar    1  UNL1       -0.0269
      4 C           3.0802    1.1604   -0.4874 C.ar    1  UNL1       -0.0534
      5 C           4.2374    1.0812   -1.2232 C.ar    1  UNL1       -0.0194
      6 C           5.2621    0.1689   -0.9093 C.ar    1  UNL1        0.1269
      7 O           6.3997    0.1198   -1.6658 O.3     1  UNL1       -0.4342
      8 C           7.4716   -0.7363   -1.4501 C.3     1  UNL1        0.3893
      9 F           7.7123   -1.5671   -2.5432 F       1  UNL1       -0.1663
     10 F           8.6613   -0.0234   -1.2154 F       1  UNL1       -0.1663
     11 C           5.0024   -0.6227    0.1837 C.ar    1  UNL1       -0.0194
     12 C           3.8502   -0.5653    0.9410 C.ar    1  UNL1       -0.0534
     13 N           0.4534    0.5246    0.5335 N.am    1  UNL1       -0.2605
     14 C           0.0964   -0.4764   -0.4326 C.3     1  UNL1        0.0224
     15 C          -1.3304   -0.9043   -0.3781 C.3     1  UNL1        0.0075
     16 C          -2.2828    0.1386    0.0935 C.3     1  UNL1        0.1435
     17 C          -2.6923   -0.1391    1.5072 C.3     1  UNL1        0.0148
     18 C          -3.6667    0.9019    2.0331 C.3     1  UNL1        0.0482
     19 O          -4.0131    0.5956    3.3472 O.3     1  UNL1       -0.3949
     20 C          -3.4419    0.1659   -0.8307 C.ar    1  UNL1       -0.0039
     21 C          -4.5669   -0.6261   -0.6202 C.ar    1  UNL1       -0.0521
     22 C          -5.6193   -0.5852   -1.4810 C.ar    1  UNL1       -0.0261
     23 C          -5.6024    0.2420   -2.5873 C.ar    1  UNL1        0.1234
     24 F          -6.6791    0.2501   -3.4223 F       1  UNL1       -0.2055
     25 C          -4.4881    1.0277   -2.7975 C.ar    1  UNL1       -0.0261
     26 C          -3.4008    0.9976   -1.9246 C.ar    1  UNL1       -0.0521
     27 O          -1.7066    1.4489    0.0777 O.3     1  UNL1       -0.4388
     28 C          -0.4386    1.6525    0.6401 C.2     1  UNL1        0.4042
     29 O          -0.0839    2.7025    1.1899 O.2     1  UNL1       -0.2262
     30 H           0.4475   -0.8285    2.6689 H       1  UNL1        0.0251
     31 H           2.1834   -0.7506    3.0848 H       1  UNL1        0.0251
     32 H           1.6190   -1.7115    1.6236 H       1  UNL1        0.0251
     33 H           1.6915    1.3151    2.0217 H       1  UNL1        0.0549
     34 H           2.3495    1.9101   -0.8248 H       1  UNL1        0.0622
     35 H           4.4145    1.7276   -2.0908 H       1  UNL1        0.0654
     36 H           7.3262   -1.3910   -0.5957 H       1  UNL1        0.1520
     37 H           5.7340   -1.3718    0.5198 H       1  UNL1        0.0654
     38 H           3.7019   -1.2274    1.8061 H       1  UNL1        0.0622
     39 H           0.7742   -1.3531   -0.3934 H       1  UNL1        0.0467
     40 H           0.2643   -0.0105   -1.4466 H       1  UNL1        0.0467
     41 H          -1.6023   -1.3038   -1.3986 H       1  UNL1        0.0322
     42 H          -1.4205   -1.8071    0.2922 H       1  UNL1        0.0322
     43 H          -3.0598   -1.1537    1.6915 H       1  UNL1        0.0329
     44 H          -1.7661   -0.0230    2.1377 H       1  UNL1        0.0329
     45 H          -4.6010    0.9138    1.4366 H       1  UNL1        0.0558
     46 H          -3.2049    1.9100    2.0605 H       1  UNL1        0.0558
     47 H          -4.9880    0.4416    3.4488 H       1  UNL1        0.2094
     48 H          -4.5269   -1.2595    0.2674 H       1  UNL1        0.0622
     49 H          -6.4840   -1.2328   -1.2666 H       1  UNL1        0.0646
     50 H          -4.4927    1.6686   -3.6680 H       1  UNL1        0.0646
     51 H          -2.5541    1.6408   -2.1467 H       1  UNL1        0.0622
@<TRIPOS>BOND
     1     1     2    1
     2     2     3    1
     3     3     4   ar
     4     4     5   ar
     5     5     6   ar
     6     6     7    1
     7     7     8    1
     8     8     9    1
     9     8    10    1
    10     6    11   ar
    11    11    12   ar
    12     2    13    1
    13    13    14    1
    14    14    15    1
    15    15    16    1
    16    16    17    1
    17    17    18    1
    18    18    19    1
    19    16    20    1
    20    20    21   ar
    21    21    22   ar
    22    22    23   ar
    23    23    24    1
    24    23    25   ar
    25    25    26   ar
    26    16    27    1
    27    27    28    1
    28    28    29    2
    29    12     3   ar
    30    28    13   am
    31    26    20   ar
    32     1    30    1
    33     1    31    1
    34     1    32    1
    35     2    33    1
    36     4    34    1
    37     5    35    1
    38     8    36    1
    39    11    37    1
    40    12    38    1
    41    14    39    1
    42    14    40    1
    43    15    41    1
    44    15    42    1
    45    17    43    1
    46    17    44    1
    47    18    45    1
    48    18    46    1
    49    19    47    1
    50    21    48    1
    51    22    49    1
    52    25    50    1
    53    26    51    1
