
     RDKit          3D

 51 53  0  0  0  0  0  0  0  0999 V2000
    1.4663   -0.7956    2.2362 C   0  0  0  0  0  0  0  0  0  0  0  0
    1.6303    0.4438    1.3701 C   0  0  1  0  0  0  0  0  0  0  0  0
    2.8835    0.3459    0.5870 C   0  0  0  0  0  0  0  0  0  0  0  0
    3.0802    1.1604   -0.4874 C   0  0  0  0  0  0  0  0  0  0  0  0
    4.2374    1.0812   -1.2232 C   0  0  0  0  0  0  0  0  0  0  0  0
    5.2621    0.1689   -0.9093 C   0  0  0  0  0  0  0  0  0  0  0  0
    6.3997    0.1198   -1.6658 O   0  0  0  0  0  0  0  0  0  0  0  0
    7.4716   -0.7363   -1.4501 C   0  0  0  0  0  0  0  0  0  0  0  0
    7.7123   -1.5671   -2.5432 F   0  0  0  0  0  0  0  0  0  0  0  0
    8.6613   -0.0234   -1.2154 F   0  0  0  0  0  0  0  0  0  0  0  0
    5.0024   -0.6227    0.1837 C   0  0  0  0  0  0  0  0  0  0  0  0
    3.8502   -0.5653    0.9410 C   0  0  0  0  0  0  0  0  0  0  0  0
    0.4534    0.5246    0.5335 N   0  0  0  0  0  0  0  0  0  0  0  0
    0.0964   -0.4764   -0.4326 C   0  0  0  0  0  0  0  0  0  0  0  0
   -1.3304   -0.9043   -0.3781 C   0  0  0  0  0  0  0  0  0  0  0  0
   -2.2828    0.1386    0.0935 C   0  0  2  0  0  0  0  0  0  0  0  0
   -2.6923   -0.1391    1.5072 C   0  0  0  0  0  0  0  0  0  0  0  0
   -3.6667    0.9019    2.0331 C   0  0  0  0  0  0  0  0  0  0  0  0
   -4.0131    0.5956    3.3472 O   0  0  0  0  0  0  0  0  0  0  0  0
   -3.4419    0.1659   -0.8307 C   0  0  0  0  0  0  0  0  0  0  0  0
   -4.5669   -0.6261   -0.6202 C   0  0  0  0  0  0  0  0  0  0  0  0
   -5.6193   -0.5852   -1.4810 C   0  0  0  0  0  0  0  0  0  0  0  0
   -5.6024    0.2420   -2.5873 C   0  0  0  0  0  0  0  0  0  0  0  0
   -6.6791    0.2501   -3.4223 F   0  0  0  0  0  0  0  0  0  0  0  0
   -4.4881    1.0277   -2.7975 C   0  0  0  0  0  0  0  0  0  0  0  0
   -3.4008    0.9976   -1.9246 C   0  0  0  0  0  0  0  0  0  0  0  0
   -1.7066    1.4489    0.0777 O   0  0  0  0  0  0  0  0  0  0  0  0
   -0.4386    1.6525    0.6401 C   0  0  0  0  0  0  0  0  0  0  0  0
   -0.0839    2.7025    1.1899 O   0  0  0  0  0  0  0  0  0  0  0  0
    0.4475   -0.8285    2.6689 H   0  0  0  0  0  0  0  0  0  0  0  0
    2.1834   -0.7506    3.0848 H   0  0  0  0  0  0  0  0  0  0  0  0
    1.6190   -1.7115    1.6236 H   0  0  0  0  0  0  0  0  0  0  0  0
    1.6915    1.3151    2.0217 H   0  0  0  0  0  0  0  0  0  0  0  0
    2.3495    1.9101   -0.8248 H   0  0  0  0  0  0  0  0  0  0  0  0
    4.4145    1.7276   -2.0908 H   0  0  0  0  0  0  0  0  0  0  0  0
    7.3262   -1.3910   -0.5957 H   0  0  0  0  0  0  0  0  0  0  0  0
    5.7340   -1.3718    0.5198 H   0  0  0  0  0  0  0  0  0  0  0  0
    3.7019   -1.2274    1.8061 H   0  0  0  0  0  0  0  0  0  0  0  0
    0.7742   -1.3531   -0.3934 H   0  0  0  0  0  0  0  0  0  0  0  0
    0.2643   -0.0105   -1.4466 H   0  0  0  0  0  0  0  0  0  0  0  0
   -1.6023   -1.3038   -1.3986 H   0  0  0  0  0  0  0  0  0  0  0  0
   -1.4205   -1.8071    0.2922 H   0  0  0  0  0  0  0  0  0  0  0  0
   -3.0598   -1.1537    1.6915 H   0  0  0  0  0  0  0  0  0  0  0  0
   -1.7661   -0.0230    2.1377 H   0  0  0  0  0  0  0  0  0  0  0  0
   -4.6010    0.9138    1.4366 H   0  0  0  0  0  0  0  0  0  0  0  0
   -3.2049    1.9100    2.0605 H   0  0  0  0  0  0  0  0  0  0  0  0
   -4.9880    0.4416    3.4488 H   0  0  0  0  0  0  0  0  0  0  0  0
   -4.5269   -1.2595    0.2674 H   0  0  0  0  0  0  0  0  0  0  0  0
   -6.4840   -1.2328   -1.2666 H   0  0  0  0  0  0  0  0  0  0  0  0
   -4.4927    1.6686   -3.6680 H   0  0  0  0  0  0  0  0  0  0  0  0
   -2.5541    1.6408   -2.1467 H   0  0  0  0  0  0  0  0  0  0  0  0
  1  2  1  0
  2  3  1  0
  3  4  2  0
  4  5  1  0
  5  6  2  0
  6  7  1  0
  7  8  1  0
  8  9  1  0
  8 10  1  0
  6 11  1  0
 11 12  2  0
  2 13  1  0
 13 14  1  0
 14 15  1  0
 15 16  1  0
 16 17  1  1
 17 18  1  0
 18 19  1  0
 16 20  1  0
 20 21  2  0
 21 22  1  0
 22 23  2  0
 23 24  1  0
 23 25  1  0
 25 26  2  0
 16 27  1  0
 27 28  1  0
 28 29  2  0
 12  3  1  0
 28 13  1  0
 26 20  1  0
  1 30  1  0
  1 31  1  0
  1 32  1  0
  2 33  1  1
  4 34  1  0
  5 35  1  0
  8 36  1  0
 11 37  1  0
 12 38  1  0
 14 39  1  0
 14 40  1  0
 15 41  1  0
 15 42  1  0
 17 43  1  0
 17 44  1  0
 18 45  1  0
 18 46  1  0
 19 47  1  0
 21 48  1  0
 22 49  1  0
 25 50  1  0
 26 51  1  0
M  END
$$$$
