@<TRIPOS>MOLECULE
*****
 40 42 0 0 0
SMALL
GASTEIGER

@<TRIPOS>ATOM
      1 C           0.4609    1.0107   -4.4065 C.3     1  UNL1       -0.0024
      2 N          -0.1206    0.6677   -3.1492 N.pl3   1  UNL1       -0.3463
      3 C           0.3901    0.6278   -1.8337 C.ar    1  UNL1        0.0392
      4 C          -0.3443    0.2629   -0.7261 C.ar    1  UNL1        0.0589
      5 C           0.2978    0.2726    0.4960 C.ar    1  UNL1       -0.0340
      6 C           1.6194    0.6200    0.6922 C.ar    1  UNL1        0.0164
      7 S           2.4120    0.6190    2.2918 S.3     1  UNL1       -0.0499
      8 C           4.1025    1.1206    2.1398 C.ar    1  UNL1        0.1959
      9 N           4.6306    2.3513    2.2005 N.ar    1  UNL1       -0.1224
     10 N           5.9491    2.2941    2.0367 N.ar    1  UNL1       -0.1370
     11 C           6.2526    0.9860    1.8685 C.ar    1  UNL1        0.1202
     12 N           5.1213    0.2536    1.9302 N.ar    1  UNL1       -0.3114
     13 C           5.0831   -1.1915    1.7891 C.3     1  UNL1        0.0152
     14 C           2.3579    0.9894   -0.4392 C.ar    1  UNL1       -0.0461
     15 C           1.7009    0.9773   -1.6741 C.ar    1  UNL1       -0.0391
     16 C          -1.7153   -0.1159   -0.7974 C.2     1  UNL1        0.2515
     17 O          -2.4323   -0.1732   -1.8245 O.2     1  UNL1       -0.2697
     18 N          -2.4648   -0.4872    0.3184 N.am    1  UNL1       -0.2606
     19 C          -3.8638   -0.8823    0.3054 C.ar    1  UNL1        0.1648
     20 N          -4.6204   -1.2177    1.1494 N.ar    1  UNL1       -0.2298
     21 C          -5.8906   -1.5514    0.9624 C.ar    1  UNL1        0.0475
     22 C          -6.6771   -1.9482    2.1663 C.3     1  UNL1       -0.0218
     23 C          -6.3579   -1.4813   -0.4544 C.ar    1  UNL1       -0.0001
     24 S          -4.7728   -0.9103   -1.3015 S.2     1  UNL1       -0.0602
     25 H           1.5148    1.3510   -4.2168 H       1  UNL1        0.0425
     26 H          -0.0707    1.8614   -4.9206 H       1  UNL1        0.0425
     27 H           0.5281    0.1090   -5.0606 H       1  UNL1        0.0425
     28 H          -1.0840    0.4367   -3.4676 H       1  UNL1        0.1458
     29 H          -0.1707    0.0074    1.4323 H       1  UNL1        0.0637
     30 H           7.2927    0.6911    1.7141 H       1  UNL1        0.1048
     31 H           5.1356   -1.6617    2.7943 H       1  UNL1        0.0457
     32 H           5.9416   -1.5093    1.1481 H       1  UNL1        0.0457
     33 H           4.1475   -1.4936    1.2727 H       1  UNL1        0.0457
     34 H           3.4019    1.2652   -0.2942 H       1  UNL1        0.0629
     35 H           2.3929    1.2821   -2.4451 H       1  UNL1        0.0636
     36 H          -2.0715   -0.5124    1.2798 H       1  UNL1        0.1571
     37 H          -7.6772   -2.2974    1.9122 H       1  UNL1        0.0293
     38 H          -6.7034   -1.0958    2.8990 H       1  UNL1        0.0293
     39 H          -6.1752   -2.7884    2.7268 H       1  UNL1        0.0293
     40 H          -7.5207   -1.8026   -0.5145 H       1  UNL1        0.0712
@<TRIPOS>BOND
     1     1     2    1
     2     2     3    1
     3     3     4   ar
     4     4     5   ar
     5     5     6   ar
     6     6     7    1
     7     7     8    1
     8     8     9   ar
     9     9    10   ar
    10    10    11   ar
    11    11    12   ar
    12    12    13    1
    13     6    14   ar
    14    14    15   ar
    15     4    16    1
    16    16    17    2
    17    16    18   am
    18    18    19    1
    19    19    20   ar
    20    20    21   ar
    21    21    22    1
    22    21    23   ar
    23    23    24   ar
    24    15     3   ar
    25    24    19   ar
    26    12     8   ar
    27     1    25    1
    28     1    26    1
    29     1    27    1
    30     2    28    1
    31     5    29    1
    32    11    30    1
    33    13    31    1
    34    13    32    1
    35    13    33    1
    36    14    34    1
    37    15    35    1
    38    18    36    1
    39    22    37    1
    40    22    38    1
    41    22    39    1
    42    23    40    1
