@<TRIPOS>MOLECULE
*****
 72 73 0 0 0
SMALL
GASTEIGER

@<TRIPOS>ATOM
      1 C          -1.9355    5.4566    1.5787 C.3     1  UNL1       -0.0446
      2 C          -2.9993    4.5337    1.0948 C.2     1  UNL1       -0.0608
      3 C          -2.3764    3.5063    0.6475 C.2     1  UNL1        0.0917
      4 N          -1.0962    2.9742    0.4615 N.am    1  UNL1       -0.2801
      5 C           0.1753    2.4457    0.2764 C.2     1  UNL1        0.2385
      6 O          -0.0450    2.4000   -0.9299 O.2     1  UNL1       -0.2734
      7 C           1.3236    2.0768    1.1937 C.3     1  UNL1        0.1095
      8 C           0.7874    1.5428    2.4695 C.3     1  UNL1        0.0309
      9 S           2.0567    0.9023    3.6067 S.3     1  UNL1       -0.0908
     10 S           2.8658   -0.9038    2.9051 S.3     1  UNL1       -0.0928
     11 C           2.0923   -2.3826    3.4929 C.3     1  UNL1        0.0074
     12 C           0.6497   -2.5896    3.2511 C.3     1  UNL1       -0.0248
     13 C           0.1555   -2.4356    1.8770 C.2     1  UNL1       -0.0837
     14 C          -0.4309   -3.1650    0.8944 C.2     1  UNL1       -0.0474
     15 C          -0.7946   -2.6229   -0.4071 C.3     1  UNL1        0.1295
     16 C           0.2562   -2.5880   -1.4824 C.3     1  UNL1        0.0647
     17 C           1.5029   -1.9544   -1.0572 C.2     1  UNL1        0.2175
     18 O           2.1319   -2.1692   -0.0048 O.2     1  UNL1       -0.2757
     19 N           2.4368   -0.9930   -1.4710 N.am    1  UNL1       -0.3036
     20 C           3.6624   -0.2936   -1.1864 C.3     1  UNL1        0.1017
     21 C           4.6818   -1.2032   -0.5095 C.3     1  UNL1       -0.0197
     22 C           5.9427   -0.3726   -0.2556 C.3     1  UNL1       -0.0605
     23 C           5.0629   -2.2851   -1.4927 C.3     1  UNL1       -0.0605
     24 C           3.2971    0.8381   -0.2970 C.2     1  UNL1        0.2342
     25 O           3.9582    1.8320    0.1578 O.2     1  UNL1       -0.2738
     26 N           2.1490    1.2618    0.3810 N.am    1  UNL1       -0.3017
     27 O          -1.5043   -1.3737   -0.3623 O.3     1  UNL1       -0.4554
     28 C          -2.8094   -1.2343   -0.8276 C.2     1  UNL1        0.3285
     29 O          -3.3058   -2.2913   -1.2702 O.2     1  UNL1       -0.2487
     30 C          -3.7713   -0.1288   -0.9374 C.3     1  UNL1        0.1230
     31 N          -3.3892    1.1165   -0.3968 N.am    1  UNL1       -0.2971
     32 C          -3.0953    2.3585    0.1503 C.2     1  UNL1        0.2586
     33 O          -4.3789    2.3920    0.1901 O.2     1  UNL1       -0.2688
     34 C          -4.1327   -0.0081   -2.4175 C.3     1  UNL1       -0.0178
     35 C          -5.0954    1.0946   -2.7044 C.3     1  UNL1       -0.0605
     36 C          -4.7602   -1.2883   -2.8780 C.3     1  UNL1       -0.0605
     37 H          -1.1814    5.7054    0.8091 H       1  UNL1        0.0272
     38 H          -1.4811    5.1358    2.5422 H       1  UNL1        0.0272
     39 H          -2.4604    6.4054    1.8138 H       1  UNL1        0.0272
     40 H          -4.0757    4.5332    1.0331 H       1  UNL1        0.0589
     41 H          -0.9637    3.1013    1.5160 H       1  UNL1        0.1550
     42 H           1.8847    3.0150    1.4657 H       1  UNL1        0.0603
     43 H           0.3561    2.4328    3.0179 H       1  UNL1        0.0407
     44 H          -0.0819    0.8582    2.3757 H       1  UNL1        0.0407
     45 H           2.6309   -3.2540    2.9869 H       1  UNL1        0.0387
     46 H           2.3428   -2.5807    4.5856 H       1  UNL1        0.0387
     47 H           0.2974   -3.5644    3.7011 H       1  UNL1        0.0315
     48 H           0.0861   -1.8364    3.8959 H       1  UNL1        0.0315
     49 H           0.3081   -1.3697    1.6262 H       1  UNL1        0.0570
     50 H          -0.5965   -4.2139    1.2027 H       1  UNL1        0.0605
     51 H          -1.5516   -3.3616   -0.8405 H       1  UNL1        0.0784
     52 H           0.4006   -3.6354   -1.8361 H       1  UNL1        0.0398
     53 H          -0.2004   -2.0620   -2.3427 H       1  UNL1        0.0398
     54 H           1.9620   -0.7164   -2.3829 H       1  UNL1        0.1495
     55 H           4.1189    0.0786   -2.0961 H       1  UNL1        0.0597
     56 H           4.3304   -1.6431    0.4168 H       1  UNL1        0.0318
     57 H           6.0045   -0.1186    0.8234 H       1  UNL1        0.0233
     58 H           6.0169    0.4946   -0.9224 H       1  UNL1        0.0233
     59 H           6.8497   -0.9952   -0.4567 H       1  UNL1        0.0233
     60 H           5.7370   -3.0257   -0.9755 H       1  UNL1        0.0233
     61 H           4.1726   -2.8007   -1.9029 H       1  UNL1        0.0233
     62 H           5.6526   -1.7886   -2.3104 H       1  UNL1        0.0233
     63 H           1.5019    0.4616    0.1266 H       1  UNL1        0.1495
     64 H          -4.7296   -0.4113   -0.4634 H       1  UNL1        0.0617
     65 H          -2.3520    1.1168   -0.4959 H       1  UNL1        0.1499
     66 H          -3.2056    0.1523   -2.9791 H       1  UNL1        0.0319
     67 H          -5.8654    1.2841   -1.9575 H       1  UNL1        0.0233
     68 H          -5.6357    0.9152   -3.6575 H       1  UNL1        0.0233
     69 H          -4.5583    2.0614   -2.8684 H       1  UNL1        0.0233
     70 H          -5.5301   -1.0454   -3.6832 H       1  UNL1        0.0233
     71 H          -5.3851   -1.7977   -2.1032 H       1  UNL1        0.0233
     72 H          -4.0665   -1.9795   -3.4046 H       1  UNL1        0.0233
@<TRIPOS>BOND
     1     1     2    1
     2     2     3    2
     3     3     4    1
     4     4     5   am
     5     5     6    2
     6     5     7    1
     7     7     8    1
     8     8     9    1
     9     9    10    1
    10    10    11    1
    11    11    12    1
    12    12    13    1
    13    13    14    2
    14    14    15    1
    15    15    16    1
    16    16    17    1
    17    17    18    2
    18    17    19   am
    19    19    20    1
    20    20    21    1
    21    21    22    1
    22    21    23    1
    23    20    24    1
    24    24    25    2
    25    24    26   am
    26    15    27    1
    27    27    28    1
    28    28    29    2
    29    28    30    1
    30    30    31    1
    31    31    32   am
    32    32    33    2
    33    30    34    1
    34    34    35    1
    35    34    36    1
    36    32     3    1
    37    26     7    1
    38     1    37    1
    39     1    38    1
    40     1    39    1
    41     2    40    1
    42     4    41    1
    43     7    42    1
    44     8    43    1
    45     8    44    1
    46    11    45    1
    47    11    46    1
    48    12    47    1
    49    12    48    1
    50    13    49    1
    51    14    50    1
    52    15    51    1
    53    16    52    1
    54    16    53    1
    55    19    54    1
    56    20    55    1
    57    21    56    1
    58    22    57    1
    59    22    58    1
    60    22    59    1
    61    23    60    1
    62    23    61    1
    63    23    62    1
    64    26    63    1
    65    30    64    1
    66    31    65    1
    67    34    66    1
    68    35    67    1
    69    35    68    1
    70    35    69    1
    71    36    70    1
    72    36    71    1
    73    36    72    1
