
     RDKit          3D

 62 64  0  0  0  0  0  0  0  0999 V2000
   -4.9339   -0.3816    2.7145 C   0  0  0  0  0  0  0  0  0  0  0  0
   -4.1211   -0.1726    1.4599 C   0  0  0  0  0  0  0  0  0  0  0  0
   -2.8545    0.3376    1.5636 C   0  0  0  0  0  0  0  0  0  0  0  0
   -2.0633    0.5097    0.4587 C   0  0  0  0  0  0  0  0  0  0  0  0
   -0.7778    1.0264    0.5382 O   0  0  0  0  0  0  0  0  0  0  0  0
    0.0321    0.9512   -0.5831 C   0  0  0  0  0  0  0  0  0  0  0  0
   -0.0163    1.9200   -1.5543 C   0  0  0  0  0  0  0  0  0  0  0  0
    0.8207    1.8081   -2.6710 C   0  0  0  0  0  0  0  0  0  0  0  0
    1.6894    0.7394   -2.8048 C   0  0  0  0  0  0  0  0  0  0  0  0
    1.7524   -0.2425   -1.8414 C   0  0  0  0  0  0  0  0  0  0  0  0
    2.7048   -1.3744   -2.0198 C   0  0  0  0  0  0  0  0  0  0  0  0
    4.0078   -1.0815   -1.5211 N   0  0  0  0  0  0  0  0  0  0  0  0
    4.3697   -1.0592   -0.1600 C   0  0  0  0  0  0  0  0  0  0  0  0
    3.4765   -1.3215    0.6990 O   0  0  0  0  0  0  0  0  0  0  0  0
    5.7310   -0.7492    0.3267 C   0  0  0  0  0  0  0  0  0  0  0  0
    6.5564   -1.8330    0.6310 C   0  0  0  0  0  0  0  0  0  0  0  0
    7.8275   -1.6633    1.0932 C   0  0  0  0  0  0  0  0  0  0  0  0
    8.3226   -0.3723    1.2688 C   0  0  0  0  0  0  0  0  0  0  0  0
    9.7028   -0.1340    1.7758 C   0  0  0  0  0  0  0  0  0  0  0  0
    9.8570   -0.6725    3.0391 F   0  0  0  0  0  0  0  0  0  0  0  0
    9.9428    1.2210    1.7574 F   0  0  0  0  0  0  0  0  0  0  0  0
   10.5920   -0.8033    0.9434 F   0  0  0  0  0  0  0  0  0  0  0  0
    7.4973    0.6888    0.9642 C   0  0  0  0  0  0  0  0  0  0  0  0
    6.2035    0.5246    0.4940 C   0  0  0  0  0  0  0  0  0  0  0  0
    5.3262    1.6657    0.1810 C   0  0  0  0  0  0  0  0  0  0  0  0
    4.1978    1.6050    0.9877 F   0  0  0  0  0  0  0  0  0  0  0  0
    5.9916    2.8763    0.3358 F   0  0  0  0  0  0  0  0  0  0  0  0
    4.8919    1.5534   -1.1203 F   0  0  0  0  0  0  0  0  0  0  0  0
    0.9184   -0.1037   -0.7595 C   0  0  0  0  0  0  0  0  0  0  0  0
   -2.5862    0.1516   -0.7627 C   0  0  0  0  0  0  0  0  0  0  0  0
   -3.8514   -0.3589   -0.8804 C   0  0  0  0  0  0  0  0  0  0  0  0
   -4.6593   -0.5376    0.2169 C   0  0  0  0  0  0  0  0  0  0  0  0
   -5.9296   -1.0395    0.1820 O   0  0  0  0  0  0  0  0  0  0  0  0
   -7.1239   -0.3538    0.0420 C   0  0  0  0  0  0  0  0  0  0  0  0
   -7.3727    0.6838    1.1487 C   0  0  0  0  0  0  0  0  0  0  0  0
   -8.2954   -1.3522    0.2226 C   0  0  0  0  0  0  0  0  0  0  0  0
   -7.3824    0.3294   -1.2206 C   0  0  0  0  0  0  0  0  0  0  0  0
   -6.6548    0.4034   -2.2246 O   0  0  0  0  0  0  0  0  0  0  0  0
   -8.6211    1.0039   -1.3433 O   0  0  0  0  0  0  0  0  0  0  0  0
   -5.2914    0.5559    3.1341 H   0  0  0  0  0  0  0  0  0  0  0  0
   -5.6708   -1.1703    2.5475 H   0  0  0  0  0  0  0  0  0  0  0  0
   -4.1691   -0.7774    3.4513 H   0  0  0  0  0  0  0  0  0  0  0  0
   -2.4443    0.6182    2.5392 H   0  0  0  0  0  0  0  0  0  0  0  0
   -0.6866    2.7621   -1.4691 H   0  0  0  0  0  0  0  0  0  0  0  0
    0.7796    2.5722   -3.4337 H   0  0  0  0  0  0  0  0  0  0  0  0
    2.3146    0.7101   -3.6977 H   0  0  0  0  0  0  0  0  0  0  0  0
    2.7238   -1.5793   -3.1067 H   0  0  0  0  0  0  0  0  0  0  0  0
    2.2233   -2.2691   -1.5507 H   0  0  0  0  0  0  0  0  0  0  0  0
    4.7542   -0.8680   -2.2248 H   0  0  0  0  0  0  0  0  0  0  0  0
    6.1702   -2.8454    0.4938 H   0  0  0  0  0  0  0  0  0  0  0  0
    8.4747   -2.4924    1.3313 H   0  0  0  0  0  0  0  0  0  0  0  0
    7.8488    1.6936    1.0846 H   0  0  0  0  0  0  0  0  0  0  0  0
    0.9164   -0.8385    0.0147 H   0  0  0  0  0  0  0  0  0  0  0  0
   -1.9850    0.2725   -1.6857 H   0  0  0  0  0  0  0  0  0  0  0  0
   -4.2558   -0.6570   -1.8637 H   0  0  0  0  0  0  0  0  0  0  0  0
   -8.2720    1.2543    0.7960 H   0  0  0  0  0  0  0  0  0  0  0  0
   -7.6673    0.2160    2.0859 H   0  0  0  0  0  0  0  0  0  0  0  0
   -6.5608    1.4096    1.1763 H   0  0  0  0  0  0  0  0  0  0  0  0
   -8.0162   -1.9522    1.1063 H   0  0  0  0  0  0  0  0  0  0  0  0
   -9.2465   -0.8231    0.4274 H   0  0  0  0  0  0  0  0  0  0  0  0
   -8.4392   -1.9668   -0.6795 H   0  0  0  0  0  0  0  0  0  0  0  0
   -8.6691    1.7817   -2.0134 H   0  0  0  0  0  0  0  0  0  0  0  0
  1  2  1  0
  2  3  2  0
  3  4  1  0
  4  5  1  0
  5  6  1  0
  6  7  2  0
  7  8  1  0
  8  9  2  0
  9 10  1  0
 10 11  1  0
 11 12  1  0
 12 13  1  0
 13 14  2  0
 13 15  1  0
 15 16  2  0
 16 17  1  0
 17 18  2  0
 18 19  1  0
 19 20  1  0
 19 21  1  0
 19 22  1  0
 18 23  1  0
 23 24  2  0
 24 25  1  0
 25 26  1  0
 25 27  1  0
 25 28  1  0
 10 29  2  0
  4 30  2  0
 30 31  1  0
 31 32  2  0
 32 33  1  0
 33 34  1  0
 34 35  1  0
 34 36  1  0
 34 37  1  0
 37 38  2  0
 37 39  1  0
 32  2  1  0
 29  6  1  0
 24 15  1  0
  1 40  1  0
  1 41  1  0
  1 42  1  0
  3 43  1  0
  7 44  1  0
  8 45  1  0
  9 46  1  0
 11 47  1  0
 11 48  1  0
 12 49  1  0
 16 50  1  0
 17 51  1  0
 23 52  1  0
 29 53  1  0
 30 54  1  0
 31 55  1  0
 35 56  1  0
 35 57  1  0
 35 58  1  0
 36 59  1  0
 36 60  1  0
 36 61  1  0
 39 62  1  0
M  END
$$$$
