@<TRIPOS>MOLECULE
*****
 62 64 0 0 0
SMALL
GASTEIGER

@<TRIPOS>ATOM
      1 C          -4.9339   -0.3816    2.7145 C.3     1  UNL1       -0.0361
      2 C          -4.1211   -0.1726    1.4599 C.ar    1  UNL1       -0.0053
      3 C          -2.8545    0.3376    1.5636 C.ar    1  UNL1       -0.0130
      4 C          -2.0633    0.5097    0.4587 C.ar    1  UNL1        0.1289
      5 O          -0.7778    1.0264    0.5382 O.3     1  UNL1       -0.4560
      6 C           0.0321    0.9512   -0.5831 C.ar    1  UNL1        0.1287
      7 C          -0.0163    1.9200   -1.5543 C.ar    1  UNL1       -0.0193
      8 C           0.8207    1.8081   -2.6710 C.ar    1  UNL1       -0.0580
      9 C           1.6894    0.7394   -2.8048 C.ar    1  UNL1       -0.0569
     10 C           1.7524   -0.2425   -1.8414 C.ar    1  UNL1       -0.0268
     11 C           2.7048   -1.3744   -2.0198 C.3     1  UNL1        0.0373
     12 N           4.0078   -1.0815   -1.5211 N.am    1  UNL1       -0.3072
     13 C           4.3697   -1.0592   -0.1600 C.2     1  UNL1        0.2449
     14 O           3.4765   -1.3215    0.6990 O.2     1  UNL1       -0.2702
     15 C           5.7310   -0.7492    0.3267 C.ar    1  UNL1        0.0483
     16 C           6.5564   -1.8330    0.6310 C.ar    1  UNL1       -0.0486
     17 C           7.8275   -1.6633    1.0932 C.ar    1  UNL1       -0.0494
     18 C           8.3226   -0.3723    1.2688 C.ar    1  UNL1        0.0554
     19 C           9.7028   -0.1340    1.7758 C.3     1  UNL1        0.4174
     20 F           9.8570   -0.6725    3.0391 F       1  UNL1       -0.1659
     21 F           9.9428    1.2210    1.7574 F       1  UNL1       -0.1659
     22 F          10.5920   -0.8033    0.9434 F       1  UNL1       -0.1659
     23 C           7.4973    0.6888    0.9642 C.ar    1  UNL1       -0.0377
     24 C           6.2035    0.5246    0.4940 C.ar    1  UNL1        0.0674
     25 C           5.3262    1.6657    0.1810 C.3     1  UNL1        0.4181
     26 F           4.1978    1.6050    0.9877 F       1  UNL1       -0.1659
     27 F           5.9916    2.8763    0.3358 F       1  UNL1       -0.1659
     28 F           4.8919    1.5534   -1.1203 F       1  UNL1       -0.1659
     29 C           0.9184   -0.1037   -0.7595 C.ar    1  UNL1       -0.0147
     30 C          -2.5862    0.1516   -0.7627 C.ar    1  UNL1       -0.0159
     31 C          -3.8514   -0.3589   -0.8804 C.ar    1  UNL1       -0.0162
     32 C          -4.6593   -0.5376    0.2169 C.ar    1  UNL1        0.1252
     33 O          -5.9296   -1.0395    0.1820 O.3     1  UNL1       -0.4748
     34 C          -7.1239   -0.3538    0.0420 C.3     1  UNL1        0.2003
     35 C          -7.3727    0.6838    1.1487 C.3     1  UNL1       -0.0145
     36 C          -8.2954   -1.3522    0.2226 C.3     1  UNL1       -0.0145
     37 C          -7.3824    0.3294   -1.2206 C.2     1  UNL1        0.3485
     38 O          -6.6548    0.4034   -2.2246 O.2     1  UNL1       -0.2465
     39 O          -8.6211    1.0039   -1.3433 O.3     1  UNL1       -0.4779
     40 H          -5.2914    0.5559    3.1341 H       1  UNL1        0.0279
     41 H          -5.6708   -1.1703    2.5475 H       1  UNL1        0.0279
     42 H          -4.1691   -0.7774    3.4513 H       1  UNL1        0.0279
     43 H          -2.4443    0.6182    2.5392 H       1  UNL1        0.0658
     44 H          -0.6866    2.7621   -1.4691 H       1  UNL1        0.0654
     45 H           0.7796    2.5722   -3.4337 H       1  UNL1        0.0619
     46 H           2.3146    0.7101   -3.6977 H       1  UNL1        0.0621
     47 H           2.7238   -1.5793   -3.1067 H       1  UNL1        0.0512
     48 H           2.2233   -2.2691   -1.5507 H       1  UNL1        0.0512
     49 H           4.7542   -0.8680   -2.2248 H       1  UNL1        0.1493
     50 H           6.1702   -2.8454    0.4938 H       1  UNL1        0.0625
     51 H           8.4747   -2.4924    1.3313 H       1  UNL1        0.0623
     52 H           7.8488    1.6936    1.0846 H       1  UNL1        0.0629
     53 H           0.9164   -0.8385    0.0147 H       1  UNL1        0.0657
     54 H          -1.9850    0.2725   -1.6857 H       1  UNL1        0.0655
     55 H          -4.2558   -0.6570   -1.8637 H       1  UNL1        0.0655
     56 H          -8.2720    1.2543    0.7960 H       1  UNL1        0.0273
     57 H          -7.6673    0.2160    2.0859 H       1  UNL1        0.0273
     58 H          -6.5608    1.4096    1.1763 H       1  UNL1        0.0273
     59 H          -8.0162   -1.9522    1.1063 H       1  UNL1        0.0273
     60 H          -9.2465   -0.8231    0.4274 H       1  UNL1        0.0273
     61 H          -8.4392   -1.9668   -0.6795 H       1  UNL1        0.0273
     62 H          -8.6691    1.7817   -2.0134 H       1  UNL1        0.2952
@<TRIPOS>BOND
     1     1     2    1
     2     2     3   ar
     3     3     4   ar
     4     4     5    1
     5     5     6    1
     6     6     7   ar
     7     7     8   ar
     8     8     9   ar
     9     9    10   ar
    10    10    11    1
    11    11    12    1
    12    12    13   am
    13    13    14    2
    14    13    15    1
    15    15    16   ar
    16    16    17   ar
    17    17    18   ar
    18    18    19    1
    19    19    20    1
    20    19    21    1
    21    19    22    1
    22    18    23   ar
    23    23    24   ar
    24    24    25    1
    25    25    26    1
    26    25    27    1
    27    25    28    1
    28    10    29   ar
    29     4    30   ar
    30    30    31   ar
    31    31    32   ar
    32    32    33    1
    33    33    34    1
    34    34    35    1
    35    34    36    1
    36    34    37    1
    37    37    38    2
    38    37    39    1
    39    32     2   ar
    40    29     6   ar
    41    24    15   ar
    42     1    40    1
    43     1    41    1
    44     1    42    1
    45     3    43    1
    46     7    44    1
    47     8    45    1
    48     9    46    1
    49    11    47    1
    50    11    48    1
    51    12    49    1
    52    16    50    1
    53    17    51    1
    54    23    52    1
    55    29    53    1
    56    30    54    1
    57    31    55    1
    58    35    56    1
    59    35    57    1
    60    35    58    1
    61    36    59    1
    62    36    60    1
    63    36    61    1
    64    39    62    1
