@<TRIPOS>MOLECULE
*****
 55 55 0 0 0
SMALL
GASTEIGER

@<TRIPOS>ATOM
      1 C           8.7748   -0.2094   -0.0713 C.3     1  UNL1       -0.0653
      2 C           7.4153    0.4222    0.0025 C.3     1  UNL1       -0.0559
      3 C           6.2878   -0.5796   -0.2635 C.3     1  UNL1       -0.0533
      4 C           4.9884    0.1976   -0.1556 C.3     1  UNL1       -0.0531
      5 C           3.7883   -0.6588   -0.3937 C.3     1  UNL1       -0.0530
      6 C           2.5259    0.1540   -0.2765 C.3     1  UNL1       -0.0528
      7 C           2.3547    0.7844    1.0759 C.3     1  UNL1       -0.0491
      8 C           1.0552    1.5751    1.0784 C.3     1  UNL1       -0.0277
      9 C          -0.1293    0.7440    0.8071 C.ar    1  UNL1       -0.0473
     10 C          -0.7381    0.1917    1.9208 C.ar    1  UNL1       -0.0583
     11 C          -1.8596   -0.6038    1.7515 C.ar    1  UNL1       -0.0583
     12 C          -2.4268   -0.8902    0.5048 C.ar    1  UNL1       -0.0473
     13 C          -3.6215   -1.7595    0.4763 C.3     1  UNL1       -0.0259
     14 C          -4.9237   -1.0493    0.6094 C.3     1  UNL1       -0.0266
     15 C          -5.2236   -0.0367   -0.4423 C.3     1  UNL1        0.0635
     16 N          -4.2572    1.0375   -0.5084 N.3     1  UNL1       -0.3210
     17 C          -6.5694    0.6423   -0.1562 C.3     1  UNL1        0.0644
     18 O          -7.5945   -0.2804   -0.0669 O.3     1  UNL1       -0.3931
     19 C          -5.3678   -0.6447   -1.8195 C.3     1  UNL1        0.0644
     20 O          -5.8077    0.3622   -2.6942 O.3     1  UNL1       -0.3931
     21 C          -1.7897   -0.3206   -0.5788 C.ar    1  UNL1       -0.0583
     22 C          -0.6721    0.4745   -0.4321 C.ar    1  UNL1       -0.0583
     23 H           9.0662   -0.2878   -1.1316 H       1  UNL1        0.0230
     24 H           9.4755    0.4875    0.4555 H       1  UNL1        0.0230
     25 H           8.7698   -1.1913    0.4428 H       1  UNL1        0.0230
     26 H           7.3395    1.1374   -0.8687 H       1  UNL1        0.0263
     27 H           7.2210    1.0217    0.8898 H       1  UNL1        0.0263
     28 H           6.3452   -1.3509    0.5313 H       1  UNL1        0.0265
     29 H           6.4116   -1.0661   -1.2297 H       1  UNL1        0.0265
     30 H           5.0071    0.9685   -0.9548 H       1  UNL1        0.0265
     31 H           4.9273    0.6384    0.8565 H       1  UNL1        0.0265
     32 H           3.8445   -0.9932   -1.4630 H       1  UNL1        0.0265
     33 H           3.7550   -1.5699    0.2180 H       1  UNL1        0.0265
     34 H           2.5353    0.9587   -1.0378 H       1  UNL1        0.0265
     35 H           1.6639   -0.5088   -0.4467 H       1  UNL1        0.0265
     36 H           2.3782    0.0316    1.8874 H       1  UNL1        0.0268
     37 H           3.1473    1.5669    1.2591 H       1  UNL1        0.0268
     38 H           1.2000    2.3834    0.3332 H       1  UNL1        0.0313
     39 H           0.9403    2.1070    2.0550 H       1  UNL1        0.0313
     40 H          -0.3679    0.3594    2.9263 H       1  UNL1        0.0620
     41 H          -2.3194   -1.0254    2.6378 H       1  UNL1        0.0620
     42 H          -3.6200   -2.3368   -0.4715 H       1  UNL1        0.0314
     43 H          -3.5001   -2.4990    1.2881 H       1  UNL1        0.0314
     44 H          -4.9617   -0.5155    1.6047 H       1  UNL1        0.0288
     45 H          -5.7469   -1.7836    0.6448 H       1  UNL1        0.0288
     46 H          -4.1960    1.4865   -1.4301 H       1  UNL1        0.1189
     47 H          -4.2567    1.6560    0.3125 H       1  UNL1        0.1189
     48 H          -6.4344    1.2469    0.7664 H       1  UNL1        0.0576
     49 H          -6.7743    1.3293   -0.9832 H       1  UNL1        0.0576
     50 H          -8.2454   -0.0491    0.6450 H       1  UNL1        0.2095
     51 H          -4.4367   -1.0913   -2.1845 H       1  UNL1        0.0576
     52 H          -6.1970   -1.3936   -1.7524 H       1  UNL1        0.0576
     53 H          -6.7931    0.3473   -2.7823 H       1  UNL1        0.2095
     54 H          -2.1988   -0.5258   -1.5364 H       1  UNL1        0.0620
     55 H          -0.1884    0.9094   -1.2776 H       1  UNL1        0.0620
@<TRIPOS>BOND
     1     1     2    1
     2     2     3    1
     3     3     4    1
     4     4     5    1
     5     5     6    1
     6     6     7    1
     7     7     8    1
     8     8     9    1
     9     9    10   ar
    10    10    11   ar
    11    11    12   ar
    12    12    13    1
    13    13    14    1
    14    14    15    1
    15    15    16    1
    16    15    17    1
    17    17    18    1
    18    15    19    1
    19    19    20    1
    20    12    21   ar
    21    21    22   ar
    22    22     9   ar
    23     1    23    1
    24     1    24    1
    25     1    25    1
    26     2    26    1
    27     2    27    1
    28     3    28    1
    29     3    29    1
    30     4    30    1
    31     4    31    1
    32     5    32    1
    33     5    33    1
    34     6    34    1
    35     6    35    1
    36     7    36    1
    37     7    37    1
    38     8    38    1
    39     8    39    1
    40    10    40    1
    41    11    41    1
    42    13    42    1
    43    13    43    1
    44    14    44    1
    45    14    45    1
    46    16    46    1
    47    16    47    1
    48    17    48    1
    49    17    49    1
    50    18    50    1
    51    19    51    1
    52    19    52    1
    53    20    53    1
    54    21    54    1
    55    22    55    1
