@<TRIPOS>MOLECULE
*****
 81 84 0 0 0
SMALL
GASTEIGER

@<TRIPOS>ATOM
      1 C           2.1498   -0.2473   -0.8531 C.3     1  UNL1       -0.0322
      2 C           1.9279   -1.5742   -1.6119 C.3     1  UNL1       -0.0486
      3 C           0.4567   -1.9430   -1.3664 C.3     1  UNL1       -0.0431
      4 C          -0.1388   -0.5706   -1.2422 C.3     1  UNL1       -0.0051
      5 C          -0.1256    0.1451   -2.5567 C.3     1  UNL1       -0.0553
      6 C          -1.4594   -0.5266   -0.6301 C.2     1  UNL1       -0.0633
      7 C          -1.9255    0.6233   -0.1529 C.2     1  UNL1       -0.0636
      8 C          -1.0066    1.7472   -0.3128 C.3     1  UNL1       -0.0304
      9 C           0.4491    1.4538   -0.0140 C.3     1  UNL1       -0.0429
     10 C           0.8509    0.0244   -0.2273 C.3     1  UNL1       -0.0196
     11 C           0.6276   -0.7089    1.0789 C.3     1  UNL1       -0.0585
     12 C          -3.2640    0.8085    0.4961 C.3     1  UNL1       -0.0073
     13 C          -3.0399    0.6422    1.9761 C.3     1  UNL1       -0.0556
     14 C          -3.8716    2.1369    0.1935 C.3     1  UNL1       -0.0413
     15 C          -5.2229    2.2308   -0.3404 C.3     1  UNL1       -0.0256
     16 C          -6.0385    1.0020   -0.5414 C.3     1  UNL1        0.0607
     17 O          -7.3752    1.1716   -0.1336 O.3     1  UNL1       -0.3912
     18 C          -5.5489   -0.2113    0.1710 C.3     1  UNL1       -0.0053
     19 C          -5.9688   -0.1863    1.6049 C.3     1  UNL1       -0.0572
     20 C          -6.2058   -1.4157   -0.4766 C.3     1  UNL1       -0.0572
     21 C          -4.0881   -0.3294   -0.0918 C.3     1  UNL1       -0.0242
     22 C          -3.5023   -1.6595    0.2085 C.3     1  UNL1       -0.0451
     23 C          -2.2192   -1.7954   -0.5833 C.3     1  UNL1       -0.0306
     24 C           3.3213   -0.4914    0.1124 C.3     1  UNL1       -0.0402
     25 C           3.6266    0.7622    0.8894 C.3     1  UNL1       -0.0621
     26 C           4.5120   -0.8281   -0.7448 C.3     1  UNL1       -0.0467
     27 C           5.7733   -1.1679   -0.0577 C.3     1  UNL1       -0.0343
     28 C           6.4232   -0.2130    0.8171 C.2     1  UNL1       -0.0853
     29 C           7.6407    0.3044    0.5311 C.2     1  UNL1       -0.0796
     30 C           8.3249   -0.1289   -0.7265 C.3     1  UNL1       -0.0440
     31 C           8.4264    1.2981    1.3475 C.3     1  UNL1       -0.0440
     32 H           2.4612    0.5648   -1.5136 H       1  UNL1        0.0309
     33 H           2.4959   -2.3830   -1.1173 H       1  UNL1        0.0268
     34 H           2.1373   -1.4153   -2.6673 H       1  UNL1        0.0268
     35 H           0.3461   -2.5926   -0.5029 H       1  UNL1        0.0274
     36 H           0.0484   -2.4279   -2.2734 H       1  UNL1        0.0274
     37 H           0.5361    1.0201   -2.6129 H       1  UNL1        0.0238
     38 H           0.1919   -0.5732   -3.3741 H       1  UNL1        0.0238
     39 H          -1.1390    0.4632   -2.8734 H       1  UNL1        0.0238
     40 H          -1.3527    2.5573    0.4014 H       1  UNL1        0.0310
     41 H          -1.0271    2.2508   -1.3026 H       1  UNL1        0.0310
     42 H           0.5990    1.7062    1.0547 H       1  UNL1        0.0274
     43 H           1.1154    2.0945   -0.6221 H       1  UNL1        0.0274
     44 H           1.1756   -1.6570    1.1185 H       1  UNL1        0.0235
     45 H          -0.4821   -0.8562    1.1728 H       1  UNL1        0.0235
     46 H           0.9025   -0.0855    1.9333 H       1  UNL1        0.0235
     47 H          -3.5248   -0.2148    2.4388 H       1  UNL1        0.0238
     48 H          -3.4819    1.5392    2.5031 H       1  UNL1        0.0238
     49 H          -1.9873    0.6383    2.2906 H       1  UNL1        0.0238
     50 H          -3.1645    2.6468   -0.5292 H       1  UNL1        0.0274
     51 H          -3.7341    2.7894    1.1087 H       1  UNL1        0.0274
     52 H          -5.2687    2.7886   -1.3156 H       1  UNL1        0.0290
     53 H          -5.8408    2.9106    0.3213 H       1  UNL1        0.0290
     54 H          -6.1055    0.7194   -1.6244 H       1  UNL1        0.0599
     55 H          -8.0282    0.9564   -0.8174 H       1  UNL1        0.2098
     56 H          -5.7338   -1.1121    2.1536 H       1  UNL1        0.0236
     57 H          -7.0980   -0.1805    1.5673 H       1  UNL1        0.0236
     58 H          -5.7161    0.7476    2.1366 H       1  UNL1        0.0236
     59 H          -6.2257   -2.2363    0.2655 H       1  UNL1        0.0236
     60 H          -5.6723   -1.6936   -1.4159 H       1  UNL1        0.0236
     61 H          -7.2654   -1.2135   -0.7378 H       1  UNL1        0.0236
     62 H          -3.9932   -0.1841   -1.2024 H       1  UNL1        0.0315
     63 H          -4.2224   -2.4356   -0.1189 H       1  UNL1        0.0271
     64 H          -3.2678   -1.8661    1.2660 H       1  UNL1        0.0271
     65 H          -1.6519   -2.6856   -0.3262 H       1  UNL1        0.0310
     66 H          -2.5637   -1.9641   -1.6471 H       1  UNL1        0.0310
     67 H           3.1541   -1.3493    0.7725 H       1  UNL1        0.0301
     68 H           2.8497    1.5296    0.7881 H       1  UNL1        0.0233
     69 H           4.5455    1.2650    0.4588 H       1  UNL1        0.0233
     70 H           3.8673    0.5367    1.9443 H       1  UNL1        0.0233
     71 H           4.3052   -1.6498   -1.4727 H       1  UNL1        0.0271
     72 H           4.7464    0.0581   -1.4298 H       1  UNL1        0.0271
     73 H           6.5306   -1.4741   -0.8483 H       1  UNL1        0.0307
     74 H           5.6613   -2.1614    0.5139 H       1  UNL1        0.0307
     75 H           6.1553    0.2274    1.7637 H       1  UNL1        0.0571
     76 H           7.6080    0.0552   -1.5783 H       1  UNL1        0.0274
     77 H           8.5173   -1.2132   -0.6691 H       1  UNL1        0.0274
     78 H           9.2662    0.4430   -0.9037 H       1  UNL1        0.0274
     79 H           7.7867    1.7900    2.1171 H       1  UNL1        0.0274
     80 H           9.2730    0.8395    1.8699 H       1  UNL1        0.0274
     81 H           8.7616    2.1336    0.6778 H       1  UNL1        0.0274
@<TRIPOS>BOND
     1     1     2    1
     2     2     3    1
     3     3     4    1
     4     4     5    1
     5     4     6    1
     6     6     7    2
     7     7     8    1
     8     8     9    1
     9     9    10    1
    10    10    11    1
    11     7    12    1
    12    12    13    1
    13    12    14    1
    14    14    15    1
    15    15    16    1
    16    16    17    1
    17    16    18    1
    18    18    19    1
    19    18    20    1
    20    18    21    1
    21    21    22    1
    22    22    23    1
    23     1    24    1
    24    24    25    1
    25    24    26    1
    26    26    27    1
    27    27    28    1
    28    28    29    2
    29    29    30    1
    30    29    31    1
    31    10     1    1
    32    21    12    1
    33    10     4    1
    34    23     6    1
    35     1    32    1
    36     2    33    1
    37     2    34    1
    38     3    35    1
    39     3    36    1
    40     5    37    1
    41     5    38    1
    42     5    39    1
    43     8    40    1
    44     8    41    1
    45     9    42    1
    46     9    43    1
    47    11    44    1
    48    11    45    1
    49    11    46    1
    50    13    47    1
    51    13    48    1
    52    13    49    1
    53    14    50    1
    54    14    51    1
    55    15    52    1
    56    15    53    1
    57    16    54    1
    58    17    55    1
    59    19    56    1
    60    19    57    1
    61    19    58    1
    62    20    59    1
    63    20    60    1
    64    20    61    1
    65    21    62    1
    66    22    63    1
    67    22    64    1
    68    23    65    1
    69    23    66    1
    70    24    67    1
    71    25    68    1
    72    25    69    1
    73    25    70    1
    74    26    71    1
    75    26    72    1
    76    27    73    1
    77    27    74    1
    78    28    75    1
    79    30    76    1
    80    30    77    1
    81    30    78    1
    82    31    79    1
    83    31    80    1
    84    31    81    1
