
     RDKit          3D

 81 84  0  0  0  0  0  0  0  0999 V2000
    2.1498   -0.2473   -0.8531 C   0  0  1  0  0  0  0  0  0  0  0  0
    1.9279   -1.5742   -1.6119 C   0  0  0  0  0  0  0  0  0  0  0  0
    0.4567   -1.9430   -1.3664 C   0  0  0  0  0  0  0  0  0  0  0  0
   -0.1388   -0.5706   -1.2422 C   0  0  1  0  0  0  0  0  0  0  0  0
   -0.1256    0.1451   -2.5567 C   0  0  0  0  0  0  0  0  0  0  0  0
   -1.4594   -0.5266   -0.6301 C   0  0  0  0  0  0  0  0  0  0  0  0
   -1.9255    0.6233   -0.1529 C   0  0  0  0  0  0  0  0  0  0  0  0
   -1.0066    1.7472   -0.3128 C   0  0  0  0  0  0  0  0  0  0  0  0
    0.4491    1.4538   -0.0140 C   0  0  0  0  0  0  0  0  0  0  0  0
    0.8509    0.0244   -0.2273 C   0  0  2  0  0  0  0  0  0  0  0  0
    0.6276   -0.7089    1.0789 C   0  0  0  0  0  0  0  0  0  0  0  0
   -3.2640    0.8085    0.4961 C   0  0  1  0  0  0  0  0  0  0  0  0
   -3.0399    0.6422    1.9761 C   0  0  0  0  0  0  0  0  0  0  0  0
   -3.8716    2.1369    0.1935 C   0  0  0  0  0  0  0  0  0  0  0  0
   -5.2229    2.2308   -0.3404 C   0  0  0  0  0  0  0  0  0  0  0  0
   -6.0385    1.0020   -0.5414 C   0  0  2  0  0  0  0  0  0  0  0  0
   -7.3752    1.1716   -0.1336 O   0  0  0  0  0  0  0  0  0  0  0  0
   -5.5489   -0.2113    0.1710 C   0  0  0  0  0  0  0  0  0  0  0  0
   -5.9688   -0.1863    1.6049 C   0  0  0  0  0  0  0  0  0  0  0  0
   -6.2058   -1.4157   -0.4766 C   0  0  0  0  0  0  0  0  0  0  0  0
   -4.0881   -0.3294   -0.0918 C   0  0  2  0  0  0  0  0  0  0  0  0
   -3.5023   -1.6595    0.2085 C   0  0  0  0  0  0  0  0  0  0  0  0
   -2.2192   -1.7954   -0.5833 C   0  0  0  0  0  0  0  0  0  0  0  0
    3.3213   -0.4914    0.1124 C   0  0  2  0  0  0  0  0  0  0  0  0
    3.6266    0.7622    0.8894 C   0  0  0  0  0  0  0  0  0  0  0  0
    4.5120   -0.8281   -0.7448 C   0  0  0  0  0  0  0  0  0  0  0  0
    5.7733   -1.1679   -0.0577 C   0  0  0  0  0  0  0  0  0  0  0  0
    6.4232   -0.2130    0.8171 C   0  0  0  0  0  0  0  0  0  0  0  0
    7.6407    0.3044    0.5311 C   0  0  0  0  0  0  0  0  0  0  0  0
    8.3249   -0.1289   -0.7265 C   0  0  0  0  0  0  0  0  0  0  0  0
    8.4264    1.2981    1.3475 C   0  0  0  0  0  0  0  0  0  0  0  0
    2.4612    0.5648   -1.5136 H   0  0  0  0  0  0  0  0  0  0  0  0
    2.4959   -2.3830   -1.1173 H   0  0  0  0  0  0  0  0  0  0  0  0
    2.1373   -1.4153   -2.6673 H   0  0  0  0  0  0  0  0  0  0  0  0
    0.3461   -2.5926   -0.5029 H   0  0  0  0  0  0  0  0  0  0  0  0
    0.0484   -2.4279   -2.2734 H   0  0  0  0  0  0  0  0  0  0  0  0
    0.5361    1.0201   -2.6129 H   0  0  0  0  0  0  0  0  0  0  0  0
    0.1919   -0.5732   -3.3741 H   0  0  0  0  0  0  0  0  0  0  0  0
   -1.1390    0.4632   -2.8734 H   0  0  0  0  0  0  0  0  0  0  0  0
   -1.3527    2.5573    0.4014 H   0  0  0  0  0  0  0  0  0  0  0  0
   -1.0271    2.2508   -1.3026 H   0  0  0  0  0  0  0  0  0  0  0  0
    0.5990    1.7062    1.0547 H   0  0  0  0  0  0  0  0  0  0  0  0
    1.1154    2.0945   -0.6221 H   0  0  0  0  0  0  0  0  0  0  0  0
    1.1756   -1.6570    1.1185 H   0  0  0  0  0  0  0  0  0  0  0  0
   -0.4821   -0.8562    1.1728 H   0  0  0  0  0  0  0  0  0  0  0  0
    0.9025   -0.0855    1.9333 H   0  0  0  0  0  0  0  0  0  0  0  0
   -3.5248   -0.2148    2.4388 H   0  0  0  0  0  0  0  0  0  0  0  0
   -3.4819    1.5392    2.5031 H   0  0  0  0  0  0  0  0  0  0  0  0
   -1.9873    0.6383    2.2906 H   0  0  0  0  0  0  0  0  0  0  0  0
   -3.1645    2.6468   -0.5292 H   0  0  0  0  0  0  0  0  0  0  0  0
   -3.7341    2.7894    1.1087 H   0  0  0  0  0  0  0  0  0  0  0  0
   -5.2687    2.7886   -1.3156 H   0  0  0  0  0  0  0  0  0  0  0  0
   -5.8408    2.9106    0.3213 H   0  0  0  0  0  0  0  0  0  0  0  0
   -6.1055    0.7194   -1.6244 H   0  0  0  0  0  0  0  0  0  0  0  0
   -8.0282    0.9564   -0.8174 H   0  0  0  0  0  0  0  0  0  0  0  0
   -5.7338   -1.1121    2.1536 H   0  0  0  0  0  0  0  0  0  0  0  0
   -7.0980   -0.1805    1.5673 H   0  0  0  0  0  0  0  0  0  0  0  0
   -5.7161    0.7476    2.1366 H   0  0  0  0  0  0  0  0  0  0  0  0
   -6.2257   -2.2363    0.2655 H   0  0  0  0  0  0  0  0  0  0  0  0
   -5.6723   -1.6936   -1.4159 H   0  0  0  0  0  0  0  0  0  0  0  0
   -7.2654   -1.2135   -0.7378 H   0  0  0  0  0  0  0  0  0  0  0  0
   -3.9932   -0.1841   -1.2024 H   0  0  0  0  0  0  0  0  0  0  0  0
   -4.2224   -2.4356   -0.1189 H   0  0  0  0  0  0  0  0  0  0  0  0
   -3.2678   -1.8661    1.2660 H   0  0  0  0  0  0  0  0  0  0  0  0
   -1.6519   -2.6856   -0.3262 H   0  0  0  0  0  0  0  0  0  0  0  0
   -2.5637   -1.9641   -1.6471 H   0  0  0  0  0  0  0  0  0  0  0  0
    3.1541   -1.3493    0.7725 H   0  0  0  0  0  0  0  0  0  0  0  0
    2.8497    1.5296    0.7881 H   0  0  0  0  0  0  0  0  0  0  0  0
    4.5455    1.2650    0.4588 H   0  0  0  0  0  0  0  0  0  0  0  0
    3.8673    0.5367    1.9443 H   0  0  0  0  0  0  0  0  0  0  0  0
    4.3052   -1.6498   -1.4727 H   0  0  0  0  0  0  0  0  0  0  0  0
    4.7464    0.0581   -1.4298 H   0  0  0  0  0  0  0  0  0  0  0  0
    6.5306   -1.4741   -0.8483 H   0  0  0  0  0  0  0  0  0  0  0  0
    5.6613   -2.1614    0.5139 H   0  0  0  0  0  0  0  0  0  0  0  0
    6.1553    0.2274    1.7637 H   0  0  0  0  0  0  0  0  0  0  0  0
    7.6080    0.0552   -1.5783 H   0  0  0  0  0  0  0  0  0  0  0  0
    8.5173   -1.2132   -0.6691 H   0  0  0  0  0  0  0  0  0  0  0  0
    9.2662    0.4430   -0.9037 H   0  0  0  0  0  0  0  0  0  0  0  0
    7.7867    1.7900    2.1171 H   0  0  0  0  0  0  0  0  0  0  0  0
    9.2730    0.8395    1.8699 H   0  0  0  0  0  0  0  0  0  0  0  0
    8.7616    2.1336    0.6778 H   0  0  0  0  0  0  0  0  0  0  0  0
  1  2  1  0
  2  3  1  0
  3  4  1  0
  4  5  1  6
  4  6  1  0
  6  7  2  0
  7  8  1  0
  8  9  1  0
  9 10  1  0
 10 11  1  1
  7 12  1  0
 12 13  1  1
 12 14  1  0
 14 15  1  0
 15 16  1  0
 16 17  1  0
 16 18  1  0
 18 19  1  0
 18 20  1  0
 18 21  1  0
 21 22  1  0
 22 23  1  0
  1 24  1  0
 24 25  1  0
 24 26  1  0
 26 27  1  0
 27 28  1  0
 28 29  2  3
 29 30  1  0
 29 31  1  0
 10  1  1  0
 21 12  1  0
 10  4  1  0
 23  6  1  0
  1 32  1  6
  2 33  1  0
  2 34  1  0
  3 35  1  0
  3 36  1  0
  5 37  1  0
  5 38  1  0
  5 39  1  0
  8 40  1  0
  8 41  1  0
  9 42  1  0
  9 43  1  0
 11 44  1  0
 11 45  1  0
 11 46  1  0
 13 47  1  0
 13 48  1  0
 13 49  1  0
 14 50  1  0
 14 51  1  0
 15 52  1  0
 15 53  1  0
 16 54  1  6
 17 55  1  0
 19 56  1  0
 19 57  1  0
 19 58  1  0
 20 59  1  0
 20 60  1  0
 20 61  1  0
 21 62  1  6
 22 63  1  0
 22 64  1  0
 23 65  1  0
 23 66  1  0
 24 67  1  1
 25 68  1  0
 25 69  1  0
 25 70  1  0
 26 71  1  0
 26 72  1  0
 27 73  1  0
 27 74  1  0
 28 75  1  0
 30 76  1  0
 30 77  1  0
 30 78  1  0
 31 79  1  0
 31 80  1  0
 31 81  1  0
M  END
$$$$
