@<TRIPOS>MOLECULE
*****
 104 107 0 0 0
SMALL
GASTEIGER

@<TRIPOS>ATOM
      1 C          -3.8077    1.0788    0.6659 C.3     1  UNL1        0.0894
      2 C          -4.7474    0.4191    1.5697 C.3     1  UNL1       -0.0407
      3 N          -2.5979    1.5818    1.1888 N.3     1  UNL1       -0.2325
      4 P          -1.5002    0.4763    1.9120 P.3     1  UNL1        0.2941
      5 O          -1.9000   -0.0068    3.4694 O.3     1  UNL1       -0.3314
      6 O          -0.2154    1.3012    2.1392 O.2     1  UNL1       -0.2710
      7 C          -0.9736   -0.8429    0.8256 C.3     1  UNL1        0.1474
      8 C          -1.8028   -2.0746    0.8121 C.3     1  UNL1        0.0052
      9 C          -1.9451   -2.8079    2.0633 C.ar    1  UNL1       -0.0448
     10 C          -2.9161   -2.6980    3.0378 C.ar    1  UNL1       -0.0585
     11 C          -2.9492   -3.4439    4.1943 C.ar    1  UNL1       -0.0615
     12 C          -1.9623   -4.3780    4.4361 C.ar    1  UNL1       -0.0617
     13 C          -0.9892   -4.5112    3.4939 C.ar    1  UNL1       -0.0615
     14 C          -0.9543   -3.7656    2.3363 C.ar    1  UNL1       -0.0585
     15 N           0.4111   -1.2111    1.0455 N.2     1  UNL1       -0.2380
     16 C           1.1474   -1.5777    0.0285 C.2     1  UNL1        0.2087
     17 O           1.7826   -1.5768    1.2575 O.2     1  UNL1       -0.4942
     18 C           0.9688   -1.7486   -1.4359 C.3     1  UNL1        0.1290
     19 C           1.0752   -3.2099   -1.8287 C.3     1  UNL1       -0.0216
     20 C           2.3556   -3.8700   -1.4837 C.3     1  UNL1       -0.0459
     21 C           3.5925   -3.2803   -2.0766 C.3     1  UNL1       -0.0126
     22 C           4.8410   -4.0697   -1.6485 C.3     1  UNL1       -0.0354
     23 N           4.9657   -4.0575   -0.2017 N.4     1  UNL1        0.2185
     24 N           1.8397   -0.9116   -2.1586 N.2     1  UNL1       -0.2403
     25 C           2.2359    0.2516   -2.0111 C.2     1  UNL1        0.2045
     26 O           1.8926    1.1229   -0.9905 O.2     1  UNL1       -0.4943
     27 C           3.1923    0.7820   -3.0508 C.3     1  UNL1        0.1044
     28 C           3.4603   -0.2336   -4.1269 C.3     1  UNL1       -0.0241
     29 C           4.9423   -0.4804   -4.1846 C.3     1  UNL1       -0.0349
     30 C           5.5307    0.0380   -2.8979 C.3     1  UNL1        0.0187
     31 N           4.4978    0.9908   -2.4622 N.am    1  UNL1       -0.2558
     32 C           4.7910    2.0484   -1.5227 C.2     1  UNL1        0.4038
     33 O           3.8728    2.8231   -1.1942 O.2     1  UNL1       -0.2262
     34 O           6.0534    2.1983   -1.0039 O.3     1  UNL1       -0.4455
     35 C           6.4043    3.1983   -0.0919 C.3     1  UNL1        0.1191
     36 C           5.6545    3.1439    1.1701 C.ar    1  UNL1       -0.0103
     37 C           6.1697    2.2676    2.1202 C.ar    1  UNL1       -0.0554
     38 C           5.6390    2.0706    3.3686 C.ar    1  UNL1       -0.0614
     39 C           4.5149    2.8063    3.6784 C.ar    1  UNL1       -0.0617
     40 C           3.9297    3.7031    2.8000 C.ar    1  UNL1       -0.0614
     41 C           4.5473    3.8259    1.5632 C.ar    1  UNL1       -0.0554
     42 C          -4.4866    2.2071   -0.0270 C.2     1  UNL1        0.2334
     43 O          -3.7441    3.2032    0.1299 O.2     1  UNL1       -0.2739
     44 N          -5.7492    2.0154   -0.6983 N.am    1  UNL1       -0.2867
     45 C          -6.5794    0.8344   -0.8617 C.3     1  UNL1        0.0156
     46 C          -6.9532    0.9610   -2.3310 C.3     1  UNL1       -0.0349
     47 C          -7.3447    2.4171   -2.4085 C.3     1  UNL1       -0.0225
     48 C          -6.4555    3.0700   -1.3818 C.3     1  UNL1        0.1230
     49 C          -7.2139    3.9621   -0.4837 C.2     1  UNL1        0.3276
     50 O          -7.9430    4.9602   -0.5960 O.2     1  UNL1       -0.2487
     51 O          -7.3332    3.9258    0.8858 O.3     1  UNL1       -0.4666
     52 C          -8.1176    4.8770    1.6082 C.3     1  UNL1        0.0817
     53 H          -3.5349    0.3626   -0.1496 H       1  UNL1        0.0558
     54 H          -5.7646    0.8976    1.5331 H       1  UNL1        0.0249
     55 H          -4.9384   -0.6379    1.2926 H       1  UNL1        0.0249
     56 H          -4.4926    0.4114    2.6405 H       1  UNL1        0.0249
     57 H          -2.0743    2.2045    0.5392 H       1  UNL1        0.1322
     58 H          -2.3178    0.7659    3.9248 H       1  UNL1        0.2189
     59 H          -1.0202   -0.4210   -0.2126 H       1  UNL1        0.0664
     60 H          -2.8448   -1.8958    0.4236 H       1  UNL1        0.0339
     61 H          -1.3556   -2.7465    0.0518 H       1  UNL1        0.0339
     62 H          -3.6826   -1.9654    2.8319 H       1  UNL1        0.0620
     63 H          -3.7959   -3.2306    4.8693 H       1  UNL1        0.0618
     64 H          -2.0808   -4.9078    5.3701 H       1  UNL1        0.0618
     65 H          -0.2371   -5.2645    3.7397 H       1  UNL1        0.0618
     66 H          -0.1160   -4.0022    1.7064 H       1  UNL1        0.0620
     67 H           2.7755   -1.7667    1.3211 H       1  UNL1        0.2935
     68 H          -0.0937   -1.4445   -1.6721 H       1  UNL1        0.0643
     69 H           0.2458   -3.7736   -1.3852 H       1  UNL1        0.0291
     70 H           0.9551   -3.2535   -2.9339 H       1  UNL1        0.0291
     71 H           2.4747   -4.0619   -0.3837 H       1  UNL1        0.0268
     72 H           2.2905   -4.9215   -1.9063 H       1  UNL1        0.0268
     73 H           3.6059   -3.3129   -3.1723 H       1  UNL1        0.0317
     74 H           3.7938   -2.2460   -1.7499 H       1  UNL1        0.0317
     75 H           5.7065   -3.5550   -2.0734 H       1  UNL1        0.0813
     76 H           4.8141   -5.0967   -2.0200 H       1  UNL1        0.0813
     77 H           4.3306   -4.8060    0.1811 H       1  UNL1        0.1994
     78 H           5.9402   -4.2212    0.1278 H       1  UNL1        0.1994
     79 H           4.6667   -3.1318    0.1764 H       1  UNL1        0.1994
     80 H           1.8255    0.8395   -0.0350 H       1  UNL1        0.2935
     81 H           2.7819    1.7302   -3.4711 H       1  UNL1        0.0599
     82 H           2.8815   -1.1734   -3.9020 H       1  UNL1        0.0288
     83 H           3.0774    0.1976   -5.0831 H       1  UNL1        0.0288
     84 H           5.3753    0.1476   -5.0086 H       1  UNL1        0.0281
     85 H           5.1760   -1.5525   -4.3562 H       1  UNL1        0.0281
     86 H           6.4775    0.5951   -3.0702 H       1  UNL1        0.0466
     87 H           5.6365   -0.7821   -2.1904 H       1  UNL1        0.0466
     88 H           7.5023    3.1500    0.1720 H       1  UNL1        0.0749
     89 H           6.2217    4.1818   -0.6076 H       1  UNL1        0.0749
     90 H           7.0649    1.6578    1.9228 H       1  UNL1        0.0621
     91 H           6.0488    1.3955    4.0781 H       1  UNL1        0.0618
     92 H           4.0344    2.7133    4.6372 H       1  UNL1        0.0618
     93 H           3.0542    4.2842    3.0259 H       1  UNL1        0.0618
     94 H           4.1330    4.5223    0.8573 H       1  UNL1        0.0621
     95 H          -6.0347   -0.1125   -0.7616 H       1  UNL1        0.0465
     96 H          -7.5000    0.9014   -0.2601 H       1  UNL1        0.0465
     97 H          -7.8278    0.2971   -2.5540 H       1  UNL1        0.0281
     98 H          -6.0973    0.8214   -2.9870 H       1  UNL1        0.0281
     99 H          -7.1991    2.8260   -3.4178 H       1  UNL1        0.0289
    100 H          -8.4285    2.4804   -2.1043 H       1  UNL1        0.0289
    101 H          -5.6832    3.6763   -1.9454 H       1  UNL1        0.0616
    102 H          -9.1465    4.9115    1.2106 H       1  UNL1        0.0661
    103 H          -8.0976    4.6435    2.6827 H       1  UNL1        0.0661
    104 H          -7.6523    5.8637    1.4552 H       1  UNL1        0.0661
@<TRIPOS>UNITY_ATOM_ATTR
23 1
charge 1
@<TRIPOS>BOND
     1     1     2    1
     2     1     3    1
     3     3     4    1
     4     4     5    1
     5     4     6    2
     6     4     7    1
     7     7     8    1
     8     8     9    1
     9     9    10   ar
    10    10    11   ar
    11    11    12   ar
    12    12    13   ar
    13    13    14   ar
    14     7    15    1
    15    15    16    2
    16    16    17    1
    17    16    18    1
    18    18    19    1
    19    19    20    1
    20    20    21    1
    21    21    22    1
    22    22    23    1
    23    18    24    1
    24    24    25    2
    25    25    26    1
    26    25    27    1
    27    27    28    1
    28    28    29    1
    29    29    30    1
    30    30    31    1
    31    31    32   am
    32    32    33    2
    33    32    34    1
    34    34    35    1
    35    35    36    1
    36    36    37   ar
    37    37    38   ar
    38    38    39   ar
    39    39    40   ar
    40    40    41   ar
    41     1    42    1
    42    42    43    2
    43    42    44   am
    44    44    45    1
    45    45    46    1
    46    46    47    1
    47    47    48    1
    48    48    49    1
    49    49    50    2
    50    49    51    1
    51    51    52    1
    52    14     9   ar
    53    31    27    1
    54    41    36   ar
    55    48    44    1
    56     1    53    1
    57     2    54    1
    58     2    55    1
    59     2    56    1
    60     3    57    1
    61     5    58    1
    62     7    59    1
    63     8    60    1
    64     8    61    1
    65    10    62    1
    66    11    63    1
    67    12    64    1
    68    13    65    1
    69    14    66    1
    70    17    67    1
    71    18    68    1
    72    19    69    1
    73    19    70    1
    74    20    71    1
    75    20    72    1
    76    21    73    1
    77    21    74    1
    78    22    75    1
    79    22    76    1
    80    23    77    1
    81    23    78    1
    82    23    79    1
    83    26    80    1
    84    27    81    1
    85    28    82    1
    86    28    83    1
    87    29    84    1
    88    29    85    1
    89    30    86    1
    90    30    87    1
    91    35    88    1
    92    35    89    1
    93    37    90    1
    94    38    91    1
    95    39    92    1
    96    40    93    1
    97    41    94    1
    98    45    95    1
    99    45    96    1
   100    46    97    1
   101    46    98    1
   102    47    99    1
   103    47   100    1
   104    48   101    1
   105    52   102    1
   106    52   103    1
   107    52   104    1
