
     RDKit          3D

 56 59  0  0  0  0  0  0  0  0999 V2000
    6.1230   -1.7501   -1.9498 O   0  0  0  0  0  0  0  0  0  0  0  0
    5.8499   -0.7719   -1.2206 C   0  0  0  0  0  0  0  0  0  0  0  0
    4.5127   -0.5915   -0.8030 N   0  0  0  0  0  0  0  0  0  0  0  0
    3.4481   -1.5144   -1.2026 C   0  0  0  0  0  0  0  0  0  0  0  0
    2.1383   -1.0955   -0.6274 C   0  0  0  0  0  0  0  0  0  0  0  0
    1.1694   -2.0061   -1.0395 O   0  0  0  0  0  0  0  0  0  0  0  0
    1.7149    0.2884   -1.0621 C   0  0  0  0  0  0  0  0  0  0  0  0
    0.6464    0.8467   -0.1541 C   0  0  0  0  0  0  0  0  0  0  0  0
   -0.0193   -0.1613    0.6162 N   0  0  0  0  0  0  0  0  0  0  0  0
   -1.4464   -0.2115    0.6493 C   0  0  0  0  0  0  0  0  0  0  0  0
   -2.1821    0.7009   -0.0531 N   0  0  0  0  0  0  0  0  0  0  0  0
   -3.5156    0.6739   -0.0375 C   0  0  0  0  0  0  0  0  0  0  0  0
   -4.2354    1.5969   -0.7480 O   0  0  0  0  0  0  0  0  0  0  0  0
   -5.6182    1.6121   -0.7648 C   0  0  0  0  0  0  0  0  0  0  0  0
   -6.3239    2.3420    0.1682 C   0  0  0  0  0  0  0  0  0  0  0  0
   -7.7144    2.3693    0.1671 C   0  0  0  0  0  0  0  0  0  0  0  0
   -8.4106    1.6630   -0.7722 C   0  0  0  0  0  0  0  0  0  0  0  0
   -7.7328    0.9231   -1.7191 C   0  0  0  0  0  0  0  0  0  0  0  0
   -8.4155    0.2197   -2.6543 F   0  0  0  0  0  0  0  0  0  0  0  0
   -6.3336    0.9060   -1.7044 C   0  0  0  0  0  0  0  0  0  0  0  0
   -4.1431   -0.2987    0.7061 C   0  0  0  0  0  0  0  0  0  0  0  0
   -3.4197   -1.2346    1.4265 C   0  0  0  0  0  0  0  0  0  0  0  0
   -4.0995   -2.2708    2.2186 C   0  0  0  0  0  0  0  0  0  0  0  0
   -4.8721   -3.0760    1.3922 F   0  0  0  0  0  0  0  0  0  0  0  0
   -3.1495   -3.0210    2.8847 F   0  0  0  0  0  0  0  0  0  0  0  0
   -4.9678   -1.7254    3.1491 F   0  0  0  0  0  0  0  0  0  0  0  0
   -2.0861   -1.1579    1.3727 N   0  0  0  0  0  0  0  0  0  0  0  0
    0.7337   -1.1295    1.3612 C   0  0  0  0  0  0  0  0  0  0  0  0
    2.1726   -1.1248    0.8881 C   0  0  0  0  0  0  0  0  0  0  0  0
    6.9086    0.1687   -0.8092 C   0  0  0  0  0  0  0  0  0  0  0  0
    7.0733    0.3168    0.7088 C   0  0  0  0  0  0  0  0  0  0  0  0
    7.3867    1.7154    0.4526 N   0  0  0  0  0  0  0  0  0  0  0  0
    6.5545    1.6114   -0.7509 C   0  0  0  0  0  0  0  0  0  0  0  0
    4.2844    0.2196   -0.1922 H   0  0  0  0  0  0  0  0  0  0  0  0
    3.6574   -2.5445   -0.8790 H   0  0  0  0  0  0  0  0  0  0  0  0
    3.3925   -1.4843   -2.3007 H   0  0  0  0  0  0  0  0  0  0  0  0
    1.3959   -2.9252   -0.8172 H   0  0  0  0  0  0  0  0  0  0  0  0
    1.2769    0.1818   -2.0814 H   0  0  0  0  0  0  0  0  0  0  0  0
    2.6011    0.9377   -1.0971 H   0  0  0  0  0  0  0  0  0  0  0  0
    1.1388    1.5960    0.5209 H   0  0  0  0  0  0  0  0  0  0  0  0
   -0.0802    1.4376   -0.7656 H   0  0  0  0  0  0  0  0  0  0  0  0
   -5.7601    2.9018    0.9130 H   0  0  0  0  0  0  0  0  0  0  0  0
   -8.2594    2.9409    0.8981 H   0  0  0  0  0  0  0  0  0  0  0  0
   -9.4986    1.6713   -0.7902 H   0  0  0  0  0  0  0  0  0  0  0  0
   -5.7678    0.3318   -2.4382 H   0  0  0  0  0  0  0  0  0  0  0  0
   -5.2173   -0.3263    0.7232 H   0  0  0  0  0  0  0  0  0  0  0  0
    0.3061   -2.1331    1.1183 H   0  0  0  0  0  0  0  0  0  0  0  0
    0.6553   -1.0191    2.4559 H   0  0  0  0  0  0  0  0  0  0  0  0
    2.7155   -0.2292    1.2844 H   0  0  0  0  0  0  0  0  0  0  0  0
    2.6794   -2.0187    1.2829 H   0  0  0  0  0  0  0  0  0  0  0  0
    7.9161   -0.0657   -1.2302 H   0  0  0  0  0  0  0  0  0  0  0  0
    7.8800   -0.2875    1.1255 H   0  0  0  0  0  0  0  0  0  0  0  0
    6.1318    0.1577    1.2561 H   0  0  0  0  0  0  0  0  0  0  0  0
    8.3878    1.8234    0.1792 H   0  0  0  0  0  0  0  0  0  0  0  0
    6.9087    2.2435   -1.5886 H   0  0  0  0  0  0  0  0  0  0  0  0
    5.5096    1.7774   -0.4600 H   0  0  0  0  0  0  0  0  0  0  0  0
  1  2  2  0
  2  3  1  0
  3  4  1  0
  4  5  1  0
  5  6  1  0
  5  7  1  0
  7  8  1  0
  8  9  1  0
  9 10  1  0
 10 11  2  0
 11 12  1  0
 12 13  1  0
 13 14  1  0
 14 15  2  0
 15 16  1  0
 16 17  2  0
 17 18  1  0
 18 19  1  0
 18 20  2  0
 12 21  2  0
 21 22  1  0
 22 23  1  0
 23 24  1  0
 23 25  1  0
 23 26  1  0
 22 27  2  0
  9 28  1  0
 28 29  1  0
  2 30  1  0
 30 31  1  0
 31 32  1  0
 32 33  1  0
 29  5  1  0
 33 30  1  0
 27 10  1  0
 20 14  1  0
  3 34  1  0
  4 35  1  0
  4 36  1  0
  6 37  1  0
  7 38  1  0
  7 39  1  0
  8 40  1  0
  8 41  1  0
 15 42  1  0
 16 43  1  0
 17 44  1  0
 20 45  1  0
 21 46  1  0
 28 47  1  0
 28 48  1  0
 29 49  1  0
 29 50  1  0
 30 51  1  0
 31 52  1  0
 31 53  1  0
 32 54  1  0
 33 55  1  0
 33 56  1  0
M  END
$$$$
