@<TRIPOS>MOLECULE
*****
 56 59 0 0 0
SMALL
GASTEIGER

@<TRIPOS>ATOM
      1 O           6.1230   -1.7501   -1.9498 O.2     1  UNL1       -0.2754
      2 C           5.8499   -0.7719   -1.2206 C.2     1  UNL1        0.2186
      3 N           4.5127   -0.5915   -0.8030 N.am    1  UNL1       -0.3123
      4 C           3.4481   -1.5144   -1.2026 C.3     1  UNL1        0.0405
      5 C           2.1383   -1.0955   -0.6274 C.3     1  UNL1        0.0843
      6 O           1.1694   -2.0061   -1.0395 O.3     1  UNL1       -0.3869
      7 C           1.7149    0.2884   -1.0621 C.3     1  UNL1       -0.0066
      8 C           0.6464    0.8467   -0.1541 C.3     1  UNL1        0.0175
      9 N          -0.0193   -0.1613    0.6162 N.pl3   1  UNL1       -0.2994
     10 C          -1.4464   -0.2115    0.6493 C.ar    1  UNL1        0.2214
     11 N          -2.1821    0.7009   -0.0531 N.ar    1  UNL1       -0.1790
     12 C          -3.5156    0.6739   -0.0375 C.ar    1  UNL1        0.2254
     13 O          -4.2354    1.5969   -0.7480 O.3     1  UNL1       -0.4378
     14 C          -5.6182    1.6121   -0.7648 C.ar    1  UNL1        0.1331
     15 C          -6.3239    2.3420    0.1682 C.ar    1  UNL1       -0.0191
     16 C          -7.7144    2.3693    0.1671 C.ar    1  UNL1       -0.0556
     17 C          -8.4106    1.6630   -0.7722 C.ar    1  UNL1       -0.0262
     18 C          -7.7328    0.9231   -1.7191 C.ar    1  UNL1        0.1269
     19 F          -8.4155    0.2197   -2.6543 F       1  UNL1       -0.2054
     20 C          -6.3336    0.9060   -1.7044 C.ar    1  UNL1        0.0160
     21 C          -4.1431   -0.2987    0.7061 C.ar    1  UNL1        0.0305
     22 C          -3.4197   -1.2346    1.4265 C.ar    1  UNL1        0.1522
     23 C          -4.0995   -2.2708    2.2186 C.3     1  UNL1        0.4345
     24 F          -4.8721   -3.0760    1.3922 F       1  UNL1       -0.1644
     25 F          -3.1495   -3.0210    2.8847 F       1  UNL1       -0.1644
     26 F          -4.9678   -1.7254    3.1491 F       1  UNL1       -0.1644
     27 N          -2.0861   -1.1579    1.3727 N.ar    1  UNL1       -0.2101
     28 C           0.7337   -1.1295    1.3612 C.3     1  UNL1        0.0175
     29 C           2.1726   -1.1248    0.8881 C.3     1  UNL1       -0.0066
     30 C           6.9086    0.1687   -0.8092 C.3     1  UNL1        0.0604
     31 C           7.0733    0.3168    0.7088 C.3     1  UNL1        0.0082
     32 N           7.3867    1.7154    0.4526 N.3     1  UNL1       -0.3144
     33 C           6.5545    1.6114   -0.7509 C.3     1  UNL1        0.0082
     34 H           4.2844    0.2196   -0.1922 H       1  UNL1        0.1488
     35 H           3.6574   -2.5445   -0.8790 H       1  UNL1        0.0490
     36 H           3.3925   -1.4843   -2.3007 H       1  UNL1        0.0490
     37 H           1.3959   -2.9252   -0.8172 H       1  UNL1        0.2102
     38 H           1.2769    0.1818   -2.0814 H       1  UNL1        0.0309
     39 H           2.6011    0.9377   -1.0971 H       1  UNL1        0.0309
     40 H           1.1388    1.5960    0.5209 H       1  UNL1        0.0465
     41 H          -0.0802    1.4376   -0.7656 H       1  UNL1        0.0465
     42 H          -5.7601    2.9018    0.9130 H       1  UNL1        0.0654
     43 H          -8.2594    2.9409    0.8981 H       1  UNL1        0.0620
     44 H          -9.4986    1.6713   -0.7902 H       1  UNL1        0.0646
     45 H          -5.7678    0.3318   -2.4382 H       1  UNL1        0.0683
     46 H          -5.2173   -0.3263    0.7232 H       1  UNL1        0.0692
     47 H           0.3061   -2.1331    1.1183 H       1  UNL1        0.0465
     48 H           0.6553   -1.0191    2.4559 H       1  UNL1        0.0465
     49 H           2.7155   -0.2292    1.2844 H       1  UNL1        0.0309
     50 H           2.6794   -2.0187    1.2829 H       1  UNL1        0.0309
     51 H           7.9161   -0.0657   -1.2302 H       1  UNL1        0.0419
     52 H           7.8800   -0.2875    1.1255 H       1  UNL1        0.0432
     53 H           6.1318    0.1577    1.2561 H       1  UNL1        0.0432
     54 H           8.3878    1.8234    0.1792 H       1  UNL1        0.1220
     55 H           6.9087    2.2435   -1.5886 H       1  UNL1        0.0432
     56 H           5.5096    1.7774   -0.4600 H       1  UNL1        0.0432
@<TRIPOS>BOND
     1     1     2    2
     2     2     3   am
     3     3     4    1
     4     4     5    1
     5     5     6    1
     6     5     7    1
     7     7     8    1
     8     8     9    1
     9     9    10    1
    10    10    11   ar
    11    11    12   ar
    12    12    13    1
    13    13    14    1
    14    14    15   ar
    15    15    16   ar
    16    16    17   ar
    17    17    18   ar
    18    18    19    1
    19    18    20   ar
    20    12    21   ar
    21    21    22   ar
    22    22    23    1
    23    23    24    1
    24    23    25    1
    25    23    26    1
    26    22    27   ar
    27     9    28    1
    28    28    29    1
    29     2    30    1
    30    30    31    1
    31    31    32    1
    32    32    33    1
    33    29     5    1
    34    33    30    1
    35    27    10   ar
    36    20    14   ar
    37     3    34    1
    38     4    35    1
    39     4    36    1
    40     6    37    1
    41     7    38    1
    42     7    39    1
    43     8    40    1
    44     8    41    1
    45    15    42    1
    46    16    43    1
    47    17    44    1
    48    20    45    1
    49    21    46    1
    50    28    47    1
    51    28    48    1
    52    29    49    1
    53    29    50    1
    54    30    51    1
    55    31    52    1
    56    31    53    1
    57    32    54    1
    58    33    55    1
    59    33    56    1
