@<TRIPOS>MOLECULE
*****
 73 78 0 0 0
SMALL
GASTEIGER

@<TRIPOS>ATOM
      1 C          -1.4124    7.1690   -3.7101 C.3     1  UNL1        0.0804
      2 O          -0.7860    6.0402   -3.1786 O.3     1  UNL1       -0.4795
      3 C          -1.5333    5.1068   -2.4751 C.ar    1  UNL1        0.2191
      4 C          -0.9287    3.9631   -1.9294 C.ar    1  UNL1        0.0404
      5 C          -1.6352    3.0182   -1.2279 C.ar    1  UNL1        0.1364
      6 N          -0.9606    1.8784   -0.7233 N.am    1  UNL1       -0.2240
      7 C           0.4247    1.5566   -0.9890 C.2     1  UNL1        0.3219
      8 O           1.0747    1.8778   -2.0139 O.2     1  UNL1       -0.2512
      9 N           0.9458    0.7965    0.1246 N.am    1  UNL1       -0.1920
     10 C           2.2684    0.2838    0.2726 C.ar    1  UNL1        0.0455
     11 C           3.2123    1.0614    0.8813 C.ar    1  UNL1       -0.0392
     12 C           4.5206    0.6158    1.0549 C.ar    1  UNL1       -0.0523
     13 C           4.8420   -0.6240    0.6004 C.ar    1  UNL1       -0.0177
     14 C           6.2007   -1.1121    0.7713 C.ar    1  UNL1       -0.0165
     15 C           6.9778   -0.7511    1.8482 C.ar    1  UNL1       -0.0532
     16 C           8.2781   -1.2236    2.0060 C.ar    1  UNL1       -0.0458
     17 C           8.7865   -2.0745    1.0505 C.ar    1  UNL1        0.0771
     18 C          10.1375   -2.5844    1.1856 C.2     1  UNL1        0.3382
     19 O          10.6475   -3.3641    0.3284 O.2     1  UNL1       -0.2451
     20 O          10.9209   -2.2275    2.2738 O.3     1  UNL1       -0.4771
     21 C           8.0203   -2.4510   -0.0430 C.ar    1  UNL1        0.0555
     22 CL          8.6594   -3.5328   -1.2627 Cl      1  UNL1       -0.0827
     23 C           6.7248   -1.9541   -0.1602 C.ar    1  UNL1       -0.0349
     24 C           3.9103   -1.4267   -0.0158 C.ar    1  UNL1       -0.0523
     25 C           2.5978   -0.9734   -0.1872 C.ar    1  UNL1       -0.0392
     26 C          -0.1461    0.6859    1.0227 C.2     1  UNL1        0.2516
     27 O          -0.0818    0.5369    2.2552 O.2     1  UNL1       -0.2724
     28 C          -1.3735    0.7910    0.1318 C.3     1  UNL1        0.1240
     29 C          -2.5832    0.9596    0.9402 C.3     1  UNL1       -0.0095
     30 C          -3.5275   -0.1935    1.0013 C.3     1  UNL1        0.0017
     31 N          -3.6436   -0.9845   -0.1686 N.3     1  UNL1       -0.2965
     32 C          -3.7752   -2.4017    0.0909 C.3     1  UNL1        0.0415
     33 C          -4.9449   -2.7239    0.9171 C.ar    1  UNL1        0.0581
     34 N          -4.7896   -3.0359    2.2383 N.ar    1  UNL1       -0.2583
     35 C          -5.8179   -3.3357    3.0319 C.ar    1  UNL1        0.0279
     36 C          -7.1047   -3.3408    2.5333 C.ar    1  UNL1       -0.0433
     37 C          -7.2805   -3.0296    1.2069 C.ar    1  UNL1       -0.0557
     38 C          -6.2091   -2.7203    0.3921 C.ar    1  UNL1       -0.0279
     39 C          -6.4903   -2.4006   -1.0125 C.3     1  UNL1       -0.0380
     40 C          -2.7410   -0.6818   -1.2296 C.3     1  UNL1        0.0017
     41 C          -1.3549   -0.5340   -0.6500 C.3     1  UNL1       -0.0095
     42 N          -2.9445    3.2592   -1.0966 N.ar    1  UNL1       -0.2200
     43 C          -3.5714    4.3250   -1.5917 C.ar    1  UNL1        0.1219
     44 N          -2.8473    5.2363   -2.2775 N.ar    1  UNL1       -0.2013
     45 H          -1.1304    7.3360   -4.7739 H       1  UNL1        0.0660
     46 H          -1.1537    8.1091   -3.1810 H       1  UNL1        0.0660
     47 H          -2.5104    7.0668   -3.6690 H       1  UNL1        0.0660
     48 H           0.1354    3.9024   -2.1061 H       1  UNL1        0.0705
     49 H           2.9621    2.0349    1.2387 H       1  UNL1        0.0636
     50 H           5.2555    1.2205    1.5286 H       1  UNL1        0.0624
     51 H           6.5789   -0.0782    2.6061 H       1  UNL1        0.0624
     52 H           8.8532   -0.9179    2.8622 H       1  UNL1        0.0626
     53 H          11.7279   -2.7720    2.5565 H       1  UNL1        0.2954
     54 H           6.1339   -2.2534   -1.0154 H       1  UNL1        0.0638
     55 H           4.1912   -2.4052   -0.3666 H       1  UNL1        0.0624
     56 H           1.8875   -1.6044   -0.6667 H       1  UNL1        0.0636
     57 H          -3.1217    1.8768    0.6666 H       1  UNL1        0.0303
     58 H          -2.2497    1.1726    2.0100 H       1  UNL1        0.0303
     59 H          -4.5423    0.1782    1.2633 H       1  UNL1        0.0427
     60 H          -3.2285   -0.8599    1.8399 H       1  UNL1        0.0427
     61 H          -3.7683   -2.9713   -0.8718 H       1  UNL1        0.0491
     62 H          -2.8643   -2.7192    0.6380 H       1  UNL1        0.0491
     63 H          -5.6044   -3.5693    4.0607 H       1  UNL1        0.0829
     64 H          -7.9282   -3.5856    3.1867 H       1  UNL1        0.0633
     65 H          -8.3098   -3.0357    0.8139 H       1  UNL1        0.0621
     66 H          -5.6700   -2.5890   -1.7088 H       1  UNL1        0.0278
     67 H          -6.9185   -1.3701   -1.1531 H       1  UNL1        0.0278
     68 H          -7.3304   -3.0822   -1.3377 H       1  UNL1        0.0278
     69 H          -3.0150    0.2018   -1.8269 H       1  UNL1        0.0427
     70 H          -2.7092   -1.5497   -1.9273 H       1  UNL1        0.0427
     71 H          -1.1276   -1.3488    0.0342 H       1  UNL1        0.0303
     72 H          -0.5819   -0.3910   -1.4303 H       1  UNL1        0.0303
     73 H          -4.6285    4.5240   -1.4875 H       1  UNL1        0.1049
@<TRIPOS>BOND
     1     1     2    1
     2     2     3    1
     3     3     4   ar
     4     4     5   ar
     5     5     6    1
     6     6     7   am
     7     7     8    2
     8     7     9   am
     9     9    10    1
    10    10    11   ar
    11    11    12   ar
    12    12    13   ar
    13    13    14    1
    14    14    15   ar
    15    15    16   ar
    16    16    17   ar
    17    17    18    1
    18    18    19    2
    19    18    20    1
    20    17    21   ar
    21    21    22    1
    22    21    23   ar
    23    13    24   ar
    24    24    25   ar
    25     9    26   am
    26    26    27    2
    27    26    28    1
    28    28    29    1
    29    29    30    1
    30    30    31    1
    31    31    32    1
    32    32    33    1
    33    33    34   ar
    34    34    35   ar
    35    35    36   ar
    36    36    37   ar
    37    37    38   ar
    38    38    39    1
    39    31    40    1
    40    40    41    1
    41     5    42   ar
    42    42    43   ar
    43    43    44   ar
    44    44     3   ar
    45    28     6    1
    46    38    33   ar
    47    25    10   ar
    48    41    28    1
    49    23    14   ar
    50     1    45    1
    51     1    46    1
    52     1    47    1
    53     4    48    1
    54    11    49    1
    55    12    50    1
    56    15    51    1
    57    16    52    1
    58    20    53    1
    59    23    54    1
    60    24    55    1
    61    25    56    1
    62    29    57    1
    63    29    58    1
    64    30    59    1
    65    30    60    1
    66    32    61    1
    67    32    62    1
    68    35    63    1
    69    36    64    1
    70    37    65    1
    71    39    66    1
    72    39    67    1
    73    39    68    1
    74    40    69    1
    75    40    70    1
    76    41    71    1
    77    41    72    1
    78    43    73    1
