
     RDKit          3D

114121  0  0  0  0  0  0  0  0999 V2000
   -6.1453    1.5246   -3.1577 C   0  0  0  0  0  0  0  0  0  0  0  0
   -6.6905    0.4204   -2.3241 C   0  0  0  0  0  0  0  0  0  0  0  0
   -7.7587   -0.2810   -2.6850 C   0  0  0  0  0  0  0  0  0  0  0  0
   -8.5577   -0.8632   -1.5347 C   0  0  0  0  0  0  0  0  0  0  0  0
   -8.0377   -2.2284   -1.2575 C   0  0  0  0  0  0  0  0  0  0  0  0
   -7.5233   -2.3989    0.1308 C   0  0  0  0  0  0  0  0  0  0  0  0
   -7.6114   -3.6088    0.7028 N   0  0  0  0  0  0  0  0  0  0  0  0
   -7.1770   -3.8295    1.9752 C   0  0  0  0  0  0  0  0  0  0  0  0
   -7.2717   -4.9598    2.4817 O   0  0  0  0  0  0  0  0  0  0  0  0
   -6.6464   -2.7703    2.6471 C   0  0  0  0  0  0  0  0  0  0  0  0
   -6.5362   -1.5270    2.1097 C   0  0  0  0  0  0  0  0  0  0  0  0
   -6.9773   -1.3316    0.8385 C   0  0  0  0  0  0  0  0  0  0  0  0
   -6.9302    0.0188    0.1483 C   0  0  1  0  0  0  0  0  0  0  0  0
   -6.0276    0.0476   -1.0261 C   0  0  0  0  0  0  0  0  0  0  0  0
   -8.3714    0.1357   -0.4188 C   0  0  2  0  0  0  0  0  0  0  0  0
   -9.3985   -0.1392    0.6477 C   0  0  0  0  0  0  0  0  0  0  0  0
   -9.0949    0.7196    1.8718 C   0  0  0  0  0  0  0  0  0  0  0  0
   -8.0520    1.7476    1.5146 C   0  0  0  0  0  0  0  0  0  0  0  0
   -6.7634    1.0585    1.1042 N   0  0  0  0  0  0  0  0  0  0  0  0
   -5.6498    1.5688    1.7233 C   0  0  0  0  0  0  0  0  0  0  0  0
   -5.9440    2.5668    2.5592 O   0  0  0  0  0  0  0  0  0  0  0  0
   -4.2408    1.3195    1.7062 C   0  0  0  0  0  0  0  0  0  0  0  0
   -3.4842    0.4348    0.9867 N   0  0  0  0  0  0  0  0  0  0  0  0
   -3.4109   -0.9220    1.0908 C   0  0  0  0  0  0  0  0  0  0  0  0
   -2.4056    1.0887    0.2807 C   0  0  0  0  0  0  0  0  0  0  0  0
   -1.3661    1.5850    1.2175 C   0  0  0  0  0  0  0  0  0  0  0  0
   -0.5930    0.4819    1.8576 C   0  0  0  0  0  0  0  0  0  0  0  0
    0.2270   -0.2399    0.8035 C   0  0  0  0  0  0  0  0  0  0  0  0
    1.2439    0.7156    0.1806 C   0  0  0  0  0  0  0  0  0  0  0  0
    2.2145    1.1311    1.2685 C   0  0  0  0  0  0  0  0  0  0  0  0
    2.9151   -0.0742    1.6995 N   0  0  0  0  0  0  0  0  0  0  0  0
    3.5278    0.0823    3.0140 C   0  0  0  0  0  0  0  0  0  0  0  0
    4.0262   -0.3215    0.7228 C   0  0  0  0  0  0  0  0  0  0  0  0
    5.1014    0.6430    0.8249 C   0  0  0  0  0  0  0  0  0  0  0  0
    4.9045    1.5516    1.7489 O   0  0  0  0  0  0  0  0  0  0  0  0
    6.2999    0.7936    0.1389 N   0  0  0  0  0  0  0  0  0  0  0  0
    7.1198    1.9650    0.5985 C   0  0  0  0  0  0  0  0  0  0  0  0
    8.4756    1.4918    1.0895 C   0  0  0  0  0  0  0  0  0  0  0  0
    9.1177    0.7922   -0.1276 C   0  0  0  0  0  0  0  0  0  0  0  0
    8.2746   -0.4049   -0.3763 C   0  0  2  0  0  0  0  0  0  0  0  0
    8.8846   -1.3456   -1.3753 C   0  0  0  0  0  0  0  0  0  0  0  0
    8.0965   -2.5982   -1.3436 C   0  0  0  0  0  0  0  0  0  0  0  0
    6.7819   -2.4412   -1.0948 C   0  0  0  0  0  0  0  0  0  0  0  0
    5.9918   -3.5272   -0.5167 C   0  0  0  0  0  0  0  0  0  0  0  0
    6.1600   -1.1398   -1.4389 C   0  0  0  0  0  0  0  0  0  0  0  0
    6.8929    0.0404   -0.8932 C   0  0  1  0  0  0  0  0  0  0  0  0
    7.1954    0.8909   -2.1075 C   0  0  0  0  0  0  0  0  0  0  0  0
    6.4981    2.0341   -2.4077 C   0  0  0  0  0  0  0  0  0  0  0  0
    6.8652    2.7296   -3.5445 C   0  0  0  0  0  0  0  0  0  0  0  0
    7.8851    2.3078   -4.3511 C   0  0  0  0  0  0  0  0  0  0  0  0
    8.1869    2.9863   -5.3871 O   0  0  0  0  0  0  0  0  0  0  0  0
    8.5501    1.1890   -4.0371 N   0  0  0  0  0  0  0  0  0  0  0  0
    8.2145    0.4712   -2.9202 C   0  0  0  0  0  0  0  0  0  0  0  0
    9.0103   -0.7695   -2.7333 C   0  0  0  0  0  0  0  0  0  0  0  0
   -6.3618    2.5290   -2.7595 H   0  0  0  0  0  0  0  0  0  0  0  0
   -6.5068    1.4848   -4.1989 H   0  0  0  0  0  0  0  0  0  0  0  0
   -5.0263    1.4381   -3.1903 H   0  0  0  0  0  0  0  0  0  0  0  0
   -8.0266   -0.4131   -3.7085 H   0  0  0  0  0  0  0  0  0  0  0  0
   -9.6415   -0.8480   -1.7899 H   0  0  0  0  0  0  0  0  0  0  0  0
   -8.8479   -3.0025   -1.3998 H   0  0  0  0  0  0  0  0  0  0  0  0
   -7.2157   -2.5197   -1.9371 H   0  0  0  0  0  0  0  0  0  0  0  0
   -8.0266   -4.4328    0.1823 H   0  0  0  0  0  0  0  0  0  0  0  0
   -6.2863   -2.9233    3.6778 H   0  0  0  0  0  0  0  0  0  0  0  0
   -6.1088   -0.6801    2.6503 H   0  0  0  0  0  0  0  0  0  0  0  0
   -5.5561   -0.9348   -1.2124 H   0  0  0  0  0  0  0  0  0  0  0  0
   -5.1804    0.7802   -0.8794 H   0  0  0  0  0  0  0  0  0  0  0  0
   -8.4393    1.1295   -0.8629 H   0  0  0  0  0  0  0  0  0  0  0  0
   -9.4574   -1.1791    0.9462 H   0  0  0  0  0  0  0  0  0  0  0  0
  -10.3704    0.1698    0.2429 H   0  0  0  0  0  0  0  0  0  0  0  0
   -8.7637    0.1266    2.7111 H   0  0  0  0  0  0  0  0  0  0  0  0
  -10.0096    1.2808    2.1346 H   0  0  0  0  0  0  0  0  0  0  0  0
   -7.8165    2.2901    2.4378 H   0  0  0  0  0  0  0  0  0  0  0  0
   -8.3367    2.4471    0.7284 H   0  0  0  0  0  0  0  0  0  0  0  0
   -3.9519    1.2127    2.8552 H   0  0  0  0  0  0  0  0  0  0  0  0
   -3.7005    2.3676    1.5684 H   0  0  0  0  0  0  0  0  0  0  0  0
   -3.3667   -1.3388    2.1363 H   0  0  0  0  0  0  0  0  0  0  0  0
   -4.1876   -1.5278    0.5537 H   0  0  0  0  0  0  0  0  0  0  0  0
   -2.4452   -1.3219    0.6384 H   0  0  0  0  0  0  0  0  0  0  0  0
   -2.8218    1.9555   -0.3071 H   0  0  0  0  0  0  0  0  0  0  0  0
   -1.9780    0.3587   -0.4160 H   0  0  0  0  0  0  0  0  0  0  0  0
   -0.7474    2.3264    0.6628 H   0  0  0  0  0  0  0  0  0  0  0  0
   -1.8109    2.2070    2.0552 H   0  0  0  0  0  0  0  0  0  0  0  0
   -1.2631   -0.2524    2.3256 H   0  0  0  0  0  0  0  0  0  0  0  0
    0.0506    0.8500    2.6982 H   0  0  0  0  0  0  0  0  0  0  0  0
    0.8304   -1.0070    1.3407 H   0  0  0  0  0  0  0  0  0  0  0  0
   -0.3696   -0.6866    0.0433 H   0  0  0  0  0  0  0  0  0  0  0  0
    0.7750    1.5835   -0.3134 H   0  0  0  0  0  0  0  0  0  0  0  0
    1.7383    0.1471   -0.6053 H   0  0  0  0  0  0  0  0  0  0  0  0
    2.9255    1.8489    0.7627 H   0  0  0  0  0  0  0  0  0  0  0  0
    1.7380    1.6900    2.0659 H   0  0  0  0  0  0  0  0  0  0  0  0
    4.5590   -0.2234    3.0878 H   0  0  0  0  0  0  0  0  0  0  0  0
    3.4018    1.1211    3.3437 H   0  0  0  0  0  0  0  0  0  0  0  0
    2.8817   -0.5614    3.7005 H   0  0  0  0  0  0  0  0  0  0  0  0
    4.2878   -1.3745    0.9140 H   0  0  0  0  0  0  0  0  0  0  0  0
    3.4946   -0.2417   -0.2418 H   0  0  0  0  0  0  0  0  0  0  0  0
    6.6292    2.4693    1.4451 H   0  0  0  0  0  0  0  0  0  0  0  0
    7.3055    2.6658   -0.2092 H   0  0  0  0  0  0  0  0  0  0  0  0
    9.0948    2.3613    1.3073 H   0  0  0  0  0  0  0  0  0  0  0  0
    8.3397    0.7738    1.9075 H   0  0  0  0  0  0  0  0  0  0  0  0
   10.1528    0.5260    0.1365 H   0  0  0  0  0  0  0  0  0  0  0  0
    9.0966    1.5607   -0.9251 H   0  0  0  0  0  0  0  0  0  0  0  0
    8.1448   -0.9621    0.5599 H   0  0  0  0  0  0  0  0  0  0  0  0
    9.9085   -1.5934   -0.9687 H   0  0  0  0  0  0  0  0  0  0  0  0
    8.4871   -3.5807   -1.4889 H   0  0  0  0  0  0  0  0  0  0  0  0
    5.7117   -3.3012    0.5367 H   0  0  0  0  0  0  0  0  0  0  0  0
    6.5288   -4.5089   -0.5422 H   0  0  0  0  0  0  0  0  0  0  0  0
    5.0332   -3.7417   -1.0758 H   0  0  0  0  0  0  0  0  0  0  0  0
    5.0958   -1.1536   -1.2688 H   0  0  0  0  0  0  0  0  0  0  0  0
    6.2356   -1.1290   -2.5994 H   0  0  0  0  0  0  0  0  0  0  0  0
    5.6887    2.3589   -1.7853 H   0  0  0  0  0  0  0  0  0  0  0  0
    6.3180    3.6442   -3.8040 H   0  0  0  0  0  0  0  0  0  0  0  0
    9.3333    0.8811   -4.6638 H   0  0  0  0  0  0  0  0  0  0  0  0
    8.7595   -1.4759   -3.5509 H   0  0  0  0  0  0  0  0  0  0  0  0
   10.0792   -0.4822   -2.9201 H   0  0  0  0  0  0  0  0  0  0  0  0
  1  2  1  0
  2  3  2  0
  3  4  1  0
  4  5  1  0
  5  6  1  0
  6  7  1  0
  7  8  1  0
  8  9  2  0
  8 10  1  0
 10 11  2  0
 11 12  1  0
 12 13  1  0
 13 14  1  0
 13 15  1  0
 15 16  1  0
 16 17  1  0
 17 18  1  0
 18 19  1  0
 19 20  1  0
 20 21  2  0
 20 22  1  0
 22 23  1  0
 23 24  1  0
 23 25  1  0
 25 26  1  0
 26 27  1  0
 27 28  1  0
 28 29  1  0
 29 30  1  0
 30 31  1  0
 31 32  1  0
 31 33  1  0
 33 34  1  0
 34 35  2  0
 34 36  1  0
 36 37  1  0
 37 38  1  0
 38 39  1  0
 39 40  1  0
 40 41  1  0
 41 42  1  0
 42 43  2  0
 43 44  1  0
 43 45  1  0
 45 46  1  0
 46 47  1  0
 47 48  1  0
 48 49  2  0
 49 50  1  0
 50 51  2  0
 50 52  1  0
 52 53  1  0
 53 54  1  0
 14  2  1  0
 46 36  1  1
 53 47  2  0
 15  4  1  0
 46 40  1  0
 12  6  2  0
 13 19  1  1
 54 41  1  0
  1 55  1  0
  1 56  1  0
  1 57  1  0
  3 58  1  0
  4 59  1  0
  5 60  1  0
  5 61  1  0
  7 62  1  0
 10 63  1  0
 11 64  1  0
 14 65  1  0
 14 66  1  0
 15 67  1  6
 16 68  1  0
 16 69  1  0
 17 70  1  0
 17 71  1  0
 18 72  1  0
 18 73  1  0
 22 74  1  0
 22 75  1  0
 24 76  1  0
 24 77  1  0
 24 78  1  0
 25 79  1  0
 25 80  1  0
 26 81  1  0
 26 82  1  0
 27 83  1  0
 27 84  1  0
 28 85  1  0
 28 86  1  0
 29 87  1  0
 29 88  1  0
 30 89  1  0
 30 90  1  0
 32 91  1  0
 32 92  1  0
 32 93  1  0
 33 94  1  0
 33 95  1  0
 37 96  1  0
 37 97  1  0
 38 98  1  0
 38 99  1  0
 39100  1  0
 39101  1  0
 40102  1  1
 41103  1  0
 42104  1  0
 44105  1  0
 44106  1  0
 44107  1  0
 45108  1  0
 45109  1  0
 48110  1  0
 49111  1  0
 52112  1  0
 54113  1  0
 54114  1  0
M  END
$$$$
