@<TRIPOS>MOLECULE
*****
 114 121 0 0 0
SMALL
GASTEIGER

@<TRIPOS>ATOM
      1 C          -6.1453    1.5246   -3.1577 C.3     1  UNL1       -0.0437
      2 C          -6.6905    0.4204   -2.3241 C.2     1  UNL1       -0.0739
      3 C          -7.7587   -0.2810   -2.6850 C.2     1  UNL1       -0.0812
      4 C          -8.5577   -0.8632   -1.5347 C.3     1  UNL1       -0.0122
      5 C          -8.0377   -2.2284   -1.2575 C.3     1  UNL1       -0.0055
      6 C          -7.5233   -2.3989    0.1308 C.ar    1  UNL1        0.0248
      7 N          -7.6114   -3.6088    0.7028 N.ar    1  UNL1       -0.3259
      8 C          -7.1770   -3.8295    1.9752 C.ar    1  UNL1        0.2489
      9 O          -7.2717   -4.9598    2.4817 O.2     1  UNL1       -0.2679
     10 C          -6.6464   -2.7703    2.6471 C.ar    1  UNL1        0.0031
     11 C          -6.5362   -1.5270    2.1097 C.ar    1  UNL1       -0.0498
     12 C          -6.9773   -1.3316    0.8385 C.ar    1  UNL1       -0.0039
     13 C          -6.9302    0.0188    0.1483 C.3     1  UNL1        0.0711
     14 C          -6.0276    0.0476   -1.0261 C.3     1  UNL1       -0.0059
     15 C          -8.3714    0.1357   -0.4188 C.3     1  UNL1       -0.0083
     16 C          -9.3985   -0.1392    0.6477 C.3     1  UNL1       -0.0460
     17 C          -9.0949    0.7196    1.8718 C.3     1  UNL1       -0.0368
     18 C          -8.0520    1.7476    1.5146 C.3     1  UNL1        0.0156
     19 N          -6.7634    1.0585    1.1042 N.am    1  UNL1       -0.2900
     20 C          -5.6498    1.5688    1.7233 C.2     1  UNL1        0.2303
     21 O          -5.9440    2.5668    2.5592 O.2     1  UNL1       -0.2742
     22 C          -4.2408    1.3195    1.7062 C.3     1  UNL1        0.0757
     23 N          -3.4842    0.4348    0.9867 N.3     1  UNL1       -0.2971
     24 C          -3.4109   -0.9220    1.0908 C.3     1  UNL1       -0.0123
     25 C          -2.4056    1.0887    0.2807 C.3     1  UNL1       -0.0009
     26 C          -1.3661    1.5850    1.2175 C.3     1  UNL1       -0.0402
     27 C          -0.5930    0.4819    1.8576 C.3     1  UNL1       -0.0519
     28 C           0.2270   -0.2399    0.8035 C.3     1  UNL1       -0.0519
     29 C           1.2439    0.7156    0.1806 C.3     1  UNL1       -0.0402
     30 C           2.2145    1.1311    1.2685 C.3     1  UNL1       -0.0009
     31 N           2.9151   -0.0742    1.6995 N.3     1  UNL1       -0.2971
     32 C           3.5278    0.0823    3.0140 C.3     1  UNL1       -0.0123
     33 C           4.0262   -0.3215    0.7228 C.3     1  UNL1        0.0757
     34 C           5.1014    0.6430    0.8249 C.2     1  UNL1        0.2303
     35 O           4.9045    1.5516    1.7489 O.2     1  UNL1       -0.2742
     36 N           6.2999    0.7936    0.1389 N.am    1  UNL1       -0.2900
     37 C           7.1198    1.9650    0.5985 C.3     1  UNL1        0.0156
     38 C           8.4756    1.4918    1.0895 C.3     1  UNL1       -0.0368
     39 C           9.1177    0.7922   -0.1276 C.3     1  UNL1       -0.0460
     40 C           8.2746   -0.4049   -0.3763 C.3     1  UNL1       -0.0083
     41 C           8.8846   -1.3456   -1.3753 C.3     1  UNL1       -0.0122
     42 C           8.0965   -2.5982   -1.3436 C.2     1  UNL1       -0.0812
     43 C           6.7819   -2.4412   -1.0948 C.2     1  UNL1       -0.0739
     44 C           5.9918   -3.5272   -0.5167 C.3     1  UNL1       -0.0437
     45 C           6.1600   -1.1398   -1.4389 C.3     1  UNL1       -0.0059
     46 C           6.8929    0.0404   -0.8932 C.3     1  UNL1        0.0711
     47 C           7.1954    0.8909   -2.1075 C.ar    1  UNL1       -0.0039
     48 C           6.4981    2.0341   -2.4077 C.ar    1  UNL1       -0.0498
     49 C           6.8652    2.7296   -3.5445 C.ar    1  UNL1        0.0031
     50 C           7.8851    2.3078   -4.3511 C.ar    1  UNL1        0.2489
     51 O           8.1869    2.9863   -5.3871 O.2     1  UNL1       -0.2679
     52 N           8.5501    1.1890   -4.0371 N.ar    1  UNL1       -0.3259
     53 C           8.2145    0.4712   -2.9202 C.ar    1  UNL1        0.0248
     54 C           9.0103   -0.7695   -2.7333 C.3     1  UNL1       -0.0055
     55 H          -6.3618    2.5290   -2.7595 H       1  UNL1        0.0274
     56 H          -6.5068    1.4848   -4.1989 H       1  UNL1        0.0274
     57 H          -5.0263    1.4381   -3.1903 H       1  UNL1        0.0274
     58 H          -8.0266   -0.4131   -3.7085 H       1  UNL1        0.0575
     59 H          -9.6415   -0.8480   -1.7899 H       1  UNL1        0.0350
     60 H          -8.8479   -3.0025   -1.3998 H       1  UNL1        0.0333
     61 H          -7.2157   -2.5197   -1.9371 H       1  UNL1        0.0333
     62 H          -8.0266   -4.4328    0.1823 H       1  UNL1        0.1686
     63 H          -6.2863   -2.9233    3.6778 H       1  UNL1        0.0672
     64 H          -6.1088   -0.6801    2.6503 H       1  UNL1        0.0623
     65 H          -5.5561   -0.9348   -1.2124 H       1  UNL1        0.0334
     66 H          -5.1804    0.7802   -0.8794 H       1  UNL1        0.0334
     67 H          -8.4393    1.1295   -0.8629 H       1  UNL1        0.0331
     68 H          -9.4574   -1.1791    0.9462 H       1  UNL1        0.0269
     69 H         -10.3704    0.1698    0.2429 H       1  UNL1        0.0269
     70 H          -8.7637    0.1266    2.7111 H       1  UNL1        0.0280
     71 H         -10.0096    1.2808    2.1346 H       1  UNL1        0.0280
     72 H          -7.8165    2.2901    2.4378 H       1  UNL1        0.0465
     73 H          -8.3367    2.4471    0.7284 H       1  UNL1        0.0465
     74 H          -3.9519    1.2127    2.8552 H       1  UNL1        0.0522
     75 H          -3.7005    2.3676    1.5684 H       1  UNL1        0.0522
     76 H          -3.3667   -1.3388    2.1363 H       1  UNL1        0.0391
     77 H          -4.1876   -1.5278    0.5537 H       1  UNL1        0.0391
     78 H          -2.4452   -1.3219    0.6384 H       1  UNL1        0.0391
     79 H          -2.8218    1.9555   -0.3071 H       1  UNL1        0.0427
     80 H          -1.9780    0.3587   -0.4160 H       1  UNL1        0.0427
     81 H          -0.7474    2.3264    0.6628 H       1  UNL1        0.0278
     82 H          -1.8109    2.2070    2.0552 H       1  UNL1        0.0278
     83 H          -1.2631   -0.2524    2.3256 H       1  UNL1        0.0266
     84 H           0.0506    0.8500    2.6982 H       1  UNL1        0.0266
     85 H           0.8304   -1.0070    1.3407 H       1  UNL1        0.0266
     86 H          -0.3696   -0.6866    0.0433 H       1  UNL1        0.0266
     87 H           0.7750    1.5835   -0.3134 H       1  UNL1        0.0278
     88 H           1.7383    0.1471   -0.6053 H       1  UNL1        0.0278
     89 H           2.9255    1.8489    0.7627 H       1  UNL1        0.0427
     90 H           1.7380    1.6900    2.0659 H       1  UNL1        0.0427
     91 H           4.5590   -0.2234    3.0878 H       1  UNL1        0.0391
     92 H           3.4018    1.1211    3.3437 H       1  UNL1        0.0391
     93 H           2.8817   -0.5614    3.7005 H       1  UNL1        0.0391
     94 H           4.2878   -1.3745    0.9140 H       1  UNL1        0.0522
     95 H           3.4946   -0.2417   -0.2418 H       1  UNL1        0.0522
     96 H           6.6292    2.4693    1.4451 H       1  UNL1        0.0465
     97 H           7.3055    2.6658   -0.2092 H       1  UNL1        0.0465
     98 H           9.0948    2.3613    1.3073 H       1  UNL1        0.0280
     99 H           8.3397    0.7738    1.9075 H       1  UNL1        0.0280
    100 H          10.1528    0.5260    0.1365 H       1  UNL1        0.0269
    101 H           9.0966    1.5607   -0.9251 H       1  UNL1        0.0269
    102 H           8.1448   -0.9621    0.5599 H       1  UNL1        0.0331
    103 H           9.9085   -1.5934   -0.9687 H       1  UNL1        0.0350
    104 H           8.4871   -3.5807   -1.4889 H       1  UNL1        0.0575
    105 H           5.7117   -3.3012    0.5367 H       1  UNL1        0.0274
    106 H           6.5288   -4.5089   -0.5422 H       1  UNL1        0.0274
    107 H           5.0332   -3.7417   -1.0758 H       1  UNL1        0.0274
    108 H           5.0958   -1.1536   -1.2688 H       1  UNL1        0.0334
    109 H           6.2356   -1.1290   -2.5994 H       1  UNL1        0.0334
    110 H           5.6887    2.3589   -1.7853 H       1  UNL1        0.0623
    111 H           6.3180    3.6442   -3.8040 H       1  UNL1        0.0672
    112 H           9.3333    0.8811   -4.6638 H       1  UNL1        0.1686
    113 H           8.7595   -1.4759   -3.5509 H       1  UNL1        0.0333
    114 H          10.0792   -0.4822   -2.9201 H       1  UNL1        0.0333
@<TRIPOS>BOND
     1     1     2    1
     2     2     3    2
     3     3     4    1
     4     4     5    1
     5     5     6    1
     6     6     7   ar
     7     7     8   ar
     8     8     9    2
     9     8    10   ar
    10    10    11   ar
    11    11    12   ar
    12    12    13    1
    13    13    14    1
    14    13    15    1
    15    15    16    1
    16    16    17    1
    17    17    18    1
    18    18    19    1
    19    19    20   am
    20    20    21    2
    21    20    22    1
    22    22    23    1
    23    23    24    1
    24    23    25    1
    25    25    26    1
    26    26    27    1
    27    27    28    1
    28    28    29    1
    29    29    30    1
    30    30    31    1
    31    31    32    1
    32    31    33    1
    33    33    34    1
    34    34    35    2
    35    34    36   am
    36    36    37    1
    37    37    38    1
    38    38    39    1
    39    39    40    1
    40    40    41    1
    41    41    42    1
    42    42    43    2
    43    43    44    1
    44    43    45    1
    45    45    46    1
    46    46    47    1
    47    47    48   ar
    48    48    49   ar
    49    49    50   ar
    50    50    51    2
    51    50    52   ar
    52    52    53   ar
    53    53    54    1
    54    14     2    1
    55    46    36    1
    56    53    47   ar
    57    15     4    1
    58    46    40    1
    59    12     6   ar
    60    13    19    1
    61    54    41    1
    62     1    55    1
    63     1    56    1
    64     1    57    1
    65     3    58    1
    66     4    59    1
    67     5    60    1
    68     5    61    1
    69     7    62    1
    70    10    63    1
    71    11    64    1
    72    14    65    1
    73    14    66    1
    74    15    67    1
    75    16    68    1
    76    16    69    1
    77    17    70    1
    78    17    71    1
    79    18    72    1
    80    18    73    1
    81    22    74    1
    82    22    75    1
    83    24    76    1
    84    24    77    1
    85    24    78    1
    86    25    79    1
    87    25    80    1
    88    26    81    1
    89    26    82    1
    90    27    83    1
    91    27    84    1
    92    28    85    1
    93    28    86    1
    94    29    87    1
    95    29    88    1
    96    30    89    1
    97    30    90    1
    98    32    91    1
    99    32    92    1
   100    32    93    1
   101    33    94    1
   102    33    95    1
   103    37    96    1
   104    37    97    1
   105    38    98    1
   106    38    99    1
   107    39   100    1
   108    39   101    1
   109    40   102    1
   110    41   103    1
   111    42   104    1
   112    44   105    1
   113    44   106    1
   114    44   107    1
   115    45   108    1
   116    45   109    1
   117    48   110    1
   118    49   111    1
   119    52   112    1
   120    54   113    1
   121    54   114    1
