@<TRIPOS>MOLECULE
*****
 50 53 0 0 0
SMALL
GASTEIGER

@<TRIPOS>ATOM
      1 C          -0.7916   -1.3848    0.3908 C.3     1  UNL1        0.1038
      2 C          -1.2833   -2.1013    1.6198 C.3     1  UNL1       -0.0006
      3 C          -2.5016   -2.8673    1.2495 C.ar    1  UNL1       -0.0451
      4 C          -3.7410   -2.2950    1.3518 C.ar    1  UNL1       -0.0585
      5 C          -4.9091   -2.9566    1.0224 C.ar    1  UNL1       -0.0615
      6 C          -4.8174   -4.2544    0.5696 C.ar    1  UNL1       -0.0617
      7 C          -3.5861   -4.8986    0.4412 C.ar    1  UNL1       -0.0615
      8 C          -2.4485   -4.1754    0.7900 C.ar    1  UNL1       -0.0585
      9 N           0.3833   -0.6027    0.6018 N.am    1  UNL1       -0.2985
     10 C           1.6048   -0.8895   -0.0704 C.2     1  UNL1        0.2610
     11 O           1.6391   -1.8751   -0.8817 O.2     1  UNL1       -0.2686
     12 C           2.7918   -0.0726    0.1646 C.ar    1  UNL1        0.1028
     13 C           2.8560    1.0227    1.0302 C.ar    1  UNL1       -0.0241
     14 C           4.1693    1.4572    0.9092 C.ar    1  UNL1        0.0018
     15 C           4.8423    0.6515    0.0128 C.ar    1  UNL1        0.0471
     16 N           3.9847   -0.2701   -0.4257 N.ar    1  UNL1       -0.3506
     17 C           6.1671    0.9642   -0.2112 C.ar    1  UNL1       -0.0364
     18 C           6.8206    2.0115    0.4030 C.ar    1  UNL1       -0.0414
     19 C           6.0964    2.7708    1.2802 C.ar    1  UNL1        0.0417
     20 CL          6.9658    4.1004    2.0456 Cl      1  UNL1       -0.0835
     21 C           4.7628    2.5248    1.5614 C.ar    1  UNL1       -0.0342
     22 C          -1.8327   -0.5801   -0.2542 C.2     1  UNL1        0.2363
     23 O          -2.9976   -0.4175   -0.7505 O.2     1  UNL1       -0.2736
     24 N          -1.7900    0.7836   -0.6545 N.am    1  UNL1       -0.2983
     25 C          -2.8701    1.5099   -1.2904 C.3     1  UNL1        0.0291
     26 C          -2.1208    2.8063   -1.1676 C.3     1  UNL1        0.0876
     27 C          -0.9639    1.9725   -0.7010 C.3     1  UNL1        0.0291
     28 C          -1.8859    3.5420   -2.4435 C.2     1  UNL1        0.3109
     29 O          -3.0418    3.9180   -3.1424 O.3     1  UNL1       -0.4803
     30 O          -0.7826    3.8645   -2.9659 O.2     1  UNL1       -0.2506
     31 H          -0.5112   -2.1815   -0.3553 H       1  UNL1        0.0598
     32 H          -0.5523   -2.8216    1.9823 H       1  UNL1        0.0336
     33 H          -1.5989   -1.3622    2.3997 H       1  UNL1        0.0336
     34 H          -3.9019   -1.2811    1.6984 H       1  UNL1        0.0620
     35 H          -5.9096   -2.5401    1.0889 H       1  UNL1        0.0618
     36 H          -5.6539   -4.8935    0.2751 H       1  UNL1        0.0618
     37 H          -3.4760   -5.9158    0.0894 H       1  UNL1        0.0618
     38 H          -1.4412   -4.5975    0.7220 H       1  UNL1        0.0620
     39 H           0.3598    0.2059    1.2658 H       1  UNL1        0.1498
     40 H           2.0486    1.4238    1.6467 H       1  UNL1        0.0646
     41 H           4.2270   -1.0215   -1.1227 H       1  UNL1        0.1660
     42 H           6.6796    0.3177   -0.9207 H       1  UNL1        0.0639
     43 H           7.8494    2.1456    0.1409 H       1  UNL1        0.0633
     44 H           4.2377    3.1625    2.2681 H       1  UNL1        0.0639
     45 H          -3.7909    1.4980   -0.6724 H       1  UNL1        0.0473
     46 H          -3.0455    1.2222   -2.3469 H       1  UNL1        0.0473
     47 H          -2.5587    3.4876   -0.3894 H       1  UNL1        0.0445
     48 H          -0.1571    1.9625   -1.4749 H       1  UNL1        0.0473
     49 H          -0.4848    2.2593    0.2570 H       1  UNL1        0.0473
     50 H          -3.0399    4.6710   -3.8140 H       1  UNL1        0.2951
@<TRIPOS>BOND
     1     1     2    1
     2     2     3    1
     3     3     4   ar
     4     4     5   ar
     5     5     6   ar
     6     6     7   ar
     7     7     8   ar
     8     1     9    1
     9     9    10   am
    10    10    11    2
    11    10    12    1
    12    12    13   ar
    13    13    14   ar
    14    14    15   ar
    15    15    16   ar
    16    15    17   ar
    17    17    18   ar
    18    18    19   ar
    19    19    20    1
    20    19    21   ar
    21     1    22    1
    22    22    23    2
    23    22    24   am
    24    24    25    1
    25    25    26    1
    26    26    27    1
    27    26    28    1
    28    28    29    1
    29    28    30    2
    30     8     3   ar
    31    16    12   ar
    32    27    24    1
    33    21    14   ar
    34     1    31    1
    35     2    32    1
    36     2    33    1
    37     4    34    1
    38     5    35    1
    39     6    36    1
    40     7    37    1
    41     8    38    1
    42     9    39    1
    43    13    40    1
    44    16    41    1
    45    17    42    1
    46    18    43    1
    47    21    44    1
    48    25    45    1
    49    25    46    1
    50    26    47    1
    51    27    48    1
    52    27    49    1
    53    29    50    1
