
     RDKit          3D

 50 53  0  0  0  0  0  0  0  0999 V2000
   -0.7916   -1.3848    0.3908 C   0  0  2  0  0  0  0  0  0  0  0  0
   -1.2833   -2.1013    1.6198 C   0  0  0  0  0  0  0  0  0  0  0  0
   -2.5016   -2.8673    1.2495 C   0  0  0  0  0  0  0  0  0  0  0  0
   -3.7410   -2.2950    1.3518 C   0  0  0  0  0  0  0  0  0  0  0  0
   -4.9091   -2.9566    1.0224 C   0  0  0  0  0  0  0  0  0  0  0  0
   -4.8174   -4.2544    0.5696 C   0  0  0  0  0  0  0  0  0  0  0  0
   -3.5861   -4.8986    0.4412 C   0  0  0  0  0  0  0  0  0  0  0  0
   -2.4485   -4.1754    0.7900 C   0  0  0  0  0  0  0  0  0  0  0  0
    0.3833   -0.6027    0.6018 N   0  0  0  0  0  0  0  0  0  0  0  0
    1.6048   -0.8895   -0.0704 C   0  0  0  0  0  0  0  0  0  0  0  0
    1.6391   -1.8751   -0.8817 O   0  0  0  0  0  0  0  0  0  0  0  0
    2.7918   -0.0726    0.1646 C   0  0  0  0  0  0  0  0  0  0  0  0
    2.8560    1.0227    1.0302 C   0  0  0  0  0  0  0  0  0  0  0  0
    4.1693    1.4572    0.9092 C   0  0  0  0  0  0  0  0  0  0  0  0
    4.8423    0.6515    0.0128 C   0  0  0  0  0  0  0  0  0  0  0  0
    3.9847   -0.2701   -0.4257 N   0  0  0  0  0  0  0  0  0  0  0  0
    6.1671    0.9642   -0.2112 C   0  0  0  0  0  0  0  0  0  0  0  0
    6.8206    2.0115    0.4030 C   0  0  0  0  0  0  0  0  0  0  0  0
    6.0964    2.7708    1.2802 C   0  0  0  0  0  0  0  0  0  0  0  0
    6.9658    4.1004    2.0456 Cl  0  0  0  0  0  0  0  0  0  0  0  0
    4.7628    2.5248    1.5614 C   0  0  0  0  0  0  0  0  0  0  0  0
   -1.8327   -0.5801   -0.2542 C   0  0  0  0  0  0  0  0  0  0  0  0
   -2.9976   -0.4175   -0.7505 O   0  0  0  0  0  0  0  0  0  0  0  0
   -1.7900    0.7836   -0.6545 N   0  0  0  0  0  0  0  0  0  0  0  0
   -2.8701    1.5099   -1.2904 C   0  0  0  0  0  0  0  0  0  0  0  0
   -2.1208    2.8063   -1.1676 C   0  0  0  0  0  0  0  0  0  0  0  0
   -0.9639    1.9725   -0.7010 C   0  0  0  0  0  0  0  0  0  0  0  0
   -1.8859    3.5420   -2.4435 C   0  0  0  0  0  0  0  0  0  0  0  0
   -3.0418    3.9180   -3.1424 O   0  0  0  0  0  0  0  0  0  0  0  0
   -0.7826    3.8645   -2.9659 O   0  0  0  0  0  0  0  0  0  0  0  0
   -0.5112   -2.1815   -0.3553 H   0  0  0  0  0  0  0  0  0  0  0  0
   -0.5523   -2.8216    1.9823 H   0  0  0  0  0  0  0  0  0  0  0  0
   -1.5989   -1.3622    2.3997 H   0  0  0  0  0  0  0  0  0  0  0  0
   -3.9019   -1.2811    1.6984 H   0  0  0  0  0  0  0  0  0  0  0  0
   -5.9096   -2.5401    1.0889 H   0  0  0  0  0  0  0  0  0  0  0  0
   -5.6539   -4.8935    0.2751 H   0  0  0  0  0  0  0  0  0  0  0  0
   -3.4760   -5.9158    0.0894 H   0  0  0  0  0  0  0  0  0  0  0  0
   -1.4412   -4.5975    0.7220 H   0  0  0  0  0  0  0  0  0  0  0  0
    0.3598    0.2059    1.2658 H   0  0  0  0  0  0  0  0  0  0  0  0
    2.0486    1.4238    1.6467 H   0  0  0  0  0  0  0  0  0  0  0  0
    4.2270   -1.0215   -1.1227 H   0  0  0  0  0  0  0  0  0  0  0  0
    6.6796    0.3177   -0.9207 H   0  0  0  0  0  0  0  0  0  0  0  0
    7.8494    2.1456    0.1409 H   0  0  0  0  0  0  0  0  0  0  0  0
    4.2377    3.1625    2.2681 H   0  0  0  0  0  0  0  0  0  0  0  0
   -3.7909    1.4980   -0.6724 H   0  0  0  0  0  0  0  0  0  0  0  0
   -3.0455    1.2222   -2.3469 H   0  0  0  0  0  0  0  0  0  0  0  0
   -2.5587    3.4876   -0.3894 H   0  0  0  0  0  0  0  0  0  0  0  0
   -0.1571    1.9625   -1.4749 H   0  0  0  0  0  0  0  0  0  0  0  0
   -0.4848    2.2593    0.2570 H   0  0  0  0  0  0  0  0  0  0  0  0
   -3.0399    4.6710   -3.8140 H   0  0  0  0  0  0  0  0  0  0  0  0
  1  2  1  0
  2  3  1  0
  3  4  2  0
  4  5  1  0
  5  6  2  0
  6  7  1  0
  7  8  2  0
  1  9  1  0
  9 10  1  0
 10 11  2  0
 10 12  1  0
 12 13  2  0
 13 14  1  0
 14 15  2  0
 15 16  1  0
 15 17  1  0
 17 18  2  0
 18 19  1  0
 19 20  1  0
 19 21  2  0
  1 22  1  0
 22 23  2  0
 22 24  1  0
 24 25  1  0
 25 26  1  0
 26 27  1  0
 26 28  1  0
 28 29  1  0
 28 30  2  0
  8  3  1  0
 16 12  1  0
 27 24  1  0
 21 14  1  0
  1 31  1  6
  2 32  1  0
  2 33  1  0
  4 34  1  0
  5 35  1  0
  6 36  1  0
  7 37  1  0
  8 38  1  0
  9 39  1  0
 13 40  1  0
 16 41  1  0
 17 42  1  0
 18 43  1  0
 21 44  1  0
 25 45  1  0
 25 46  1  0
 26 47  1  0
 27 48  1  0
 27 49  1  0
 29 50  1  0
M  END
$$$$
