@<TRIPOS>MOLECULE
*****
 69 74 0 0 0
SMALL
GASTEIGER

@<TRIPOS>ATOM
      1 O          -0.4916    0.1869    1.0478 O.2     1  UNL1       -0.2738
      2 C          -0.6835    0.0959   -0.1854 C.2     1  UNL1        0.2336
      3 N          -2.0320   -0.0494   -0.5995 N.am    1  UNL1       -0.3104
      4 C          -3.0668   -0.0825    0.3940 C.3     1  UNL1        0.0289
      5 C          -3.9463    1.1326    0.1749 C.3     1  UNL1       -0.0211
      6 C          -4.6351    1.0129   -1.1452 C.3     1  UNL1       -0.0456
      7 C          -5.5441   -0.1953   -1.1346 C.3     1  UNL1       -0.0394
      8 C          -4.7049   -1.4368   -0.9475 C.3     1  UNL1       -0.0456
      9 C          -3.9432   -1.2916    0.3404 C.3     1  UNL1       -0.0211
     10 C          -4.9687   -1.1525    1.4579 C.3     1  UNL1       -0.0327
     11 C          -5.8379    0.0695    1.2786 C.3     1  UNL1        0.0685
     12 C          -6.7320    0.1541    2.4383 C.2     1  UNL1        0.3110
     13 O          -7.9745    0.1197    2.2683 O.2     1  UNL1       -0.2504
     14 O          -6.2564    0.2722    3.7320 O.3     1  UNL1       -0.4802
     15 C          -6.5527   -0.0137   -0.0284 C.3     1  UNL1       -0.0344
     16 C          -4.9577    1.2950    1.2859 C.3     1  UNL1       -0.0327
     17 C           0.4523    0.1392   -1.1531 C.3     1  UNL1        0.0986
     18 N           1.7512    0.1833   -0.5927 N.3     1  UNL1       -0.2860
     19 C           2.7591    0.1989   -1.6277 C.3     1  UNL1        0.0157
     20 C           3.9401    0.9458   -1.0102 C.3     1  UNL1        0.0263
     21 N           4.3445    0.1544    0.1377 N.pl3   1  UNL1       -0.3127
     22 C           5.7290    0.2129    0.4850 C.ar    1  UNL1        0.1213
     23 C           6.2155   -0.4228    1.6046 C.ar    1  UNL1       -0.0212
     24 C           7.5481   -0.3900    1.9659 C.ar    1  UNL1       -0.0454
     25 C           8.4212    0.3073    1.1716 C.ar    1  UNL1        0.0730
     26 C           9.8707    0.3710    1.5212 C.3     1  UNL1        0.4188
     27 F          10.1430    1.5919    2.1096 F       1  UNL1       -0.1658
     28 F          10.6325    0.1542    0.3855 F       1  UNL1       -0.1658
     29 F          10.1303   -0.6117    2.4568 F       1  UNL1       -0.1658
     30 C           7.9223    0.9413    0.0511 C.ar    1  UNL1        0.0413
     31 N           6.6235    0.8924   -0.2751 N.ar    1  UNL1       -0.2398
     32 C           3.4550   -0.6468    0.8982 C.3     1  UNL1        0.0263
     33 C           2.1042   -0.9089    0.2824 C.3     1  UNL1        0.0157
     34 C           0.1997   -0.7958   -2.3024 C.3     1  UNL1       -0.0258
     35 C          -0.0256    0.3579   -3.2696 C.3     1  UNL1       -0.0488
     36 C           0.2664    1.2913   -2.1444 C.3     1  UNL1       -0.0258
     37 H          -2.2465   -0.1304   -1.6186 H       1  UNL1        0.1490
     38 H          -2.6774    0.0068    1.4277 H       1  UNL1        0.0504
     39 H          -3.2496    2.0123    0.1118 H       1  UNL1        0.0319
     40 H          -5.3060    1.9077   -1.2476 H       1  UNL1        0.0271
     41 H          -3.9070    0.9988   -1.9705 H       1  UNL1        0.0271
     42 H          -6.0554   -0.2577   -2.0977 H       1  UNL1        0.0301
     43 H          -3.9872   -1.4580   -1.8077 H       1  UNL1        0.0271
     44 H          -5.3126   -2.3392   -0.8860 H       1  UNL1        0.0271
     45 H          -3.3776   -2.2313    0.5909 H       1  UNL1        0.0319
     46 H          -4.4742   -1.1101    2.4386 H       1  UNL1        0.0279
     47 H          -5.6524   -2.0305    1.4561 H       1  UNL1        0.0279
     48 H          -6.8504    0.4373    4.5375 H       1  UNL1        0.2951
     49 H          -7.1093    0.9209   -0.2518 H       1  UNL1        0.0278
     50 H          -7.2726   -0.8612    0.0137 H       1  UNL1        0.0278
     51 H          -5.5709    2.1712    1.0540 H       1  UNL1        0.0279
     52 H          -4.4141    1.4211    2.2412 H       1  UNL1        0.0279
     53 H           3.1738   -0.8426   -1.7986 H       1  UNL1        0.0442
     54 H           2.4649    0.5564   -2.5979 H       1  UNL1        0.0442
     55 H           3.5113    1.8922   -0.5952 H       1  UNL1        0.0477
     56 H           4.7502    1.1206   -1.7268 H       1  UNL1        0.0477
     57 H           5.5007   -0.9741    2.2299 H       1  UNL1        0.0652
     58 H           7.8924   -0.9123    2.8688 H       1  UNL1        0.0625
     59 H           8.6590    1.4803   -0.5436 H       1  UNL1        0.0836
     60 H           3.9697   -1.6356    1.0997 H       1  UNL1        0.0477
     61 H           3.3142   -0.1486    1.9013 H       1  UNL1        0.0477
     62 H           2.2046   -1.8593   -0.3262 H       1  UNL1        0.0442
     63 H           1.4108   -1.0661    1.1288 H       1  UNL1        0.0442
     64 H           1.0588   -1.4088   -2.6230 H       1  UNL1        0.0288
     65 H          -0.7058   -1.4207   -2.2445 H       1  UNL1        0.0288
     66 H           0.6619    0.4144   -4.1194 H       1  UNL1        0.0267
     67 H          -1.0793    0.4677   -3.6102 H       1  UNL1        0.0267
     68 H           1.1250    1.9755   -2.2546 H       1  UNL1        0.0288
     69 H          -0.6047    1.9582   -1.8520 H       1  UNL1        0.0288
@<TRIPOS>BOND
     1     1     2    2
     2     2     3   am
     3     3     4    1
     4     4     5    1
     5     5     6    1
     6     6     7    1
     7     7     8    1
     8     8     9    1
     9     9    10    1
    10    10    11    1
    11    11    12    1
    12    12    13    2
    13    12    14    1
    14    11    15    1
    15    11    16    1
    16     2    17    1
    17    17    18    1
    18    18    19    1
    19    19    20    1
    20    20    21    1
    21    21    22    1
    22    22    23   ar
    23    23    24   ar
    24    24    25   ar
    25    25    26    1
    26    26    27    1
    27    26    28    1
    28    26    29    1
    29    25    30   ar
    30    30    31   ar
    31    21    32    1
    32    32    33    1
    33    17    34    1
    34    34    35    1
    35    35    36    1
    36     9     4    1
    37    36    17    1
    38    16     5    1
    39    33    18    1
    40    15     7    1
    41    31    22   ar
    42     3    37    1
    43     4    38    1
    44     5    39    1
    45     6    40    1
    46     6    41    1
    47     7    42    1
    48     8    43    1
    49     8    44    1
    50     9    45    1
    51    10    46    1
    52    10    47    1
    53    14    48    1
    54    15    49    1
    55    15    50    1
    56    16    51    1
    57    16    52    1
    58    19    53    1
    59    19    54    1
    60    20    55    1
    61    20    56    1
    62    23    57    1
    63    24    58    1
    64    30    59    1
    65    32    60    1
    66    32    61    1
    67    33    62    1
    68    33    63    1
    69    34    64    1
    70    34    65    1
    71    35    66    1
    72    35    67    1
    73    36    68    1
    74    36    69    1
