
     RDKit          3D

 69 74  0  0  0  0  0  0  0  0999 V2000
   -0.4916    0.1869    1.0478 O   0  0  0  0  0  0  0  0  0  0  0  0
   -0.6835    0.0959   -0.1854 C   0  0  0  0  0  0  0  0  0  0  0  0
   -2.0320   -0.0494   -0.5995 N   0  0  0  0  0  0  0  0  0  0  0  0
   -3.0668   -0.0825    0.3940 C   0  0  1  0  0  0  0  0  0  0  0  0
   -3.9463    1.1326    0.1749 C   0  0  0  0  0  0  0  0  0  0  0  0
   -4.6351    1.0129   -1.1452 C   0  0  0  0  0  0  0  0  0  0  0  0
   -5.5441   -0.1953   -1.1346 C   0  0  0  0  0  0  0  0  0  0  0  0
   -4.7049   -1.4368   -0.9475 C   0  0  0  0  0  0  0  0  0  0  0  0
   -3.9432   -1.2916    0.3404 C   0  0  0  0  0  0  0  0  0  0  0  0
   -4.9687   -1.1525    1.4579 C   0  0  0  0  0  0  0  0  0  0  0  0
   -5.8379    0.0695    1.2786 C   0  0  2  0  0  0  0  0  0  0  0  0
   -6.7320    0.1541    2.4383 C   0  0  0  0  0  0  0  0  0  0  0  0
   -7.9745    0.1197    2.2683 O   0  0  0  0  0  0  0  0  0  0  0  0
   -6.2564    0.2722    3.7320 O   0  0  0  0  0  0  0  0  0  0  0  0
   -6.5527   -0.0137   -0.0284 C   0  0  0  0  0  0  0  0  0  0  0  0
   -4.9577    1.2950    1.2859 C   0  0  0  0  0  0  0  0  0  0  0  0
    0.4523    0.1392   -1.1531 C   0  0  0  0  0  0  0  0  0  0  0  0
    1.7512    0.1833   -0.5927 N   0  0  0  0  0  0  0  0  0  0  0  0
    2.7591    0.1989   -1.6277 C   0  0  0  0  0  0  0  0  0  0  0  0
    3.9401    0.9458   -1.0102 C   0  0  0  0  0  0  0  0  0  0  0  0
    4.3445    0.1544    0.1377 N   0  0  0  0  0  0  0  0  0  0  0  0
    5.7290    0.2129    0.4850 C   0  0  0  0  0  0  0  0  0  0  0  0
    6.2155   -0.4228    1.6046 C   0  0  0  0  0  0  0  0  0  0  0  0
    7.5481   -0.3900    1.9659 C   0  0  0  0  0  0  0  0  0  0  0  0
    8.4212    0.3073    1.1716 C   0  0  0  0  0  0  0  0  0  0  0  0
    9.8707    0.3710    1.5212 C   0  0  0  0  0  0  0  0  0  0  0  0
   10.1430    1.5919    2.1096 F   0  0  0  0  0  0  0  0  0  0  0  0
   10.6325    0.1542    0.3855 F   0  0  0  0  0  0  0  0  0  0  0  0
   10.1303   -0.6117    2.4568 F   0  0  0  0  0  0  0  0  0  0  0  0
    7.9223    0.9413    0.0511 C   0  0  0  0  0  0  0  0  0  0  0  0
    6.6235    0.8924   -0.2751 N   0  0  0  0  0  0  0  0  0  0  0  0
    3.4550   -0.6468    0.8982 C   0  0  0  0  0  0  0  0  0  0  0  0
    2.1042   -0.9089    0.2824 C   0  0  0  0  0  0  0  0  0  0  0  0
    0.1997   -0.7958   -2.3024 C   0  0  0  0  0  0  0  0  0  0  0  0
   -0.0256    0.3579   -3.2696 C   0  0  0  0  0  0  0  0  0  0  0  0
    0.2664    1.2913   -2.1444 C   0  0  0  0  0  0  0  0  0  0  0  0
   -2.2465   -0.1304   -1.6186 H   0  0  0  0  0  0  0  0  0  0  0  0
   -2.6774    0.0068    1.4277 H   0  0  0  0  0  0  0  0  0  0  0  0
   -3.2496    2.0123    0.1118 H   0  0  0  0  0  0  0  0  0  0  0  0
   -5.3060    1.9077   -1.2476 H   0  0  0  0  0  0  0  0  0  0  0  0
   -3.9070    0.9988   -1.9705 H   0  0  0  0  0  0  0  0  0  0  0  0
   -6.0554   -0.2577   -2.0977 H   0  0  0  0  0  0  0  0  0  0  0  0
   -3.9872   -1.4580   -1.8077 H   0  0  0  0  0  0  0  0  0  0  0  0
   -5.3126   -2.3392   -0.8860 H   0  0  0  0  0  0  0  0  0  0  0  0
   -3.3776   -2.2313    0.5909 H   0  0  0  0  0  0  0  0  0  0  0  0
   -4.4742   -1.1101    2.4386 H   0  0  0  0  0  0  0  0  0  0  0  0
   -5.6524   -2.0305    1.4561 H   0  0  0  0  0  0  0  0  0  0  0  0
   -6.8504    0.4373    4.5375 H   0  0  0  0  0  0  0  0  0  0  0  0
   -7.1093    0.9209   -0.2518 H   0  0  0  0  0  0  0  0  0  0  0  0
   -7.2726   -0.8612    0.0137 H   0  0  0  0  0  0  0  0  0  0  0  0
   -5.5709    2.1712    1.0540 H   0  0  0  0  0  0  0  0  0  0  0  0
   -4.4141    1.4211    2.2412 H   0  0  0  0  0  0  0  0  0  0  0  0
    3.1738   -0.8426   -1.7986 H   0  0  0  0  0  0  0  0  0  0  0  0
    2.4649    0.5564   -2.5979 H   0  0  0  0  0  0  0  0  0  0  0  0
    3.5113    1.8922   -0.5952 H   0  0  0  0  0  0  0  0  0  0  0  0
    4.7502    1.1206   -1.7268 H   0  0  0  0  0  0  0  0  0  0  0  0
    5.5007   -0.9741    2.2299 H   0  0  0  0  0  0  0  0  0  0  0  0
    7.8924   -0.9123    2.8688 H   0  0  0  0  0  0  0  0  0  0  0  0
    8.6590    1.4803   -0.5436 H   0  0  0  0  0  0  0  0  0  0  0  0
    3.9697   -1.6356    1.0997 H   0  0  0  0  0  0  0  0  0  0  0  0
    3.3142   -0.1486    1.9013 H   0  0  0  0  0  0  0  0  0  0  0  0
    2.2046   -1.8593   -0.3262 H   0  0  0  0  0  0  0  0  0  0  0  0
    1.4108   -1.0661    1.1288 H   0  0  0  0  0  0  0  0  0  0  0  0
    1.0588   -1.4088   -2.6230 H   0  0  0  0  0  0  0  0  0  0  0  0
   -0.7058   -1.4207   -2.2445 H   0  0  0  0  0  0  0  0  0  0  0  0
    0.6619    0.4144   -4.1194 H   0  0  0  0  0  0  0  0  0  0  0  0
   -1.0793    0.4677   -3.6102 H   0  0  0  0  0  0  0  0  0  0  0  0
    1.1250    1.9755   -2.2546 H   0  0  0  0  0  0  0  0  0  0  0  0
   -0.6047    1.9582   -1.8520 H   0  0  0  0  0  0  0  0  0  0  0  0
  1  2  2  0
  2  3  1  0
  3  4  1  0
  4  5  1  0
  5  6  1  0
  6  7  1  0
  7  8  1  0
  8  9  1  0
  9 10  1  0
 10 11  1  0
 11 12  1  1
 12 13  2  0
 12 14  1  0
 11 15  1  0
 11 16  1  0
  2 17  1  0
 17 18  1  0
 18 19  1  0
 19 20  1  0
 20 21  1  0
 21 22  1  0
 22 23  2  0
 23 24  1  0
 24 25  2  0
 25 26  1  0
 26 27  1  0
 26 28  1  0
 26 29  1  0
 25 30  1  0
 30 31  2  0
 21 32  1  0
 32 33  1  0
 17 34  1  0
 34 35  1  0
 35 36  1  0
  9  4  1  0
 36 17  1  0
 16  5  1  0
 33 18  1  0
 15  7  1  0
 31 22  1  0
  3 37  1  0
  4 38  1  1
  5 39  1  0
  6 40  1  0
  6 41  1  0
  7 42  1  0
  8 43  1  0
  8 44  1  0
  9 45  1  0
 10 46  1  0
 10 47  1  0
 14 48  1  0
 15 49  1  0
 15 50  1  0
 16 51  1  0
 16 52  1  0
 19 53  1  0
 19 54  1  0
 20 55  1  0
 20 56  1  0
 23 57  1  0
 24 58  1  0
 30 59  1  0
 32 60  1  0
 32 61  1  0
 33 62  1  0
 33 63  1  0
 34 64  1  0
 34 65  1  0
 35 66  1  0
 35 67  1  0
 36 68  1  0
 36 69  1  0
M  END
$$$$
