@<TRIPOS>MOLECULE
*****
 65 69 0 0 0
SMALL
GASTEIGER

@<TRIPOS>ATOM
      1 C           8.7426    1.7222   -0.7983 C.3     1  UNL1        0.0788
      2 O           8.4817    0.3308   -0.7922 O.3     1  UNL1       -0.4951
      3 C           7.1942   -0.0960   -1.0869 C.ar    1  UNL1        0.1201
      4 C           6.1456    0.7489   -1.3876 C.ar    1  UNL1       -0.0197
      5 C           4.9004    0.2250   -1.6666 C.ar    1  UNL1       -0.0551
      6 C           4.6423   -1.1380   -1.6603 C.ar    1  UNL1       -0.0459
      7 C           3.2651   -1.6657   -1.9676 C.3     1  UNL1       -0.0149
      8 C           2.4515   -1.7852   -0.7156 C.3     1  UNL1        0.0029
      9 N           2.3112   -0.5289   -0.0872 N.3     1  UNL1       -0.3019
     10 C           1.5303    0.4661   -0.7053 C.3     1  UNL1        0.0006
     11 C           0.0887    0.5473   -0.2649 C.3     1  UNL1       -0.0216
     12 C          -0.0739    0.5098    1.2136 C.3     1  UNL1        0.0256
     13 C           0.8339   -0.4968    1.8820 C.3     1  UNL1       -0.0216
     14 C           2.2135   -0.4995    1.3209 C.3     1  UNL1        0.0006
     15 N          -1.4367    0.1629    1.5530 N.pl3   1  UNL1       -0.3118
     16 C          -2.5049    0.9836    1.1238 C.ar    1  UNL1        0.1971
     17 N          -2.3531    2.0957    0.3939 N.ar    1  UNL1       -0.2144
     18 C          -3.5427    2.6742    0.1394 C.ar    1  UNL1        0.0909
     19 C          -3.8601    3.8173   -0.5636 C.ar    1  UNL1       -0.0342
     20 C          -5.1853    4.1880   -0.6707 C.ar    1  UNL1       -0.0596
     21 C          -6.1444    3.4069   -0.0741 C.ar    1  UNL1       -0.0597
     22 C          -5.7841    2.2818    0.6132 C.ar    1  UNL1       -0.0360
     23 C          -4.4592    1.8535    0.7573 C.ar    1  UNL1        0.0704
     24 N          -3.8206    0.8285    1.3532 N.ar    1  UNL1       -0.3075
     25 C          -4.4710   -0.2084    2.0893 C.3     1  UNL1        0.0514
     26 C          -4.8807   -1.3804    1.2951 C.ar    1  UNL1       -0.0275
     27 C          -4.0718   -2.4723    1.1070 C.ar    1  UNL1       -0.0542
     28 C          -4.4540   -3.5727    0.3635 C.ar    1  UNL1       -0.0261
     29 C          -5.6966   -3.6172   -0.2343 C.ar    1  UNL1        0.1234
     30 F          -6.1013   -4.6806   -0.9688 F       1  UNL1       -0.2055
     31 C          -6.5546   -2.5261   -0.0693 C.ar    1  UNL1       -0.0261
     32 C          -6.1019   -1.4559    0.6913 C.ar    1  UNL1       -0.0542
     33 C           5.7153   -1.9666   -1.3545 C.ar    1  UNL1       -0.0551
     34 C           6.9644   -1.4583   -1.0738 C.ar    1  UNL1       -0.0197
     35 H           8.5939    2.0484   -1.8488 H       1  UNL1        0.0660
     36 H           7.9547    2.2111   -0.1915 H       1  UNL1        0.0660
     37 H           9.7505    1.9612   -0.4182 H       1  UNL1        0.0660
     38 H           6.3466    1.8221   -1.3933 H       1  UNL1        0.0654
     39 H           4.1326    0.9393   -1.8912 H       1  UNL1        0.0621
     40 H           2.7730   -0.9654   -2.6537 H       1  UNL1        0.0326
     41 H           3.3659   -2.6273   -2.5306 H       1  UNL1        0.0326
     42 H           1.4937   -2.2705   -1.0020 H       1  UNL1        0.0430
     43 H           2.9256   -2.4828    0.0066 H       1  UNL1        0.0430
     44 H           2.0252    1.4586   -0.4907 H       1  UNL1        0.0427
     45 H           1.5085    0.3722   -1.8131 H       1  UNL1        0.0427
     46 H          -0.5258   -0.1732   -0.8213 H       1  UNL1        0.0295
     47 H          -0.2667    1.5607   -0.6166 H       1  UNL1        0.0295
     48 H           0.1124    1.5328    1.6554 H       1  UNL1        0.0499
     49 H           0.9115   -0.2039    2.9520 H       1  UNL1        0.0295
     50 H           0.3988   -1.5169    1.8597 H       1  UNL1        0.0295
     51 H           2.7591    0.4214    1.6780 H       1  UNL1        0.0427
     52 H           2.7262   -1.4013    1.7261 H       1  UNL1        0.0427
     53 H          -1.6723   -0.6856    2.1143 H       1  UNL1        0.1491
     54 H          -3.0586    4.3984   -1.0165 H       1  UNL1        0.0639
     55 H          -5.4197    5.0827   -1.2228 H       1  UNL1        0.0618
     56 H          -7.1658    3.7233   -0.1759 H       1  UNL1        0.0618
     57 H          -6.5596    1.6853    1.0740 H       1  UNL1        0.0639
     58 H          -5.3417    0.2469    2.6188 H       1  UNL1        0.0542
     59 H          -3.7813   -0.6114    2.8848 H       1  UNL1        0.0542
     60 H          -3.0895   -2.5232    1.5357 H       1  UNL1        0.0622
     61 H          -3.8453   -4.4460    0.1952 H       1  UNL1        0.0646
     62 H          -7.5142   -2.5853   -0.5432 H       1  UNL1        0.0646
     63 H          -6.8300   -0.6747    0.7572 H       1  UNL1        0.0622
     64 H           5.5429   -3.0419   -1.3428 H       1  UNL1        0.0621
     65 H           7.7651   -2.1694   -0.8406 H       1  UNL1        0.0654
@<TRIPOS>BOND
     1     1     2    1
     2     2     3    1
     3     3     4   ar
     4     4     5   ar
     5     5     6   ar
     6     6     7    1
     7     7     8    1
     8     8     9    1
     9     9    10    1
    10    10    11    1
    11    11    12    1
    12    12    13    1
    13    13    14    1
    14    12    15    1
    15    15    16    1
    16    16    17   ar
    17    17    18   ar
    18    18    19   ar
    19    19    20   ar
    20    20    21   ar
    21    21    22   ar
    22    22    23   ar
    23    23    24   ar
    24    24    25    1
    25    25    26    1
    26    26    27   ar
    27    27    28   ar
    28    28    29   ar
    29    29    30    1
    30    29    31   ar
    31    31    32   ar
    32     6    33   ar
    33    33    34   ar
    34    34     3   ar
    35    14     9    1
    36    24    16   ar
    37    32    26   ar
    38    23    18   ar
    39     1    35    1
    40     1    36    1
    41     1    37    1
    42     4    38    1
    43     5    39    1
    44     7    40    1
    45     7    41    1
    46     8    42    1
    47     8    43    1
    48    10    44    1
    49    10    45    1
    50    11    46    1
    51    11    47    1
    52    12    48    1
    53    13    49    1
    54    13    50    1
    55    14    51    1
    56    14    52    1
    57    15    53    1
    58    19    54    1
    59    20    55    1
    60    21    56    1
    61    22    57    1
    62    25    58    1
    63    25    59    1
    64    27    60    1
    65    28    61    1
    66    31    62    1
    67    32    63    1
    68    33    64    1
    69    34    65    1
