@<TRIPOS>MOLECULE
*****
 70 73 0 0 0
SMALL
GASTEIGER

@<TRIPOS>ATOM
      1 C           8.7306    3.1253   -0.1067 C.3     1  UNL1        0.0365
      2 O           7.5901    2.4098    0.2370 O.3     1  UNL1       -0.3814
      3 C           7.5747    1.2041   -0.4631 C.3     1  UNL1        0.0645
      4 C           6.3259    0.3914   -0.1000 C.3     1  UNL1        0.0552
      5 C           6.4989    0.0159    1.3608 C.3     1  UNL1       -0.0323
      6 C           7.0566   -1.4016    1.2506 C.3     1  UNL1       -0.0370
      7 C           6.2461   -1.9214    0.0547 C.3     1  UNL1        0.0209
      8 N           6.3860   -0.8143   -0.8523 N.3     1  UNL1       -0.1713
      9 S           5.2070   -0.8186   -2.0944 S.O2    1  UNL1        0.0612
     10 O           5.2489   -2.1019   -2.8960 O.2     1  UNL1       -0.1528
     11 O           5.4180    0.3274   -3.0588 O.2     1  UNL1       -0.1528
     12 C           3.6257   -0.6849   -1.3793 C.ar    1  UNL1        0.1063
     13 C           3.0185   -1.8384   -0.9310 C.ar    1  UNL1       -0.0335
     14 C           1.7477   -1.7124   -0.3687 C.ar    1  UNL1       -0.0377
     15 C           1.1059   -0.4935   -0.2557 C.ar    1  UNL1        0.0477
     16 C           1.7672    0.6221   -0.7233 C.ar    1  UNL1        0.0502
     17 C           3.0269    0.5481   -1.2885 C.ar    1  UNL1       -0.0226
     18 C           0.9006    1.7763   -0.4978 C.2     1  UNL1        0.2496
     19 O           1.1581    2.9906   -0.7953 O.2     1  UNL1       -0.2817
     20 C          -0.3109    1.2608    0.1325 C.2     1  UNL1        0.2913
     21 O          -1.3132    1.9673    0.4863 O.2     1  UNL1       -0.2661
     22 N          -0.1673   -0.1488    0.2755 N.am    1  UNL1       -0.2641
     23 C          -1.1629   -1.0526    0.8646 C.3     1  UNL1        0.0202
     24 C          -2.0584   -1.5175   -0.2597 C.3     1  UNL1       -0.0367
     25 C          -3.1314   -2.4524    0.1985 C.3     1  UNL1       -0.0516
     26 C          -4.0620   -1.8786    1.2178 C.3     1  UNL1       -0.0530
     27 C          -4.8067   -0.6601    0.7496 C.3     1  UNL1       -0.0531
     28 C          -5.6964   -0.2075    1.8872 C.3     1  UNL1       -0.0531
     29 C          -6.4959    1.0079    1.5485 C.3     1  UNL1       -0.0530
     30 C          -7.4237    0.8226    0.3655 C.3     1  UNL1       -0.0506
     31 C          -8.1459    2.1383    0.1692 C.3     1  UNL1       -0.0244
     32 C          -9.1067    2.0974   -0.9807 C.3     1  UNL1        0.0821
     33 C          -8.7112    1.8214   -2.3477 C.3     1  UNL1        0.0743
     34 O          -9.4071    0.8284   -1.4793 O.3     1  UNL1       -0.3717
     35 H           9.6631    2.5446    0.1493 H       1  UNL1        0.0523
     36 H           8.7951    4.0826    0.4181 H       1  UNL1        0.0523
     37 H           8.6990    3.2844   -1.2198 H       1  UNL1        0.0523
     38 H           7.6241    1.3431   -1.5533 H       1  UNL1        0.0576
     39 H           8.4367    0.5509   -0.1791 H       1  UNL1        0.0576
     40 H           5.4124    0.9806   -0.2551 H       1  UNL1        0.0502
     41 H           7.2318    0.6412    1.8757 H       1  UNL1        0.0282
     42 H           5.5154   -0.0490    1.8671 H       1  UNL1        0.0282
     43 H           8.1052   -1.4001    0.9516 H       1  UNL1        0.0279
     44 H           6.8373   -1.9987    2.1517 H       1  UNL1        0.0279
     45 H           5.2058   -2.0307    0.4575 H       1  UNL1        0.0444
     46 H           6.6593   -2.8562   -0.3430 H       1  UNL1        0.0444
     47 H           3.4660   -2.8207   -0.9908 H       1  UNL1        0.0638
     48 H           1.2183   -2.5820    0.0021 H       1  UNL1        0.0637
     49 H           3.5664    1.4004   -1.6683 H       1  UNL1        0.0645
     50 H          -0.6397   -1.9400    1.2555 H       1  UNL1        0.0469
     51 H          -1.6815   -0.4833    1.6385 H       1  UNL1        0.0469
     52 H          -2.4579   -0.6616   -0.8578 H       1  UNL1        0.0280
     53 H          -1.4103   -2.0834   -0.9643 H       1  UNL1        0.0280
     54 H          -2.6359   -3.3354    0.6526 H       1  UNL1        0.0266
     55 H          -3.6595   -2.8278   -0.7013 H       1  UNL1        0.0266
     56 H          -4.8176   -2.6551    1.4574 H       1  UNL1        0.0265
     57 H          -3.5066   -1.6755    2.1542 H       1  UNL1        0.0265
     58 H          -5.4499   -0.8750   -0.1279 H       1  UNL1        0.0265
     59 H          -4.1609    0.1801    0.4741 H       1  UNL1        0.0265
     60 H          -5.1267    0.0110    2.8037 H       1  UNL1        0.0265
     61 H          -6.4189   -1.0253    2.1787 H       1  UNL1        0.0265
     62 H          -7.0532    1.3061    2.4581 H       1  UNL1        0.0265
     63 H          -5.7528    1.8292    1.3250 H       1  UNL1        0.0265
     64 H          -8.1581    0.0414    0.6503 H       1  UNL1        0.0266
     65 H          -6.9087    0.4787   -0.5290 H       1  UNL1        0.0266
     66 H          -7.4113    2.9656    0.0711 H       1  UNL1        0.0291
     67 H          -8.7109    2.3382    1.1164 H       1  UNL1        0.0291
     68 H         -10.0135    2.7221   -0.8295 H       1  UNL1        0.0619
     69 H          -9.3541    2.1636   -3.1739 H       1  UNL1        0.0586
     70 H          -7.7414    1.4108   -2.6353 H       1  UNL1        0.0586
@<TRIPOS>BOND
     1     1     2    1
     2     2     3    1
     3     3     4    1
     4     4     5    1
     5     5     6    1
     6     6     7    1
     7     7     8    1
     8     8     9    1
     9     9    10    2
    10     9    11    2
    11     9    12    1
    12    12    13   ar
    13    13    14   ar
    14    14    15   ar
    15    15    16   ar
    16    16    17   ar
    17    16    18    1
    18    18    19    2
    19    18    20    1
    20    20    21    2
    21    20    22   am
    22    22    23    1
    23    23    24    1
    24    24    25    1
    25    25    26    1
    26    26    27    1
    27    27    28    1
    28    28    29    1
    29    29    30    1
    30    30    31    1
    31    31    32    1
    32    32    33    1
    33    33    34    1
    34     8     4    1
    35    17    12   ar
    36    34    32    1
    37    22    15    1
    38     1    35    1
    39     1    36    1
    40     1    37    1
    41     3    38    1
    42     3    39    1
    43     4    40    1
    44     5    41    1
    45     5    42    1
    46     6    43    1
    47     6    44    1
    48     7    45    1
    49     7    46    1
    50    13    47    1
    51    14    48    1
    52    17    49    1
    53    23    50    1
    54    23    51    1
    55    24    52    1
    56    24    53    1
    57    25    54    1
    58    25    55    1
    59    26    56    1
    60    26    57    1
    61    27    58    1
    62    27    59    1
    63    28    60    1
    64    28    61    1
    65    29    62    1
    66    29    63    1
    67    30    64    1
    68    30    65    1
    69    31    66    1
    70    31    67    1
    71    32    68    1
    72    33    69    1
    73    33    70    1
