@<TRIPOS>MOLECULE
*****
 34 36 0 0 0
SMALL
GASTEIGER

@<TRIPOS>ATOM
      1 O          -0.0935    0.5946   -2.2348 O.3     1  UNL1       -0.3802
      2 C          -0.3749    0.0640   -0.9468 C.3     1  UNL1        0.1323
      3 C          -1.2053   -1.2186   -1.1637 C.3     1  UNL1        0.0780
      4 N          -1.5342   -1.8331    0.0894 N.ar    1  UNL1       -0.2489
      5 C          -0.7932   -2.7512    0.7184 C.ar    1  UNL1        0.1144
      6 N          -1.4371   -3.0881    1.8732 N.ar    1  UNL1       -0.2228
      7 C          -2.5699   -2.3720    1.9425 C.ar    1  UNL1        0.1379
      8 N          -2.6030   -1.6109    0.8347 N.ar    1  UNL1       -0.1583
      9 C          -1.3356    1.0295   -0.3234 C.3     1  UNL1        0.0780
     10 N          -0.9003    2.3869   -0.2396 N.ar    1  UNL1       -0.2489
     11 C          -1.0955    3.2996   -1.2321 C.ar    1  UNL1        0.1144
     12 N          -0.5973    4.4826   -0.8357 N.ar    1  UNL1       -0.2228
     13 C          -0.0931    4.3218    0.3916 C.ar    1  UNL1        0.1379
     14 N          -0.2993    3.0495    0.7036 N.ar    1  UNL1       -0.1583
     15 C           0.8478   -0.2513   -0.2725 C.ar    1  UNL1        0.0228
     16 C           1.2490    0.1559    0.9660 C.ar    1  UNL1       -0.0503
     17 C           2.4372   -0.2473    1.5819 C.ar    1  UNL1       -0.0259
     18 C           3.2705   -1.1098    0.9177 C.ar    1  UNL1        0.1261
     19 F           4.4256   -1.5040    1.5127 F       1  UNL1       -0.2054
     20 C           2.9153   -1.5542   -0.3349 C.ar    1  UNL1        0.0092
     21 C           1.7403   -1.1367   -0.9107 C.ar    1  UNL1        0.1321
     22 F           1.4660   -1.6076   -2.1595 F       1  UNL1       -0.2050
     23 H           0.8893    0.7390   -2.3145 H       1  UNL1        0.2108
     24 H          -2.1944   -0.9265   -1.6369 H       1  UNL1        0.0542
     25 H          -0.7211   -1.8459   -1.9030 H       1  UNL1        0.0542
     26 H           0.1506   -3.1872    0.4199 H       1  UNL1        0.1044
     27 H          -3.2812   -2.4324    2.7508 H       1  UNL1        0.1065
     28 H          -1.6477    0.6427    0.6899 H       1  UNL1        0.0542
     29 H          -2.2916    0.9305   -0.9223 H       1  UNL1        0.0542
     30 H          -1.5645    3.1514   -2.1926 H       1  UNL1        0.1044
     31 H           0.3858    5.1231    0.9769 H       1  UNL1        0.1065
     32 H           0.6147    0.8002    1.5293 H       1  UNL1        0.0623
     33 H           2.6555    0.1393    2.5656 H       1  UNL1        0.0646
     34 H           3.5852   -2.2335   -0.8409 H       1  UNL1        0.0675
@<TRIPOS>BOND
     1     1     2    1
     2     2     3    1
     3     3     4    1
     4     4     5   ar
     5     5     6   ar
     6     6     7   ar
     7     7     8   ar
     8     2     9    1
     9     9    10    1
    10    10    11   ar
    11    11    12   ar
    12    12    13   ar
    13    13    14   ar
    14     2    15    1
    15    15    16   ar
    16    16    17   ar
    17    17    18   ar
    18    18    19    1
    19    18    20   ar
    20    20    21   ar
    21    21    22    1
    22     8     4   ar
    23    14    10   ar
    24    21    15   ar
    25     1    23    1
    26     3    24    1
    27     3    25    1
    28     5    26    1
    29     7    27    1
    30     9    28    1
    31     9    29    1
    32    11    30    1
    33    13    31    1
    34    16    32    1
    35    17    33    1
    36    20    34    1
