
     RDKit          3D

 34 36  0  0  0  0  0  0  0  0999 V2000
   -0.0935    0.5946   -2.2348 O   0  0  0  0  0  0  0  0  0  0  0  0
   -0.3749    0.0640   -0.9468 C   0  0  0  0  0  0  0  0  0  0  0  0
   -1.2053   -1.2186   -1.1637 C   0  0  0  0  0  0  0  0  0  0  0  0
   -1.5342   -1.8331    0.0894 N   0  0  0  0  0  0  0  0  0  0  0  0
   -0.7932   -2.7512    0.7184 C   0  0  0  0  0  0  0  0  0  0  0  0
   -1.4371   -3.0881    1.8732 N   0  0  0  0  0  0  0  0  0  0  0  0
   -2.5699   -2.3720    1.9425 C   0  0  0  0  0  0  0  0  0  0  0  0
   -2.6030   -1.6109    0.8347 N   0  0  0  0  0  0  0  0  0  0  0  0
   -1.3356    1.0295   -0.3234 C   0  0  0  0  0  0  0  0  0  0  0  0
   -0.9003    2.3869   -0.2396 N   0  0  0  0  0  0  0  0  0  0  0  0
   -1.0955    3.2996   -1.2321 C   0  0  0  0  0  0  0  0  0  0  0  0
   -0.5973    4.4826   -0.8357 N   0  0  0  0  0  0  0  0  0  0  0  0
   -0.0931    4.3218    0.3916 C   0  0  0  0  0  0  0  0  0  0  0  0
   -0.2993    3.0495    0.7036 N   0  0  0  0  0  0  0  0  0  0  0  0
    0.8478   -0.2513   -0.2725 C   0  0  0  0  0  0  0  0  0  0  0  0
    1.2490    0.1559    0.9660 C   0  0  0  0  0  0  0  0  0  0  0  0
    2.4372   -0.2473    1.5819 C   0  0  0  0  0  0  0  0  0  0  0  0
    3.2705   -1.1098    0.9177 C   0  0  0  0  0  0  0  0  0  0  0  0
    4.4256   -1.5040    1.5127 F   0  0  0  0  0  0  0  0  0  0  0  0
    2.9153   -1.5542   -0.3349 C   0  0  0  0  0  0  0  0  0  0  0  0
    1.7403   -1.1367   -0.9107 C   0  0  0  0  0  0  0  0  0  0  0  0
    1.4660   -1.6076   -2.1595 F   0  0  0  0  0  0  0  0  0  0  0  0
    0.8893    0.7390   -2.3145 H   0  0  0  0  0  0  0  0  0  0  0  0
   -2.1944   -0.9265   -1.6369 H   0  0  0  0  0  0  0  0  0  0  0  0
   -0.7211   -1.8459   -1.9030 H   0  0  0  0  0  0  0  0  0  0  0  0
    0.1506   -3.1872    0.4199 H   0  0  0  0  0  0  0  0  0  0  0  0
   -3.2812   -2.4324    2.7508 H   0  0  0  0  0  0  0  0  0  0  0  0
   -1.6477    0.6427    0.6899 H   0  0  0  0  0  0  0  0  0  0  0  0
   -2.2916    0.9305   -0.9223 H   0  0  0  0  0  0  0  0  0  0  0  0
   -1.5645    3.1514   -2.1926 H   0  0  0  0  0  0  0  0  0  0  0  0
    0.3858    5.1231    0.9769 H   0  0  0  0  0  0  0  0  0  0  0  0
    0.6147    0.8002    1.5293 H   0  0  0  0  0  0  0  0  0  0  0  0
    2.6555    0.1393    2.5656 H   0  0  0  0  0  0  0  0  0  0  0  0
    3.5852   -2.2335   -0.8409 H   0  0  0  0  0  0  0  0  0  0  0  0
  1  2  1  0
  2  3  1  0
  3  4  1  0
  4  5  1  0
  5  6  2  0
  6  7  1  0
  7  8  2  0
  2  9  1  0
  9 10  1  0
 10 11  1  0
 11 12  2  0
 12 13  1  0
 13 14  2  0
  2 15  1  0
 15 16  2  0
 16 17  1  0
 17 18  2  0
 18 19  1  0
 18 20  1  0
 20 21  2  0
 21 22  1  0
  8  4  1  0
 14 10  1  0
 21 15  1  0
  1 23  1  0
  3 24  1  0
  3 25  1  0
  5 26  1  0
  7 27  1  0
  9 28  1  0
  9 29  1  0
 11 30  1  0
 13 31  1  0
 16 32  1  0
 17 33  1  0
 20 34  1  0
M  END
$$$$
