@<TRIPOS>MOLECULE
*****
 57 61 0 0 0
SMALL
GASTEIGER

@<TRIPOS>ATOM
      1 C           0.9253   -0.6763    0.8815 C.3     1  UNL1       -0.0248
      2 C           1.7375   -0.9052    2.0855 C.3     1  UNL1       -0.0303
      3 C           3.0887   -0.9904    1.4882 C.2     1  UNL1       -0.0794
      4 C           3.1485   -0.3221    0.3151 C.2     1  UNL1       -0.0365
      5 C           4.4504   -0.3546   -0.3412 C.ar    1  UNL1       -0.0035
      6 C           5.5401   -1.0525    0.1240 C.ar    1  UNL1       -0.0514
      7 C           6.7629   -1.0462   -0.5159 C.ar    1  UNL1       -0.0430
      8 C           6.9590   -0.3276   -1.6752 C.ar    1  UNL1        0.0276
      9 N           5.8919    0.3663   -2.1460 N.ar    1  UNL1       -0.2627
     10 C           4.7310    0.3337   -1.4988 C.ar    1  UNL1        0.0350
     11 C           1.8306    0.2370    0.0621 C.3     1  UNL1       -0.0034
     12 C           1.8213    1.6557    0.5771 C.3     1  UNL1       -0.0553
     13 C           1.2620    0.1093   -1.3103 C.3     1  UNL1       -0.0430
     14 C          -0.1641    0.6818   -1.2538 C.3     1  UNL1       -0.0484
     15 C          -1.0503   -0.0736   -0.3138 C.3     1  UNL1       -0.0285
     16 C          -0.4527   -0.1693    1.0787 C.3     1  UNL1       -0.0301
     17 C          -1.2214   -1.2856    1.7875 C.3     1  UNL1       -0.0311
     18 C          -2.6602   -0.8757    1.7532 C.2     1  UNL1       -0.0839
     19 C          -3.1973   -0.0484    0.8483 C.2     1  UNL1       -0.0648
     20 C          -4.6473    0.2896    0.9130 C.3     1  UNL1       -0.0051
     21 C          -5.3034   -0.3237   -0.3103 C.3     1  UNL1        0.0590
     22 O          -6.2486    0.5467   -0.8558 O.3     1  UNL1       -0.3915
     23 C          -4.2659   -0.7341   -1.3248 C.3     1  UNL1       -0.0258
     24 C          -3.2090    0.3338   -1.5150 C.3     1  UNL1       -0.0413
     25 C          -2.3906    0.5778   -0.2651 C.3     1  UNL1       -0.0078
     26 C          -2.3322    2.0439    0.0221 C.3     1  UNL1       -0.0556
     27 H           0.8348   -1.6282    0.2997 H       1  UNL1        0.0315
     28 H           1.6691   -0.0044    2.7361 H       1  UNL1        0.0311
     29 H           1.4756   -1.8331    2.6358 H       1  UNL1        0.0311
     30 H           3.8178   -1.5670    2.0787 H       1  UNL1        0.0575
     31 H           5.4885   -1.6414    1.0157 H       1  UNL1        0.0624
     32 H           7.5928   -1.6100   -0.1141 H       1  UNL1        0.0633
     33 H           7.9370   -0.3592   -2.1334 H       1  UNL1        0.0829
     34 H           4.0171    0.9341   -1.9959 H       1  UNL1        0.0835
     35 H           0.9382    1.9424    1.1449 H       1  UNL1        0.0238
     36 H           2.7036    1.8688    1.2184 H       1  UNL1        0.0238
     37 H           1.8719    2.3986   -0.2695 H       1  UNL1        0.0238
     38 H           1.7478    0.6223   -2.1224 H       1  UNL1        0.0274
     39 H           1.2324   -0.9687   -1.5586 H       1  UNL1        0.0274
     40 H          -0.6202    0.6937   -2.2450 H       1  UNL1        0.0269
     41 H          -0.0153    1.7134   -0.8236 H       1  UNL1        0.0269
     42 H          -1.1622   -1.1108   -0.7020 H       1  UNL1        0.0312
     43 H          -0.5866    0.7123    1.6949 H       1  UNL1        0.0310
     44 H          -0.8638   -1.4162    2.8200 H       1  UNL1        0.0310
     45 H          -1.0994   -2.2032    1.1945 H       1  UNL1        0.0310
     46 H          -3.3239   -1.2823    2.5256 H       1  UNL1        0.0572
     47 H          -5.0761   -0.1460    1.8427 H       1  UNL1        0.0335
     48 H          -4.8492    1.3737    0.9723 H       1  UNL1        0.0335
     49 H          -5.8396   -1.2412    0.0087 H       1  UNL1        0.0596
     50 H          -6.8814    0.7718   -0.1289 H       1  UNL1        0.2098
     51 H          -3.8299   -1.7275   -1.0888 H       1  UNL1        0.0290
     52 H          -4.7686   -0.8325   -2.3086 H       1  UNL1        0.0290
     53 H          -2.5576   -0.0102   -2.3449 H       1  UNL1        0.0274
     54 H          -3.7543    1.2605   -1.7722 H       1  UNL1        0.0274
     55 H          -3.3784    2.4325    0.0369 H       1  UNL1        0.0238
     56 H          -1.8807    2.2535    1.0046 H       1  UNL1        0.0238
     57 H          -1.8454    2.6138   -0.8114 H       1  UNL1        0.0238
@<TRIPOS>BOND
     1     1     2    1
     2     2     3    1
     3     3     4    2
     4     4     5    1
     5     5     6   ar
     6     6     7   ar
     7     7     8   ar
     8     8     9   ar
     9     9    10   ar
    10     4    11    1
    11    11    12    1
    12    11    13    1
    13    13    14    1
    14    14    15    1
    15    15    16    1
    16    16    17    1
    17    17    18    1
    18    18    19    2
    19    19    20    1
    20    20    21    1
    21    21    22    1
    22    21    23    1
    23    23    24    1
    24    24    25    1
    25    25    26    1
    26    11     1    1
    27    25    15    1
    28    16     1    1
    29    25    19    1
    30    10     5   ar
    31     1    27    1
    32     2    28    1
    33     2    29    1
    34     3    30    1
    35     6    31    1
    36     7    32    1
    37     8    33    1
    38    10    34    1
    39    12    35    1
    40    12    36    1
    41    12    37    1
    42    13    38    1
    43    13    39    1
    44    14    40    1
    45    14    41    1
    46    15    42    1
    47    16    43    1
    48    17    44    1
    49    17    45    1
    50    18    46    1
    51    20    47    1
    52    20    48    1
    53    21    49    1
    54    22    50    1
    55    23    51    1
    56    23    52    1
    57    24    53    1
    58    24    54    1
    59    26    55    1
    60    26    56    1
    61    26    57    1
