
     RDKit          3D

 21 22  0  0  0  0  0  0  0  0999 V2000
   -2.2902    1.0028    0.9936 N   0  0  0  0  0  0  0  0  0  0  0  0
   -2.2335   -0.2383    0.2836 C   0  0  0  0  0  0  0  0  0  0  0  0
   -1.8692   -0.2130   -1.1570 C   0  0  0  0  0  0  0  0  0  0  0  0
   -1.0306   -0.9502   -0.0834 C   0  0  0  0  0  0  0  0  0  0  0  0
    0.3354   -0.4514   -0.0115 C   0  0  0  0  0  0  0  0  0  0  0  0
    1.4039   -1.3571   -0.0082 C   0  0  0  0  0  0  0  0  0  0  0  0
    2.7258   -0.9079    0.0601 C   0  0  0  0  0  0  0  0  0  0  0  0
    2.9604    0.4313    0.1237 C   0  0  0  0  0  0  0  0  0  0  0  0
    1.9133    1.3495    0.1217 C   0  0  0  0  0  0  0  0  0  0  0  0
    0.6379    0.8866    0.0547 C   0  0  0  0  0  0  0  0  0  0  0  0
   -2.4914    1.8400    0.4072 H   0  0  0  0  0  0  0  0  0  0  0  0
   -2.8727    0.9671    1.8595 H   0  0  0  0  0  0  0  0  0  0  0  0
   -3.1349   -0.8592    0.5027 H   0  0  0  0  0  0  0  0  0  0  0  0
   -2.3381   -0.8752   -1.8949 H   0  0  0  0  0  0  0  0  0  0  0  0
   -1.5070    0.7529   -1.5306 H   0  0  0  0  0  0  0  0  0  0  0  0
   -1.0599   -2.0744   -0.1307 H   0  0  0  0  0  0  0  0  0  0  0  0
    1.2602   -2.4351   -0.0577 H   0  0  0  0  0  0  0  0  0  0  0  0
    3.5320   -1.6264    0.0611 H   0  0  0  0  0  0  0  0  0  0  0  0
    3.9930    0.7330    0.1750 H   0  0  0  0  0  0  0  0  0  0  0  0
    2.1915    2.3865    0.1746 H   0  0  0  0  0  0  0  0  0  0  0  0
   -0.1257    1.6384    0.0566 H   0  0  0  0  0  0  0  0  0  0  0  0
  1  2  1  0
  2  3  1  0
  3  4  1  0
  4  5  1  0
  5  6  2  0
  6  7  1  0
  7  8  2  0
  8  9  1  0
  9 10  2  0
  4  2  1  0
 10  5  1  0
  1 11  1  0
  1 12  1  0
  2 13  1  0
  3 14  1  0
  3 15  1  0
  4 16  1  0
  6 17  1  0
  7 18  1  0
  8 19  1  0
  9 20  1  0
 10 21  1  0
M  END
$$$$
