@<TRIPOS>MOLECULE
*****
 36 38 0 0 0
SMALL
GASTEIGER

@<TRIPOS>ATOM
      1 C          -0.5163   -3.6716   -1.2393 C.3     1  UNL1       -0.0031
      2 C           0.7389   -2.8608   -1.0478 C.ar    1  UNL1        0.1425
      3 O           1.9664   -3.2091   -1.2624 O.2     1  UNL1       -0.3587
      4 N           2.7984   -2.2537   -0.9880 N.ar    1  UNL1       -0.0774
      5 C           2.1132   -1.1533   -0.5486 C.ar    1  UNL1        0.1213
      6 C           2.7108    0.1103   -0.1296 C.ar    1  UNL1        0.0043
      7 C           2.4959    1.3207   -0.7381 C.ar    1  UNL1       -0.0524
      8 C           3.1242    2.4739   -0.2525 C.ar    1  UNL1       -0.0611
      9 C           3.9578    2.4411    0.8218 C.ar    1  UNL1       -0.0617
     10 C           4.1866    1.2333    1.4465 C.ar    1  UNL1       -0.0611
     11 C           3.5657    0.1104    0.9625 C.ar    1  UNL1       -0.0524
     12 C           0.7945   -1.5421   -0.5873 C.ar    1  UNL1        0.0516
     13 C          -0.3706   -0.7498   -0.2323 C.ar    1  UNL1       -0.0123
     14 C          -0.7941    0.2556   -1.0713 C.ar    1  UNL1       -0.0520
     15 C          -1.8954    1.0480   -0.7835 C.ar    1  UNL1       -0.0348
     16 C          -2.6198    0.8542    0.3741 C.ar    1  UNL1        0.1050
     17 S          -4.0106    1.8458    0.7567 S.O2    1  UNL1        0.0559
     18 N          -5.4285    1.1074    0.0539 N.3     1  UNL1       -0.2035
     19 O          -3.8386    3.2606    0.2882 O.2     1  UNL1       -0.1533
     20 O          -4.1908    1.8387    2.2464 O.2     1  UNL1       -0.1533
     21 C          -2.1883   -0.1583    1.2113 C.ar    1  UNL1       -0.0348
     22 C          -1.0928   -0.9470    0.9260 C.ar    1  UNL1       -0.0520
     23 H          -0.2762   -4.7476   -1.1359 H       1  UNL1        0.0309
     24 H          -0.9652   -3.4970   -2.2132 H       1  UNL1        0.0309
     25 H          -1.2154   -3.4528   -0.3813 H       1  UNL1        0.0309
     26 H           1.8465    1.3624   -1.5873 H       1  UNL1        0.0624
     27 H           2.9452    3.4260   -0.7430 H       1  UNL1        0.0618
     28 H           4.4239    3.3641    1.1605 H       1  UNL1        0.0618
     29 H           4.8567    1.2528    2.2954 H       1  UNL1        0.0618
     30 H           3.7565   -0.8262    1.4648 H       1  UNL1        0.0624
     31 H          -0.2780    0.4641   -2.0140 H       1  UNL1        0.0624
     32 H          -2.2289    1.8480   -1.4523 H       1  UNL1        0.0637
     33 H          -5.2262    0.0685    0.0350 H       1  UNL1        0.1442
     34 H          -5.5915    1.4164   -0.9125 H       1  UNL1        0.1442
     35 H          -2.7731   -0.3011    2.1265 H       1  UNL1        0.0637
     36 H          -0.7809   -1.7322    1.6026 H       1  UNL1        0.0624
@<TRIPOS>BOND
     1     1     2    1
     2     2     3   ar
     3     3     4   ar
     4     4     5   ar
     5     5     6    1
     6     6     7   ar
     7     7     8   ar
     8     8     9   ar
     9     9    10   ar
    10    10    11   ar
    11     5    12   ar
    12    12    13    1
    13    13    14   ar
    14    14    15   ar
    15    15    16   ar
    16    16    17    1
    17    17    18    1
    18    17    19    2
    19    17    20    2
    20    16    21   ar
    21    21    22   ar
    22    12     2   ar
    23    22    13   ar
    24    11     6   ar
    25     1    23    1
    26     1    24    1
    27     1    25    1
    28     7    26    1
    29     8    27    1
    30     9    28    1
    31    10    29    1
    32    11    30    1
    33    14    31    1
    34    15    32    1
    35    18    33    1
    36    18    34    1
    37    21    35    1
    38    22    36    1
