
     RDKit          3D

 36 38  0  0  0  0  0  0  0  0999 V2000
   -0.5163   -3.6716   -1.2393 C   0  0  0  0  0  0  0  0  0  0  0  0
    0.7389   -2.8608   -1.0478 C   0  0  0  0  0  0  0  0  0  0  0  0
    1.9664   -3.2091   -1.2624 O   0  0  0  0  0  0  0  0  0  0  0  0
    2.7984   -2.2537   -0.9880 N   0  0  0  0  0  0  0  0  0  0  0  0
    2.1132   -1.1533   -0.5486 C   0  0  0  0  0  0  0  0  0  0  0  0
    2.7108    0.1103   -0.1296 C   0  0  0  0  0  0  0  0  0  0  0  0
    2.4959    1.3207   -0.7381 C   0  0  0  0  0  0  0  0  0  0  0  0
    3.1242    2.4739   -0.2525 C   0  0  0  0  0  0  0  0  0  0  0  0
    3.9578    2.4411    0.8218 C   0  0  0  0  0  0  0  0  0  0  0  0
    4.1866    1.2333    1.4465 C   0  0  0  0  0  0  0  0  0  0  0  0
    3.5657    0.1104    0.9625 C   0  0  0  0  0  0  0  0  0  0  0  0
    0.7945   -1.5421   -0.5873 C   0  0  0  0  0  0  0  0  0  0  0  0
   -0.3706   -0.7498   -0.2323 C   0  0  0  0  0  0  0  0  0  0  0  0
   -0.7941    0.2556   -1.0713 C   0  0  0  0  0  0  0  0  0  0  0  0
   -1.8954    1.0480   -0.7835 C   0  0  0  0  0  0  0  0  0  0  0  0
   -2.6198    0.8542    0.3741 C   0  0  0  0  0  0  0  0  0  0  0  0
   -4.0106    1.8458    0.7567 S   0  0  0  0  0  6  0  0  0  0  0  0
   -5.4285    1.1074    0.0539 N   0  0  0  0  0  0  0  0  0  0  0  0
   -3.8386    3.2606    0.2882 O   0  0  0  0  0  0  0  0  0  0  0  0
   -4.1908    1.8387    2.2464 O   0  0  0  0  0  0  0  0  0  0  0  0
   -2.1883   -0.1583    1.2113 C   0  0  0  0  0  0  0  0  0  0  0  0
   -1.0928   -0.9470    0.9260 C   0  0  0  0  0  0  0  0  0  0  0  0
   -0.2762   -4.7476   -1.1359 H   0  0  0  0  0  0  0  0  0  0  0  0
   -0.9652   -3.4970   -2.2132 H   0  0  0  0  0  0  0  0  0  0  0  0
   -1.2154   -3.4528   -0.3813 H   0  0  0  0  0  0  0  0  0  0  0  0
    1.8465    1.3624   -1.5873 H   0  0  0  0  0  0  0  0  0  0  0  0
    2.9452    3.4260   -0.7430 H   0  0  0  0  0  0  0  0  0  0  0  0
    4.4239    3.3641    1.1605 H   0  0  0  0  0  0  0  0  0  0  0  0
    4.8567    1.2528    2.2954 H   0  0  0  0  0  0  0  0  0  0  0  0
    3.7565   -0.8262    1.4648 H   0  0  0  0  0  0  0  0  0  0  0  0
   -0.2780    0.4641   -2.0140 H   0  0  0  0  0  0  0  0  0  0  0  0
   -2.2289    1.8480   -1.4523 H   0  0  0  0  0  0  0  0  0  0  0  0
   -5.2262    0.0685    0.0350 H   0  0  0  0  0  0  0  0  0  0  0  0
   -5.5915    1.4164   -0.9125 H   0  0  0  0  0  0  0  0  0  0  0  0
   -2.7731   -0.3011    2.1265 H   0  0  0  0  0  0  0  0  0  0  0  0
   -0.7809   -1.7322    1.6026 H   0  0  0  0  0  0  0  0  0  0  0  0
  1  2  1  0
  2  3  1  0
  3  4  1  0
  4  5  2  0
  5  6  1  0
  6  7  2  0
  7  8  1  0
  8  9  2  0
  9 10  1  0
 10 11  2  0
  5 12  1  0
 12 13  1  0
 13 14  2  0
 14 15  1  0
 15 16  2  0
 16 17  1  0
 17 18  1  0
 17 19  2  0
 17 20  2  0
 16 21  1  0
 21 22  2  0
 12  2  2  0
 22 13  1  0
 11  6  1  0
  1 23  1  0
  1 24  1  0
  1 25  1  0
  7 26  1  0
  8 27  1  0
  9 28  1  0
 10 29  1  0
 11 30  1  0
 14 31  1  0
 15 32  1  0
 18 33  1  0
 18 34  1  0
 21 35  1  0
 22 36  1  0
M  END
$$$$
