@<TRIPOS>MOLECULE
*****
 60 64 0 0 0
SMALL
GASTEIGER

@<TRIPOS>ATOM
      1 C          -8.8387   -2.5382   -3.0558 C.3     1  UNL1        0.0788
      2 O          -7.6400   -2.1424   -2.4248 O.3     1  UNL1       -0.4951
      3 C          -7.4570   -0.8345   -2.0277 C.ar    1  UNL1        0.1208
      4 C          -8.4122    0.1293   -2.2221 C.ar    1  UNL1       -0.0180
      5 C          -8.2074    1.4327   -1.8158 C.ar    1  UNL1       -0.0343
      6 C          -7.0388    1.7821   -1.2096 C.ar    1  UNL1        0.0479
      7 N          -6.6159    2.9309   -0.7219 N.ar    1  UNL1       -0.3486
      8 CA         -5.3695    2.7699   -0.1926 C.ar    1  UNL1        0.1325
      9 C          -4.6046    3.8372    0.4191 C.2     1  UNL1        0.3539
     10 O          -5.1237    5.0129    0.4853 O.2     1  UNL1       -0.2435
     11 OXT        -3.3467    3.6651    0.9351 O.3     1  UNL1       -0.4761
     12 C          -4.9695    1.4302   -0.3527 C.ar    1  UNL1        0.0147
     13 C          -3.7302    0.9005    0.1452 C.2     1  UNL1       -0.0469
     14 C          -3.1824   -0.2204   -0.2139 C.2     1  UNL1        0.0011
     15 C          -1.8975   -0.6641    0.3795 C.2     1  UNL1        0.2411
     16 O          -1.3845   -1.7744    0.0042 O.2     1  UNL1       -0.2705
     17 N          -1.1874    0.0680    1.3487 N.am    1  UNL1       -0.2820
     18 C           0.0571   -0.4731    1.8505 C.ar    1  UNL1        0.0342
     19 C           0.0071   -1.2939    2.9568 C.ar    1  UNL1       -0.0404
     20 C           1.1960   -1.8049    3.4282 C.ar    1  UNL1       -0.0595
     21 C           2.4050   -1.4923    2.7950 C.ar    1  UNL1       -0.0545
     22 C           2.4555   -0.6750    1.6932 C.ar    1  UNL1       -0.0232
     23 C           3.6861   -0.3130    0.9899 C.2     1  UNL1       -0.0525
     24 C           4.8893   -0.7190    1.3184 C.2     1  UNL1       -0.0357
     25 C           6.1240   -0.3522    0.6080 C.ar    1  UNL1        0.0646
     26 C           6.1541    0.4684   -0.4945 C.ar    1  UNL1       -0.0357
     27 C           7.3739    0.7705   -1.1158 C.ar    1  UNL1       -0.0506
     28 C           8.5337    0.2271   -0.5958 C.ar    1  UNL1        0.0005
     29 C           9.7749    0.4753   -1.1488 C.ar    1  UNL1       -0.0512
     30 C          10.9181   -0.0733   -0.6188 C.ar    1  UNL1       -0.0427
     31 C          10.8755   -0.8928    0.4845 C.ar    1  UNL1        0.0430
     32 CL         12.3297   -1.5987    1.1694 Cl      1  UNL1       -0.0835
     33 C           9.6571   -1.1559    1.0533 C.ar    1  UNL1       -0.0174
     34 C           8.4917   -0.5977    0.5145 C.ar    1  UNL1        0.0730
     35 N           7.2934   -0.8428    1.0558 N.ar    1  UNL1       -0.2472
     36 C           1.2520   -0.1710    1.2337 C.ar    1  UNL1       -0.0333
     37 C          -6.0540    0.8369   -0.9991 C.ar    1  UNL1        0.0111
     38 C          -6.2589   -0.4600   -1.4020 C.ar    1  UNL1       -0.0102
     39 H          -9.7202   -2.4232   -2.3888 H       1  UNL1        0.0660
     40 H          -8.7516   -3.6145   -3.3037 H       1  UNL1        0.0660
     41 H          -8.9964   -1.9356   -3.9575 H       1  UNL1        0.0660
     42 H          -9.3358   -0.1706   -2.7075 H       1  UNL1        0.0655
     43 H          -8.9794    2.2018   -1.9747 H       1  UNL1        0.0639
     44 H          -7.1368    3.8286   -0.7305 H       1  UNL1        0.1661
     45 HXT        -2.6563    4.4177    0.8030 H       1  UNL1        0.2955
     46 H          -3.2326    1.5201    0.9261 H       1  UNL1        0.0626
     47 H          -3.6023   -0.8424   -0.9664 H       1  UNL1        0.0670
     48 H          -1.5339    0.9769    1.7063 H       1  UNL1        0.1551
     49 H          -0.9518   -1.5065    3.4119 H       1  UNL1        0.0636
     50 H           1.1855   -2.4576    4.3028 H       1  UNL1        0.0618
     51 H           3.3135   -1.9091    3.1904 H       1  UNL1        0.0623
     52 H           3.6272    0.3494    0.1147 H       1  UNL1        0.0624
     53 H           4.9498   -1.3751    2.1848 H       1  UNL1        0.0639
     54 H           5.2399    0.8899   -0.8953 H       1  UNL1        0.0639
     55 H           7.4132    1.4146   -1.9840 H       1  UNL1        0.0625
     56 H           9.8231    1.1122   -2.0088 H       1  UNL1        0.0625
     57 H          11.8931    0.1177   -1.0479 H       1  UNL1        0.0632
     58 H           9.5663   -1.8036    1.9355 H       1  UNL1        0.0653
     59 H           1.2665    0.4748    0.3676 H       1  UNL1        0.0642
     60 H          -5.5366   -1.2349   -1.2350 H       1  UNL1        0.0661
@<TRIPOS>BOND
     1     1     2    1
     2     2     3    1
     3     3     4   ar
     4     4     5   ar
     5     5     6   ar
     6     6     7   ar
     7     7     8   ar
     8     8     9    1
     9     9    10    2
    10     9    11    1
    11     8    12   ar
    12    12    13    1
    13    13    14    2
    14    14    15    1
    15    15    16    2
    16    15    17   am
    17    17    18    1
    18    18    19   ar
    19    19    20   ar
    20    20    21   ar
    21    21    22   ar
    22    22    23    1
    23    23    24    2
    24    24    25    1
    25    25    26   ar
    26    26    27   ar
    27    27    28   ar
    28    28    29   ar
    29    29    30   ar
    30    30    31   ar
    31    31    32    1
    32    31    33   ar
    33    33    34   ar
    34    34    35   ar
    35    22    36   ar
    36    12    37   ar
    37    37    38   ar
    38    38     3   ar
    39    37     6   ar
    40    36    18   ar
    41    35    25   ar
    42    34    28   ar
    43     1    39    1
    44     1    40    1
    45     1    41    1
    46     4    42    1
    47     5    43    1
    48     7    44    1
    49    11    45    1
    50    13    46    1
    51    14    47    1
    52    17    48    1
    53    19    49    1
    54    20    50    1
    55    21    51    1
    56    23    52    1
    57    24    53    1
    58    26    54    1
    59    27    55    1
    60    29    56    1
    61    30    57    1
    62    33    58    1
    63    36    59    1
    64    38    60    1
