
     RDKit          3D

 60 64  0  0  0  0  0  0  0  0999 V2000
   -8.8387   -2.5382   -3.0558 C   0  0  0  0  0  0  0  0  0  0  0  0
   -7.6400   -2.1424   -2.4248 O   0  0  0  0  0  0  0  0  0  0  0  0
   -7.4570   -0.8345   -2.0277 C   0  0  0  0  0  0  0  0  0  0  0  0
   -8.4122    0.1293   -2.2221 C   0  0  0  0  0  0  0  0  0  0  0  0
   -8.2074    1.4327   -1.8158 C   0  0  0  0  0  0  0  0  0  0  0  0
   -7.0388    1.7821   -1.2096 C   0  0  0  0  0  0  0  0  0  0  0  0
   -6.6159    2.9309   -0.7219 N   0  0  0  0  0  0  0  0  0  0  0  0
   -5.3695    2.7699   -0.1926 C   0  0  0  0  0  0  0  0  0  0  0  0
   -4.6046    3.8372    0.4191 C   0  0  0  0  0  0  0  0  0  0  0  0
   -5.1237    5.0129    0.4853 O   0  0  0  0  0  0  0  0  0  0  0  0
   -3.3467    3.6651    0.9351 O   0  0  0  0  0  0  0  0  0  0  0  0
   -4.9695    1.4302   -0.3527 C   0  0  0  0  0  0  0  0  0  0  0  0
   -3.7302    0.9005    0.1452 C   0  0  0  0  0  0  0  0  0  0  0  0
   -3.1824   -0.2204   -0.2139 C   0  0  0  0  0  0  0  0  0  0  0  0
   -1.8975   -0.6641    0.3795 C   0  0  0  0  0  0  0  0  0  0  0  0
   -1.3845   -1.7744    0.0042 O   0  0  0  0  0  0  0  0  0  0  0  0
   -1.1874    0.0680    1.3487 N   0  0  0  0  0  0  0  0  0  0  0  0
    0.0571   -0.4731    1.8505 C   0  0  0  0  0  0  0  0  0  0  0  0
    0.0071   -1.2939    2.9568 C   0  0  0  0  0  0  0  0  0  0  0  0
    1.1960   -1.8049    3.4282 C   0  0  0  0  0  0  0  0  0  0  0  0
    2.4050   -1.4923    2.7950 C   0  0  0  0  0  0  0  0  0  0  0  0
    2.4555   -0.6750    1.6932 C   0  0  0  0  0  0  0  0  0  0  0  0
    3.6861   -0.3130    0.9899 C   0  0  0  0  0  0  0  0  0  0  0  0
    4.8893   -0.7190    1.3184 C   0  0  0  0  0  0  0  0  0  0  0  0
    6.1240   -0.3522    0.6080 C   0  0  0  0  0  0  0  0  0  0  0  0
    6.1541    0.4684   -0.4945 C   0  0  0  0  0  0  0  0  0  0  0  0
    7.3739    0.7705   -1.1158 C   0  0  0  0  0  0  0  0  0  0  0  0
    8.5337    0.2271   -0.5958 C   0  0  0  0  0  0  0  0  0  0  0  0
    9.7749    0.4753   -1.1488 C   0  0  0  0  0  0  0  0  0  0  0  0
   10.9181   -0.0733   -0.6188 C   0  0  0  0  0  0  0  0  0  0  0  0
   10.8755   -0.8928    0.4845 C   0  0  0  0  0  0  0  0  0  0  0  0
   12.3297   -1.5987    1.1694 Cl  0  0  0  0  0  0  0  0  0  0  0  0
    9.6571   -1.1559    1.0533 C   0  0  0  0  0  0  0  0  0  0  0  0
    8.4917   -0.5977    0.5145 C   0  0  0  0  0  0  0  0  0  0  0  0
    7.2934   -0.8428    1.0558 N   0  0  0  0  0  0  0  0  0  0  0  0
    1.2520   -0.1710    1.2337 C   0  0  0  0  0  0  0  0  0  0  0  0
   -6.0540    0.8369   -0.9991 C   0  0  0  0  0  0  0  0  0  0  0  0
   -6.2589   -0.4600   -1.4020 C   0  0  0  0  0  0  0  0  0  0  0  0
   -9.7202   -2.4232   -2.3888 H   0  0  0  0  0  0  0  0  0  0  0  0
   -8.7516   -3.6145   -3.3037 H   0  0  0  0  0  0  0  0  0  0  0  0
   -8.9964   -1.9356   -3.9575 H   0  0  0  0  0  0  0  0  0  0  0  0
   -9.3358   -0.1706   -2.7075 H   0  0  0  0  0  0  0  0  0  0  0  0
   -8.9794    2.2018   -1.9747 H   0  0  0  0  0  0  0  0  0  0  0  0
   -7.1368    3.8286   -0.7305 H   0  0  0  0  0  0  0  0  0  0  0  0
   -2.6563    4.4177    0.8030 H   0  0  0  0  0  0  0  0  0  0  0  0
   -3.2326    1.5201    0.9261 H   0  0  0  0  0  0  0  0  0  0  0  0
   -3.6023   -0.8424   -0.9664 H   0  0  0  0  0  0  0  0  0  0  0  0
   -1.5339    0.9769    1.7063 H   0  0  0  0  0  0  0  0  0  0  0  0
   -0.9518   -1.5065    3.4119 H   0  0  0  0  0  0  0  0  0  0  0  0
    1.1855   -2.4576    4.3028 H   0  0  0  0  0  0  0  0  0  0  0  0
    3.3135   -1.9091    3.1904 H   0  0  0  0  0  0  0  0  0  0  0  0
    3.6272    0.3494    0.1147 H   0  0  0  0  0  0  0  0  0  0  0  0
    4.9498   -1.3751    2.1848 H   0  0  0  0  0  0  0  0  0  0  0  0
    5.2399    0.8899   -0.8953 H   0  0  0  0  0  0  0  0  0  0  0  0
    7.4132    1.4146   -1.9840 H   0  0  0  0  0  0  0  0  0  0  0  0
    9.8231    1.1122   -2.0088 H   0  0  0  0  0  0  0  0  0  0  0  0
   11.8931    0.1177   -1.0479 H   0  0  0  0  0  0  0  0  0  0  0  0
    9.5663   -1.8036    1.9355 H   0  0  0  0  0  0  0  0  0  0  0  0
    1.2665    0.4748    0.3676 H   0  0  0  0  0  0  0  0  0  0  0  0
   -5.5366   -1.2349   -1.2350 H   0  0  0  0  0  0  0  0  0  0  0  0
  1  2  1  0
  2  3  1  0
  3  4  2  0
  4  5  1  0
  5  6  2  0
  6  7  1  0
  7  8  1  0
  8  9  1  0
  9 10  2  0
  9 11  1  0
  8 12  2  0
 12 13  1  0
 13 14  2  0
 14 15  1  0
 15 16  2  0
 15 17  1  0
 17 18  1  0
 18 19  2  0
 19 20  1  0
 20 21  2  0
 21 22  1  0
 22 23  1  0
 23 24  2  0
 24 25  1  0
 25 26  2  0
 26 27  1  0
 27 28  2  0
 28 29  1  0
 29 30  2  0
 30 31  1  0
 31 32  1  0
 31 33  2  0
 33 34  1  0
 34 35  2  0
 22 36  2  0
 12 37  1  0
 37 38  2  0
 38  3  1  0
 37  6  1  0
 36 18  1  0
 35 25  1  0
 34 28  1  0
  1 39  1  0
  1 40  1  0
  1 41  1  0
  4 42  1  0
  5 43  1  0
  7 44  1  0
 11 45  1  0
 13 46  1  0
 14 47  1  0
 17 48  1  0
 19 49  1  0
 20 50  1  0
 21 51  1  0
 23 52  1  0
 24 53  1  0
 26 54  1  0
 27 55  1  0
 29 56  1  0
 30 57  1  0
 33 58  1  0
 36 59  1  0
 38 60  1  0
M  END
$$$$
