@<TRIPOS>MOLECULE
*****
 43 47 0 0 0
SMALL
GASTEIGER

@<TRIPOS>ATOM
      1 O           4.2055   -2.1526    0.4620 O.2     1  UNL1       -0.2849
      2 C           3.5171   -1.1090    0.2071 C.2     1  UNL1        0.2149
      3 C           4.2399    0.1294    0.1497 C.ar    1  UNL1        0.0239
      4 C           3.8345    1.1478   -0.6612 C.ar    1  UNL1       -0.0509
      5 C           4.5557    2.3495   -0.6464 C.ar    1  UNL1       -0.0611
      6 C           5.6533    2.4979    0.1706 C.ar    1  UNL1       -0.0617
      7 C           6.0719    1.4767    0.9917 C.ar    1  UNL1       -0.0611
      8 C           5.3411    0.3112    0.9529 C.ar    1  UNL1       -0.0509
      9 C           2.0926   -1.3192    0.0094 C.ar    1  UNL1        0.1561
     10 N           1.6025   -2.5000   -0.3919 N.ar    1  UNL1       -0.2382
     11 C           0.2717   -2.7084   -0.5275 C.ar    1  UNL1        0.0886
     12 C          -0.1666   -3.9681   -0.9524 C.ar    1  UNL1       -0.0343
     13 C          -1.5124   -4.1990   -1.0969 C.ar    1  UNL1       -0.0596
     14 C          -2.4297   -3.2159   -0.8315 C.ar    1  UNL1       -0.0597
     15 C          -2.0138   -1.9446   -0.4040 C.ar    1  UNL1       -0.0357
     16 C          -0.6601   -1.7238   -0.2622 C.ar    1  UNL1        0.0754
     17 N          -0.1623   -0.5142    0.1499 N.ar    1  UNL1       -0.2718
     18 C          -0.7853    0.5942    0.4910 C.ar    1  UNL1        0.1691
     19 C          -2.1904    0.9590    0.5428 C.ar    1  UNL1        0.0200
     20 C          -2.9558    0.7890    1.6818 C.ar    1  UNL1       -0.0446
     21 C          -4.2752    1.1811    1.7161 C.ar    1  UNL1        0.0163
     22 C          -4.8235    1.7580    0.5640 C.ar    1  UNL1        0.2732
     23 N          -6.1851    2.1521    0.6286 N.pl3   1  UNL1        0.0796
     24 O          -6.8870    2.0082    1.6406 O.2     1  UNL1        0.0414
     25 O          -6.7504    2.7198   -0.4837 O.co2   1  UNL1       -0.5760
     26 C          -4.0888    1.9422   -0.5884 C.ar    1  UNL1        0.0163
     27 C          -2.7693    1.5312   -0.5692 C.ar    1  UNL1       -0.0446
     28 N           0.2184    1.4862    0.8415 N.ar    1  UNL1       -0.1284
     29 N           1.3784    0.9363    0.7146 N.ar    1  UNL1       -0.1267
     30 C           1.1867   -0.3223    0.2810 C.ar    1  UNL1        0.1913
     31 H           3.0071    1.0980   -1.3472 H       1  UNL1        0.0625
     32 H           4.2494    3.1655   -1.2798 H       1  UNL1        0.0618
     33 H           6.2354    3.4151    0.2074 H       1  UNL1        0.0618
     34 H           6.9330    1.5601    1.6476 H       1  UNL1        0.0618
     35 H           5.6843   -0.4943    1.6112 H       1  UNL1        0.0625
     36 H           0.5722   -4.7367   -1.1587 H       1  UNL1        0.0639
     37 H          -1.8556   -5.1516   -1.4188 H       1  UNL1        0.0618
     38 H          -3.4859   -3.4068   -0.9480 H       1  UNL1        0.0618
     39 H          -2.7295   -1.1956   -0.2036 H       1  UNL1        0.0639
     40 H          -2.5384    0.3402    2.5859 H       1  UNL1        0.0627
     41 H          -4.8687    1.0424    2.6186 H       1  UNL1        0.0685
     42 H          -4.5377    2.3962   -1.4798 H       1  UNL1        0.0685
     43 H          -2.1792    1.6748   -1.4829 H       1  UNL1        0.0627
@<TRIPOS>UNITY_ATOM_ATTR
23 1
charge 1
25 1
charge -1
@<TRIPOS>BOND
     1     1     2    2
     2     2     3    1
     3     3     4   ar
     4     4     5   ar
     5     5     6   ar
     6     6     7   ar
     7     7     8   ar
     8     2     9    1
     9     9    10   ar
    10    10    11   ar
    11    11    12   ar
    12    12    13   ar
    13    13    14   ar
    14    14    15   ar
    15    15    16   ar
    16    16    17   ar
    17    17    18   ar
    18    18    19    1
    19    19    20   ar
    20    20    21   ar
    21    21    22   ar
    22    22    23    1
    23    23    24    2
    24    23    25    1
    25    22    26   ar
    26    26    27   ar
    27    18    28   ar
    28    28    29   ar
    29    29    30   ar
    30     8     3   ar
    31    30     9   ar
    32    16    11   ar
    33    30    17   ar
    34    27    19   ar
    35     4    31    1
    36     5    32    1
    37     6    33    1
    38     7    34    1
    39     8    35    1
    40    12    36    1
    41    13    37    1
    42    14    38    1
    43    15    39    1
    44    20    40    1
    45    21    41    1
    46    26    42    1
    47    27    43    1
