
     RDKit          3D

 43 47  0  0  0  0  0  0  0  0999 V2000
    4.2055   -2.1526    0.4620 O   0  0  0  0  0  0  0  0  0  0  0  0
    3.5171   -1.1090    0.2071 C   0  0  0  0  0  0  0  0  0  0  0  0
    4.2399    0.1294    0.1497 C   0  0  0  0  0  0  0  0  0  0  0  0
    3.8345    1.1478   -0.6612 C   0  0  0  0  0  0  0  0  0  0  0  0
    4.5557    2.3495   -0.6464 C   0  0  0  0  0  0  0  0  0  0  0  0
    5.6533    2.4979    0.1706 C   0  0  0  0  0  0  0  0  0  0  0  0
    6.0719    1.4767    0.9917 C   0  0  0  0  0  0  0  0  0  0  0  0
    5.3411    0.3112    0.9529 C   0  0  0  0  0  0  0  0  0  0  0  0
    2.0926   -1.3192    0.0094 C   0  0  0  0  0  0  0  0  0  0  0  0
    1.6025   -2.5000   -0.3919 N   0  0  0  0  0  0  0  0  0  0  0  0
    0.2717   -2.7084   -0.5275 C   0  0  0  0  0  0  0  0  0  0  0  0
   -0.1666   -3.9681   -0.9524 C   0  0  0  0  0  0  0  0  0  0  0  0
   -1.5124   -4.1990   -1.0969 C   0  0  0  0  0  0  0  0  0  0  0  0
   -2.4297   -3.2159   -0.8315 C   0  0  0  0  0  0  0  0  0  0  0  0
   -2.0138   -1.9446   -0.4040 C   0  0  0  0  0  0  0  0  0  0  0  0
   -0.6601   -1.7238   -0.2622 C   0  0  0  0  0  0  0  0  0  0  0  0
   -0.1623   -0.5142    0.1499 N   0  0  0  0  0  0  0  0  0  0  0  0
   -0.7853    0.5942    0.4910 C   0  0  0  0  0  0  0  0  0  0  0  0
   -2.1904    0.9590    0.5428 C   0  0  0  0  0  0  0  0  0  0  0  0
   -2.9558    0.7890    1.6818 C   0  0  0  0  0  0  0  0  0  0  0  0
   -4.2752    1.1811    1.7161 C   0  0  0  0  0  0  0  0  0  0  0  0
   -4.8235    1.7580    0.5640 C   0  0  0  0  0  0  0  0  0  0  0  0
   -6.1851    2.1521    0.6286 N   0  0  0  0  0  4  0  0  0  0  0  0
   -6.8870    2.0082    1.6406 O   0  0  0  0  0  0  0  0  0  0  0  0
   -6.7504    2.7198   -0.4837 O   0  0  0  0  0  1  0  0  0  0  0  0
   -4.0888    1.9422   -0.5884 C   0  0  0  0  0  0  0  0  0  0  0  0
   -2.7693    1.5312   -0.5692 C   0  0  0  0  0  0  0  0  0  0  0  0
    0.2184    1.4862    0.8415 N   0  0  0  0  0  0  0  0  0  0  0  0
    1.3784    0.9363    0.7146 N   0  0  0  0  0  0  0  0  0  0  0  0
    1.1867   -0.3223    0.2810 C   0  0  0  0  0  0  0  0  0  0  0  0
    3.0071    1.0980   -1.3472 H   0  0  0  0  0  0  0  0  0  0  0  0
    4.2494    3.1655   -1.2798 H   0  0  0  0  0  0  0  0  0  0  0  0
    6.2354    3.4151    0.2074 H   0  0  0  0  0  0  0  0  0  0  0  0
    6.9330    1.5601    1.6476 H   0  0  0  0  0  0  0  0  0  0  0  0
    5.6843   -0.4943    1.6112 H   0  0  0  0  0  0  0  0  0  0  0  0
    0.5722   -4.7367   -1.1587 H   0  0  0  0  0  0  0  0  0  0  0  0
   -1.8556   -5.1516   -1.4188 H   0  0  0  0  0  0  0  0  0  0  0  0
   -3.4859   -3.4068   -0.9480 H   0  0  0  0  0  0  0  0  0  0  0  0
   -2.7295   -1.1956   -0.2036 H   0  0  0  0  0  0  0  0  0  0  0  0
   -2.5384    0.3402    2.5859 H   0  0  0  0  0  0  0  0  0  0  0  0
   -4.8687    1.0424    2.6186 H   0  0  0  0  0  0  0  0  0  0  0  0
   -4.5377    2.3962   -1.4798 H   0  0  0  0  0  0  0  0  0  0  0  0
   -2.1792    1.6748   -1.4829 H   0  0  0  0  0  0  0  0  0  0  0  0
  1  2  2  0
  2  3  1  0
  3  4  2  0
  4  5  1  0
  5  6  2  0
  6  7  1  0
  7  8  2  0
  2  9  1  0
  9 10  2  0
 10 11  1  0
 11 12  2  0
 12 13  1  0
 13 14  2  0
 14 15  1  0
 15 16  2  0
 16 17  1  0
 17 18  1  0
 18 19  1  0
 19 20  2  0
 20 21  1  0
 21 22  2  0
 22 23  1  0
 23 24  2  0
 23 25  1  0
 22 26  1  0
 26 27  2  0
 18 28  2  0
 28 29  1  0
 29 30  2  0
  8  3  1  0
 30  9  1  0
 16 11  1  0
 30 17  1  0
 27 19  1  0
  4 31  1  0
  5 32  1  0
  6 33  1  0
  7 34  1  0
  8 35  1  0
 12 36  1  0
 13 37  1  0
 14 38  1  0
 15 39  1  0
 20 40  1  0
 21 41  1  0
 26 42  1  0
 27 43  1  0
M  CHG  2  23   1  25  -1
M  END
$$$$
