
     RDKit          3D

 38 41  0  0  0  0  0  0  0  0999 V2000
   -5.5864   -2.7175    1.5824 O   0  0  0  0  0  0  0  0  0  0  0  0
   -5.4023   -1.3406    1.5379 C   0  0  0  0  0  0  0  0  0  0  0  0
   -6.3387   -0.7481    2.1270 O   0  0  0  0  0  0  0  0  0  0  0  0
   -4.2752   -0.6836    0.8940 C   0  0  0  0  0  0  0  0  0  0  0  0
   -3.2674   -1.3983    0.2575 C   0  0  0  0  0  0  0  0  0  0  0  0
   -2.2471   -0.6731   -0.3209 C   0  0  0  0  0  0  0  0  0  0  0  0
   -2.1729    0.7043   -0.3028 C   0  0  0  0  0  0  0  0  0  0  0  0
   -3.2071    1.3859    0.3481 C   0  0  0  0  0  0  0  0  0  0  0  0
   -4.2670    0.7014    0.9522 C   0  0  0  0  0  0  0  0  0  0  0  0
   -1.1029    1.4856   -0.9100 C   0  0  0  0  0  0  0  0  0  0  0  0
   -1.4236    2.6094   -1.6761 C   0  0  0  0  0  0  0  0  0  0  0  0
   -0.2700    3.1421   -2.1163 N   0  0  0  0  0  0  0  0  0  0  0  0
    0.7889    2.4515   -1.6963 C   0  0  0  0  0  0  0  0  0  0  0  0
    0.2706    1.4134   -0.9406 C   0  0  0  0  0  0  0  0  0  0  0  0
    1.0443    0.4540   -0.3159 C   0  0  0  0  0  0  0  0  0  0  0  0
    2.4022    0.5286   -0.4479 C   0  0  0  0  0  0  0  0  0  0  0  0
    2.9090    1.5715   -1.2063 C   0  0  0  0  0  0  0  0  0  0  0  0
    2.1409    2.5050   -1.8132 N   0  0  0  0  0  0  0  0  0  0  0  0
    3.3003   -0.4507    0.1854 C   0  0  0  0  0  0  0  0  0  0  0  0
    4.4925   -0.7817   -0.3968 C   0  0  0  0  0  0  0  0  0  0  0  0
    5.3906   -1.6823    0.1234 C   0  0  0  0  0  0  0  0  0  0  0  0
    5.0162   -2.2712    1.3259 C   0  0  0  0  0  0  0  0  0  0  0  0
    3.8286   -1.9769    1.9580 C   0  0  0  0  0  0  0  0  0  0  0  0
    2.9741   -1.0612    1.3768 C   0  0  0  0  0  0  0  0  0  0  0  0
   -6.4756   -3.1331    1.3361 H   0  0  0  0  0  0  0  0  0  0  0  0
   -3.2978   -2.4811    0.2266 H   0  0  0  0  0  0  0  0  0  0  0  0
   -1.4396   -1.2138   -0.8294 H   0  0  0  0  0  0  0  0  0  0  0  0
   -3.1497    2.4852    0.3635 H   0  0  0  0  0  0  0  0  0  0  0  0
   -5.0292    1.2969    1.4361 H   0  0  0  0  0  0  0  0  0  0  0  0
   -2.3858    3.0227   -1.9079 H   0  0  0  0  0  0  0  0  0  0  0  0
   -0.1871    3.9913   -2.7145 H   0  0  0  0  0  0  0  0  0  0  0  0
    0.6188   -0.3525    0.2728 H   0  0  0  0  0  0  0  0  0  0  0  0
    3.9746    1.6858   -1.3491 H   0  0  0  0  0  0  0  0  0  0  0  0
    4.7308   -0.2809   -1.3483 H   0  0  0  0  0  0  0  0  0  0  0  0
    6.3109   -1.8909   -0.3950 H   0  0  0  0  0  0  0  0  0  0  0  0
    5.6997   -2.9950    1.7783 H   0  0  0  0  0  0  0  0  0  0  0  0
    3.6030   -2.4839    2.9067 H   0  0  0  0  0  0  0  0  0  0  0  0
    2.0293   -0.8184    1.8664 H   0  0  0  0  0  0  0  0  0  0  0  0
  1  2  1  0
  2  3  2  0
  2  4  1  0
  4  5  2  0
  5  6  1  0
  6  7  2  0
  7  8  1  0
  8  9  2  0
  7 10  1  0
 10 11  2  0
 11 12  1  0
 12 13  1  0
 13 14  2  0
 14 15  1  0
 15 16  2  0
 16 17  1  0
 17 18  2  0
 16 19  1  0
 19 20  2  0
 20 21  1  0
 21 22  2  0
 22 23  1  0
 23 24  2  0
  9  4  1  0
 14 10  1  0
 24 19  1  0
 18 13  1  0
  1 25  1  0
  5 26  1  0
  6 27  1  0
  8 28  1  0
  9 29  1  0
 11 30  1  0
 12 31  1  0
 15 32  1  0
 17 33  1  0
 20 34  1  0
 21 35  1  0
 22 36  1  0
 23 37  1  0
 24 38  1  0
M  END
$$$$
