@<TRIPOS>MOLECULE
*****
 67 71 0 0 0
SMALL
GASTEIGER

@<TRIPOS>ATOM
      1 C           5.0006    1.6676   -3.2864 C.3     1  UNL1       -0.0391
      2 C           3.7333    1.4388   -2.5397 C.ar    1  UNL1       -0.0426
      3 C           2.5520    1.7464   -3.1887 C.ar    1  UNL1       -0.0565
      4 C           1.3432    1.5637   -2.5559 C.ar    1  UNL1       -0.0402
      5 C           1.3121    1.0736   -1.2740 C.ar    1  UNL1        0.0343
      6 N           0.0951    0.8717   -0.5898 N.am    1  UNL1       -0.2815
      7 C          -0.6451   -0.3240   -0.6192 C.2     1  UNL1        0.2483
      8 O          -0.1892   -1.2809   -1.3043 O.2     1  UNL1       -0.2699
      9 C          -1.9034   -0.5085    0.0984 C.ar    1  UNL1        0.0370
     10 C          -2.4854    0.4696    0.8725 C.ar    1  UNL1       -0.0493
     11 C          -3.6886    0.2558    1.5432 C.ar    1  UNL1       -0.0566
     12 C          -4.3537   -0.9483    1.4623 C.ar    1  UNL1       -0.0333
     13 C          -5.6204   -1.1677    2.1710 C.3     1  UNL1        0.0241
     14 N          -6.7901   -0.8355    1.4492 N.3     1  UNL1       -0.2957
     15 C          -6.9979   -1.5396    0.2307 C.3     1  UNL1        0.0120
     16 C          -8.4820   -1.4336   -0.1071 C.3     1  UNL1        0.0114
     17 N          -8.9612   -0.0880   -0.0888 N.3     1  UNL1       -0.3029
     18 C          -8.8242    0.6075   -1.3301 C.3     1  UNL1       -0.0127
     19 C          -8.5959    0.6683    1.0679 C.3     1  UNL1        0.0114
     20 C          -7.0960    0.5650    1.3774 C.3     1  UNL1        0.0120
     21 C          -3.7729   -1.9310    0.6870 C.ar    1  UNL1       -0.0566
     22 C          -2.5801   -1.7259    0.0192 C.ar    1  UNL1       -0.0493
     23 C           2.4989    0.7713   -0.6396 C.ar    1  UNL1       -0.0325
     24 C           3.7168    0.9477   -1.2576 C.ar    1  UNL1       -0.0132
     25 C           4.9328    0.6110   -0.5526 C.ar    1  UNL1       -0.0175
     26 C           5.9563   -0.1275   -1.0987 C.ar    1  UNL1       -0.0534
     27 C           7.0974   -0.4192   -0.3882 C.ar    1  UNL1       -0.0520
     28 C           7.2586    0.0189    0.9021 C.ar    1  UNL1        0.0010
     29 C           8.4838   -0.2816    1.6971 C.ar    1  UNL1        0.0802
     30 C           8.6242    0.1625    2.9756 C.ar    1  UNL1        0.0049
     31 S          10.2529   -0.4759    3.4391 S.2     1  UNL1       -0.0605
     32 C          10.5198   -1.2680    1.8090 C.ar    1  UNL1        0.1561
     33 N          11.7180   -1.9956    1.5100 N.pl3   1  UNL1       -0.3375
     34 N           9.4702   -0.9666    1.2373 N.ar    1  UNL1       -0.2252
     35 C           6.2311    0.7562    1.4405 C.ar    1  UNL1       -0.0520
     36 C           5.0826    1.0625    0.7567 C.ar    1  UNL1       -0.0534
     37 H           5.1933    0.8406   -3.9954 H       1  UNL1        0.0278
     38 H           4.8458    2.5686   -3.9197 H       1  UNL1        0.0278
     39 H           5.8663    1.8491   -2.6359 H       1  UNL1        0.0278
     40 H           2.5771    2.1321   -4.1977 H       1  UNL1        0.0621
     41 H           0.4461    1.8207   -3.1099 H       1  UNL1        0.0636
     42 H          -0.2496    1.7038   -0.0268 H       1  UNL1        0.1551
     43 H          -1.9911    1.4335    0.9613 H       1  UNL1        0.0625
     44 H          -4.1452    1.0250    2.1513 H       1  UNL1        0.0621
     45 H          -5.6513   -0.6397    3.1526 H       1  UNL1        0.0476
     46 H          -5.6836   -2.2623    2.4420 H       1  UNL1        0.0476
     47 H          -6.7424   -2.5938    0.3707 H       1  UNL1        0.0439
     48 H          -6.4619   -1.0773   -0.6378 H       1  UNL1        0.0439
     49 H          -9.0479   -2.0163    0.6563 H       1  UNL1        0.0439
     50 H          -8.6836   -1.8468   -1.1246 H       1  UNL1        0.0439
     51 H          -9.7656    1.1664   -1.5411 H       1  UNL1        0.0391
     52 H          -8.7549   -0.1718   -2.1369 H       1  UNL1        0.0391
     53 H          -7.9861    1.3125   -1.3635 H       1  UNL1        0.0391
     54 H          -8.7674    1.7562    0.8252 H       1  UNL1        0.0439
     55 H          -9.1759    0.4135    1.9664 H       1  UNL1        0.0439
     56 H          -6.8986    1.0308    2.3422 H       1  UNL1        0.0439
     57 H          -6.5890    1.0767    0.5322 H       1  UNL1        0.0439
     58 H          -4.2677   -2.8950    0.5985 H       1  UNL1        0.0621
     59 H          -2.1159   -2.4877   -0.5906 H       1  UNL1        0.0625
     60 H           2.5145    0.3810    0.3761 H       1  UNL1        0.0642
     61 H           5.8441   -0.4823   -2.1119 H       1  UNL1        0.0624
     62 H           7.8599   -1.0000   -0.8711 H       1  UNL1        0.0624
     63 H           7.9488    0.7880    3.6786 H       1  UNL1        0.0716
     64 H          12.3879   -1.6509    0.7922 H       1  UNL1        0.1442
     65 H          11.9443   -2.8849    2.0044 H       1  UNL1        0.1442
     66 H           6.3301    1.1219    2.4729 H       1  UNL1        0.0624
     67 H           4.3259    1.6480    1.2587 H       1  UNL1        0.0624
@<TRIPOS>BOND
     1     1     2    1
     2     2     3   ar
     3     3     4   ar
     4     4     5   ar
     5     5     6    1
     6     6     7   am
     7     7     8    2
     8     7     9    1
     9     9    10   ar
    10    10    11   ar
    11    11    12   ar
    12    12    13    1
    13    13    14    1
    14    14    15    1
    15    15    16    1
    16    16    17    1
    17    17    18    1
    18    17    19    1
    19    19    20    1
    20    12    21   ar
    21    21    22   ar
    22     5    23   ar
    23    23    24   ar
    24    24    25    1
    25    25    26   ar
    26    26    27   ar
    27    27    28   ar
    28    28    29    1
    29    29    30   ar
    30    30    31   ar
    31    31    32   ar
    32    32    33    1
    33    32    34   ar
    34    28    35   ar
    35    35    36   ar
    36    24     2   ar
    37    36    25   ar
    38    22     9   ar
    39    34    29   ar
    40    20    14    1
    41     1    37    1
    42     1    38    1
    43     1    39    1
    44     3    40    1
    45     4    41    1
    46     6    42    1
    47    10    43    1
    48    11    44    1
    49    13    45    1
    50    13    46    1
    51    15    47    1
    52    15    48    1
    53    16    49    1
    54    16    50    1
    55    18    51    1
    56    18    52    1
    57    18    53    1
    58    19    54    1
    59    19    55    1
    60    20    56    1
    61    20    57    1
    62    21    58    1
    63    22    59    1
    64    23    60    1
    65    26    61    1
    66    27    62    1
    67    30    63    1
    68    33    64    1
    69    33    65    1
    70    35    66    1
    71    36    67    1
