@<TRIPOS>MOLECULE
*****
 51 56 0 0 0
SMALL
GASTEIGER

@<TRIPOS>ATOM
      1 C          -3.9955    1.9196   -0.5859 C.3     1  UNL1       -0.0203
      2 C          -3.4611    0.5353   -0.3282 C.ar    1  UNL1        0.0660
      3 N          -4.2138   -0.5492   -0.0437 N.ar    1  UNL1       -0.1752
      4 N          -3.4033   -1.5811    0.1192 N.ar    1  UNL1       -0.2556
      5 C          -3.8547   -2.9415    0.4414 C.3     1  UNL1        0.0537
      6 C          -4.7470   -3.5773   -0.6104 C.3     1  UNL1       -0.0285
      7 C          -3.3669   -4.0834   -0.3675 C.3     1  UNL1       -0.0285
      8 C          -2.1311   -1.1958   -0.0528 C.ar    1  UNL1        0.1297
      9 C          -2.1604    0.1512   -0.3381 C.ar    1  UNL1        0.0305
     10 C          -0.7753    0.6617   -0.5449 C.3     1  UNL1        0.0868
     11 C          -0.4550    1.7873    0.3347 C.ar    1  UNL1       -0.0220
     12 C          -0.1795    1.6511    1.6837 C.ar    1  UNL1       -0.0551
     13 C           0.1129    2.7423    2.4554 C.ar    1  UNL1       -0.0431
     14 C           0.1429    4.0088    1.9178 C.ar    1  UNL1        0.0410
     15 CL          0.5129    5.4197    2.8778 Cl      1  UNL1       -0.0835
     16 C          -0.1254    4.1771    0.5849 C.ar    1  UNL1       -0.0431
     17 C          -0.4167    3.0688   -0.1722 C.ar    1  UNL1       -0.0551
     18 N           0.0902   -0.4741   -0.3637 N.am    1  UNL1       -0.2376
     19 C           1.4960   -0.4703   -0.4638 C.ar    1  UNL1        0.1499
     20 C           2.0478   -0.7278   -1.7243 C.ar    1  UNL1       -0.0131
     21 C           3.4138   -0.7392   -1.8926 C.ar    1  UNL1       -0.0012
     22 C           3.9499   -1.0167   -3.2457 C.3     1  UNL1       -0.0360
     23 C           4.1928   -0.4900   -0.7833 C.ar    1  UNL1        0.1811
     24 N           5.5214   -0.4334   -0.6280 N.ar    1  UNL1       -0.1275
     25 N           5.7793   -0.1574    0.6516 N.ar    1  UNL1       -0.1263
     26 C           4.6253   -0.0341    1.3299 C.ar    1  UNL1        0.2205
     27 C           4.4754    0.2694    2.7730 C.3     1  UNL1        0.2993
     28 F           3.8916   -0.8083    3.4498 F       1  UNL1       -0.2005
     29 F           3.6542    1.3519    3.0068 F       1  UNL1       -0.2005
     30 N           3.6294   -0.2429    0.4289 N.ar    1  UNL1       -0.1896
     31 N           2.3161   -0.2355    0.5743 N.ar    1  UNL1       -0.1476
     32 C          -0.7104   -1.6049   -0.0659 C.2     1  UNL1        0.2711
     33 O          -0.3495   -2.7934    0.1622 O.2     1  UNL1       -0.2679
     34 H          -3.3942    2.4027   -1.3814 H       1  UNL1        0.0293
     35 H          -4.0134    2.5093    0.3512 H       1  UNL1        0.0293
     36 H          -5.0346    1.8782   -0.9615 H       1  UNL1        0.0293
     37 H          -4.1931   -3.0879    1.4705 H       1  UNL1        0.0545
     38 H          -4.9576   -2.9807   -1.5442 H       1  UNL1        0.0286
     39 H          -5.6085   -4.1867   -0.2813 H       1  UNL1        0.0286
     40 H          -2.5980   -3.8999   -1.1670 H       1  UNL1        0.0286
     41 H          -3.2980   -5.0778    0.1162 H       1  UNL1        0.0286
     42 H          -0.7186    1.0019   -1.6061 H       1  UNL1        0.0606
     43 H          -0.2025    0.6574    2.1083 H       1  UNL1        0.0621
     44 H           0.3310    2.6555    3.5119 H       1  UNL1        0.0632
     45 H          -0.1045    5.1771    0.1473 H       1  UNL1        0.0632
     46 H          -0.6275    3.2199   -1.2297 H       1  UNL1        0.0621
     47 H           1.3750   -0.9156   -2.5531 H       1  UNL1        0.0656
     48 H           3.5094   -0.2646   -3.9338 H       1  UNL1        0.0279
     49 H           5.0407   -1.0528   -3.2831 H       1  UNL1        0.0279
     50 H           3.5057   -2.0048   -3.5552 H       1  UNL1        0.0279
     51 H           5.4824    0.3805    3.2105 H       1  UNL1        0.1105
@<TRIPOS>BOND
     1     1     2    1
     2     2     3   ar
     3     3     4   ar
     4     4     5    1
     5     5     6    1
     6     6     7    1
     7     4     8   ar
     8     8     9   ar
     9     9    10    1
    10    10    11    1
    11    11    12   ar
    12    12    13   ar
    13    13    14   ar
    14    14    15    1
    15    14    16   ar
    16    16    17   ar
    17    10    18    1
    18    18    19    1
    19    19    20   ar
    20    20    21   ar
    21    21    22    1
    22    21    23   ar
    23    23    24   ar
    24    24    25   ar
    25    25    26   ar
    26    26    27    1
    27    27    28    1
    28    27    29    1
    29    26    30   ar
    30    30    31   ar
    31    18    32   am
    32    32    33    2
    33     9     2   ar
    34    17    11   ar
    35    31    19   ar
    36     7     5    1
    37    32     8    1
    38    30    23   ar
    39     1    34    1
    40     1    35    1
    41     1    36    1
    42     5    37    1
    43     6    38    1
    44     6    39    1
    45     7    40    1
    46     7    41    1
    47    10    42    1
    48    12    43    1
    49    13    44    1
    50    16    45    1
    51    17    46    1
    52    20    47    1
    53    22    48    1
    54    22    49    1
    55    22    50    1
    56    27    51    1
