
     RDKit          3D

 51 56  0  0  0  0  0  0  0  0999 V2000
   -3.9955    1.9196   -0.5859 C   0  0  0  0  0  0  0  0  0  0  0  0
   -3.4611    0.5353   -0.3282 C   0  0  0  0  0  0  0  0  0  0  0  0
   -4.2138   -0.5492   -0.0437 N   0  0  0  0  0  0  0  0  0  0  0  0
   -3.4033   -1.5811    0.1192 N   0  0  0  0  0  0  0  0  0  0  0  0
   -3.8547   -2.9415    0.4414 C   0  0  0  0  0  0  0  0  0  0  0  0
   -4.7470   -3.5773   -0.6104 C   0  0  0  0  0  0  0  0  0  0  0  0
   -3.3669   -4.0834   -0.3675 C   0  0  0  0  0  0  0  0  0  0  0  0
   -2.1311   -1.1958   -0.0528 C   0  0  0  0  0  0  0  0  0  0  0  0
   -2.1604    0.1512   -0.3381 C   0  0  0  0  0  0  0  0  0  0  0  0
   -0.7753    0.6617   -0.5449 C   0  0  0  0  0  0  0  0  0  0  0  0
   -0.4550    1.7873    0.3347 C   0  0  0  0  0  0  0  0  0  0  0  0
   -0.1795    1.6511    1.6837 C   0  0  0  0  0  0  0  0  0  0  0  0
    0.1129    2.7423    2.4554 C   0  0  0  0  0  0  0  0  0  0  0  0
    0.1429    4.0088    1.9178 C   0  0  0  0  0  0  0  0  0  0  0  0
    0.5129    5.4197    2.8778 Cl  0  0  0  0  0  0  0  0  0  0  0  0
   -0.1254    4.1771    0.5849 C   0  0  0  0  0  0  0  0  0  0  0  0
   -0.4167    3.0688   -0.1722 C   0  0  0  0  0  0  0  0  0  0  0  0
    0.0902   -0.4741   -0.3637 N   0  0  0  0  0  0  0  0  0  0  0  0
    1.4960   -0.4703   -0.4638 C   0  0  0  0  0  0  0  0  0  0  0  0
    2.0478   -0.7278   -1.7243 C   0  0  0  0  0  0  0  0  0  0  0  0
    3.4138   -0.7392   -1.8926 C   0  0  0  0  0  0  0  0  0  0  0  0
    3.9499   -1.0167   -3.2457 C   0  0  0  0  0  0  0  0  0  0  0  0
    4.1928   -0.4900   -0.7833 C   0  0  0  0  0  0  0  0  0  0  0  0
    5.5214   -0.4334   -0.6280 N   0  0  0  0  0  0  0  0  0  0  0  0
    5.7793   -0.1574    0.6516 N   0  0  0  0  0  0  0  0  0  0  0  0
    4.6253   -0.0341    1.3299 C   0  0  0  0  0  0  0  0  0  0  0  0
    4.4754    0.2694    2.7730 C   0  0  0  0  0  0  0  0  0  0  0  0
    3.8916   -0.8083    3.4498 F   0  0  0  0  0  0  0  0  0  0  0  0
    3.6542    1.3519    3.0068 F   0  0  0  0  0  0  0  0  0  0  0  0
    3.6294   -0.2429    0.4289 N   0  0  0  0  0  0  0  0  0  0  0  0
    2.3161   -0.2355    0.5743 N   0  0  0  0  0  0  0  0  0  0  0  0
   -0.7104   -1.6049   -0.0659 C   0  0  0  0  0  0  0  0  0  0  0  0
   -0.3495   -2.7934    0.1622 O   0  0  0  0  0  0  0  0  0  0  0  0
   -3.3942    2.4027   -1.3814 H   0  0  0  0  0  0  0  0  0  0  0  0
   -4.0134    2.5093    0.3512 H   0  0  0  0  0  0  0  0  0  0  0  0
   -5.0346    1.8782   -0.9615 H   0  0  0  0  0  0  0  0  0  0  0  0
   -4.1931   -3.0879    1.4705 H   0  0  0  0  0  0  0  0  0  0  0  0
   -4.9576   -2.9807   -1.5442 H   0  0  0  0  0  0  0  0  0  0  0  0
   -5.6085   -4.1867   -0.2813 H   0  0  0  0  0  0  0  0  0  0  0  0
   -2.5980   -3.8999   -1.1670 H   0  0  0  0  0  0  0  0  0  0  0  0
   -3.2980   -5.0778    0.1162 H   0  0  0  0  0  0  0  0  0  0  0  0
   -0.7186    1.0019   -1.6061 H   0  0  0  0  0  0  0  0  0  0  0  0
   -0.2025    0.6574    2.1083 H   0  0  0  0  0  0  0  0  0  0  0  0
    0.3310    2.6555    3.5119 H   0  0  0  0  0  0  0  0  0  0  0  0
   -0.1045    5.1771    0.1473 H   0  0  0  0  0  0  0  0  0  0  0  0
   -0.6275    3.2199   -1.2297 H   0  0  0  0  0  0  0  0  0  0  0  0
    1.3750   -0.9156   -2.5531 H   0  0  0  0  0  0  0  0  0  0  0  0
    3.5094   -0.2646   -3.9338 H   0  0  0  0  0  0  0  0  0  0  0  0
    5.0407   -1.0528   -3.2831 H   0  0  0  0  0  0  0  0  0  0  0  0
    3.5057   -2.0048   -3.5552 H   0  0  0  0  0  0  0  0  0  0  0  0
    5.4824    0.3805    3.2105 H   0  0  0  0  0  0  0  0  0  0  0  0
  1  2  1  0
  2  3  2  0
  3  4  1  0
  4  5  1  0
  5  6  1  0
  6  7  1  0
  4  8  1  0
  8  9  2  0
  9 10  1  0
 10 11  1  0
 11 12  2  0
 12 13  1  0
 13 14  2  0
 14 15  1  0
 14 16  1  0
 16 17  2  0
 10 18  1  0
 18 19  1  0
 19 20  1  0
 20 21  2  0
 21 22  1  0
 21 23  1  0
 23 24  2  0
 24 25  1  0
 25 26  2  0
 26 27  1  0
 27 28  1  0
 27 29  1  0
 26 30  1  0
 30 31  1  0
 18 32  1  0
 32 33  2  0
  9  2  1  0
 17 11  1  0
 31 19  2  0
  7  5  1  0
 32  8  1  0
 30 23  1  0
  1 34  1  0
  1 35  1  0
  1 36  1  0
  5 37  1  0
  6 38  1  0
  6 39  1  0
  7 40  1  0
  7 41  1  0
 10 42  1  0
 12 43  1  0
 13 44  1  0
 16 45  1  0
 17 46  1  0
 20 47  1  0
 22 48  1  0
 22 49  1  0
 22 50  1  0
 27 51  1  0
M  END
$$$$
