@<TRIPOS>MOLECULE
*****
 33 36 0 0 0
SMALL
GASTEIGER

@<TRIPOS>ATOM
      1 O           0.3895   -3.2764    2.2053 O.2     1  UNL1       -0.2870
      2 C           0.2361   -2.2378    1.5230 C.ar    1  UNL1        0.1931
      3 C          -1.0476   -1.8711    1.1346 C.ar    1  UNL1        0.0287
      4 C          -1.2211   -0.7340    0.3870 C.ar    1  UNL1        0.1392
      5 C          -2.5573   -0.3184   -0.0390 C.ar    1  UNL1        0.0174
      6 C          -3.6989   -1.0014    0.2606 C.ar    1  UNL1       -0.0511
      7 C          -4.9641   -0.6012   -0.1471 C.ar    1  UNL1       -0.0611
      8 C          -5.1044    0.5403   -0.8936 C.ar    1  UNL1       -0.0617
      9 C          -3.9650    1.2553   -1.2138 C.ar    1  UNL1       -0.0611
     10 C          -2.7168    0.8395   -0.7982 C.ar    1  UNL1       -0.0511
     11 O          -0.1981    0.0276    0.0230 O.2     1  UNL1       -0.4540
     12 C           1.0174   -0.2968    0.3763 C.ar    1  UNL1        0.1469
     13 C           1.2710   -1.4238    1.1270 C.ar    1  UNL1        0.0646
     14 C           2.5526   -1.7634    1.4979 C.ar    1  UNL1       -0.0468
     15 C           3.5885   -0.9441    1.0986 C.ar    1  UNL1       -0.0531
     16 C           3.3504    0.1899    0.3452 C.ar    1  UNL1       -0.0143
     17 C           4.3956    1.0048   -0.0502 C.ar    1  UNL1       -0.0539
     18 C           4.1609    2.1386   -0.8030 C.ar    1  UNL1       -0.0612
     19 C           2.8580    2.4707   -1.1716 C.ar    1  UNL1       -0.0611
     20 C           1.8103    1.6634   -0.7814 C.ar    1  UNL1       -0.0505
     21 C           2.0729    0.5361   -0.0294 C.ar    1  UNL1        0.0251
     22 H          -1.8918   -2.4774    1.4208 H       1  UNL1        0.0693
     23 H          -3.6812   -1.9093    0.8430 H       1  UNL1        0.0625
     24 H          -5.8500   -1.1800    0.1165 H       1  UNL1        0.0618
     25 H          -6.1005    0.8429   -1.2065 H       1  UNL1        0.0618
     26 H          -4.0645    2.1695   -1.8101 H       1  UNL1        0.0618
     27 H          -1.8706    1.4561   -1.0908 H       1  UNL1        0.0625
     28 H           2.6998   -2.6587    2.0878 H       1  UNL1        0.0626
     29 H           4.6066   -1.1753    1.3685 H       1  UNL1        0.0624
     30 H           5.4054    0.7128    0.2577 H       1  UNL1        0.0624
     31 H           4.9865    2.7719   -1.1087 H       1  UNL1        0.0618
     32 H           2.7289    3.3585   -1.7546 H       1  UNL1        0.0618
     33 H           0.8017    1.8911   -1.0480 H       1  UNL1        0.0625
@<TRIPOS>BOND
     1     1     2    2
     2     2     3   ar
     3     3     4   ar
     4     4     5    1
     5     5     6   ar
     6     6     7   ar
     7     7     8   ar
     8     8     9   ar
     9     9    10   ar
    10     4    11   ar
    11    11    12   ar
    12    12    13   ar
    13    13    14   ar
    14    14    15   ar
    15    15    16   ar
    16    16    17   ar
    17    17    18   ar
    18    18    19   ar
    19    19    20   ar
    20    20    21   ar
    21    13     2   ar
    22    21    16   ar
    23    10     5   ar
    24    21    12   ar
    25     3    22    1
    26     6    23    1
    27     7    24    1
    28     8    25    1
    29     9    26    1
    30    10    27    1
    31    14    28    1
    32    15    29    1
    33    17    30    1
    34    18    31    1
    35    19    32    1
    36    20    33    1
