
     RDKit          3D

 33 36  0  0  0  0  0  0  0  0999 V2000
    0.3895   -3.2764    2.2053 O   0  0  0  0  0  0  0  0  0  0  0  0
    0.2361   -2.2378    1.5230 C   0  0  0  0  0  0  0  0  0  0  0  0
   -1.0476   -1.8711    1.1346 C   0  0  0  0  0  0  0  0  0  0  0  0
   -1.2211   -0.7340    0.3870 C   0  0  0  0  0  0  0  0  0  0  0  0
   -2.5573   -0.3184   -0.0390 C   0  0  0  0  0  0  0  0  0  0  0  0
   -3.6989   -1.0014    0.2606 C   0  0  0  0  0  0  0  0  0  0  0  0
   -4.9641   -0.6012   -0.1471 C   0  0  0  0  0  0  0  0  0  0  0  0
   -5.1044    0.5403   -0.8936 C   0  0  0  0  0  0  0  0  0  0  0  0
   -3.9650    1.2553   -1.2138 C   0  0  0  0  0  0  0  0  0  0  0  0
   -2.7168    0.8395   -0.7982 C   0  0  0  0  0  0  0  0  0  0  0  0
   -0.1981    0.0276    0.0230 O   0  0  0  0  0  0  0  0  0  0  0  0
    1.0174   -0.2968    0.3763 C   0  0  0  0  0  0  0  0  0  0  0  0
    1.2710   -1.4238    1.1270 C   0  0  0  0  0  0  0  0  0  0  0  0
    2.5526   -1.7634    1.4979 C   0  0  0  0  0  0  0  0  0  0  0  0
    3.5885   -0.9441    1.0986 C   0  0  0  0  0  0  0  0  0  0  0  0
    3.3504    0.1899    0.3452 C   0  0  0  0  0  0  0  0  0  0  0  0
    4.3956    1.0048   -0.0502 C   0  0  0  0  0  0  0  0  0  0  0  0
    4.1609    2.1386   -0.8030 C   0  0  0  0  0  0  0  0  0  0  0  0
    2.8580    2.4707   -1.1716 C   0  0  0  0  0  0  0  0  0  0  0  0
    1.8103    1.6634   -0.7814 C   0  0  0  0  0  0  0  0  0  0  0  0
    2.0729    0.5361   -0.0294 C   0  0  0  0  0  0  0  0  0  0  0  0
   -1.8918   -2.4774    1.4208 H   0  0  0  0  0  0  0  0  0  0  0  0
   -3.6812   -1.9093    0.8430 H   0  0  0  0  0  0  0  0  0  0  0  0
   -5.8500   -1.1800    0.1165 H   0  0  0  0  0  0  0  0  0  0  0  0
   -6.1005    0.8429   -1.2065 H   0  0  0  0  0  0  0  0  0  0  0  0
   -4.0645    2.1695   -1.8101 H   0  0  0  0  0  0  0  0  0  0  0  0
   -1.8706    1.4561   -1.0908 H   0  0  0  0  0  0  0  0  0  0  0  0
    2.6998   -2.6587    2.0878 H   0  0  0  0  0  0  0  0  0  0  0  0
    4.6066   -1.1753    1.3685 H   0  0  0  0  0  0  0  0  0  0  0  0
    5.4054    0.7128    0.2577 H   0  0  0  0  0  0  0  0  0  0  0  0
    4.9865    2.7719   -1.1087 H   0  0  0  0  0  0  0  0  0  0  0  0
    2.7289    3.3585   -1.7546 H   0  0  0  0  0  0  0  0  0  0  0  0
    0.8017    1.8911   -1.0480 H   0  0  0  0  0  0  0  0  0  0  0  0
  1  2  2  0
  2  3  1  0
  3  4  2  0
  4  5  1  0
  5  6  2  0
  6  7  1  0
  7  8  2  0
  8  9  1  0
  9 10  2  0
  4 11  1  0
 11 12  1  0
 12 13  2  0
 13 14  1  0
 14 15  2  0
 15 16  1  0
 16 17  2  0
 17 18  1  0
 18 19  2  0
 19 20  1  0
 20 21  2  0
 13  2  1  0
 21 16  1  0
 10  5  1  0
 21 12  1  0
  3 22  1  0
  6 23  1  0
  7 24  1  0
  8 25  1  0
  9 26  1  0
 10 27  1  0
 14 28  1  0
 15 29  1  0
 17 30  1  0
 18 31  1  0
 19 32  1  0
 20 33  1  0
M  END
$$$$
