
     RDKit          3D

 57 61  0  0  0  0  0  0  0  0999 V2000
    3.0330   -0.8706    2.5743 C   0  0  0  0  0  0  0  0  0  0  0  0
    3.5379   -0.3873    1.2690 C   0  0  0  0  0  0  0  0  0  0  0  0
    2.8438   -0.4469    0.0706 C   0  0  0  0  0  0  0  0  0  0  0  0
    1.4899   -1.0550    0.0822 C   0  0  0  0  0  0  0  0  0  0  0  0
    0.4642   -0.1613    0.7121 C   0  0  0  0  0  0  0  0  0  0  0  0
   -0.8713   -0.7208    0.7553 N   0  0  0  0  0  0  0  0  0  0  0  0
   -1.4770   -0.8333   -0.5135 C   0  0  0  0  0  0  0  0  0  0  0  0
   -2.9259   -1.2036   -0.4160 C   0  0  0  0  0  0  0  0  0  0  0  0
   -3.6421   -0.1660    0.3877 C   0  0  0  0  0  0  0  0  0  0  0  0
   -3.0634   -0.1655    1.7785 C   0  0  0  0  0  0  0  0  0  0  0  0
   -1.5733   -0.0810    1.8025 C   0  0  0  0  0  0  0  0  0  0  0  0
   -5.0978   -0.4315    0.5057 C   0  0  0  0  0  0  0  0  0  0  0  0
   -5.7952   -1.1442    1.4053 N   0  0  0  0  0  0  0  0  0  0  0  0
   -7.0692   -1.1322    1.1651 O   0  0  0  0  0  0  0  0  0  0  0  0
   -7.3019   -0.4083    0.0860 C   0  0  0  0  0  0  0  0  0  0  0  0
   -6.0697    0.0455   -0.3492 C   0  0  0  0  0  0  0  0  0  0  0  0
   -5.9601    0.8419   -1.4723 C   0  0  0  0  0  0  0  0  0  0  0  0
   -7.0849    1.2006   -2.1842 C   0  0  0  0  0  0  0  0  0  0  0  0
   -8.3417    0.7562   -1.7668 C   0  0  0  0  0  0  0  0  0  0  0  0
   -9.4322    1.1262   -2.4878 F   0  0  0  0  0  0  0  0  0  0  0  0
   -8.4197   -0.0354   -0.6445 C   0  0  0  0  0  0  0  0  0  0  0  0
    3.5068    0.0700   -1.0338 C   0  0  0  0  0  0  0  0  0  0  0  0
    2.8931    0.0267   -2.1323 O   0  0  0  0  0  0  0  0  0  0  0  0
    4.7244    0.5731   -0.8842 N   0  0  0  0  0  0  0  0  0  0  0  0
    5.4514    1.1120   -2.0281 C   0  0  0  0  0  0  0  0  0  0  0  0
    6.8189    0.4226   -2.0086 C   0  0  0  0  0  0  0  0  0  0  0  0
    7.6077    0.7293   -0.7813 C   0  0  0  0  0  0  0  0  0  0  0  0
    6.7618    1.2173    0.3691 C   0  0  0  0  0  0  0  0  0  0  0  0
    5.3945    0.6300    0.2782 C   0  0  0  0  0  0  0  0  0  0  0  0
    4.7865    0.1430    1.3562 N   0  0  0  0  0  0  0  0  0  0  0  0
    2.7033    0.0214    3.1413 H   0  0  0  0  0  0  0  0  0  0  0  0
    2.2855   -1.6749    2.4889 H   0  0  0  0  0  0  0  0  0  0  0  0
    3.8638   -1.3128    3.1737 H   0  0  0  0  0  0  0  0  0  0  0  0
    1.2144   -1.3354   -0.9581 H   0  0  0  0  0  0  0  0  0  0  0  0
    1.5606   -2.0133    0.6288 H   0  0  0  0  0  0  0  0  0  0  0  0
    0.7469    0.0150    1.7708 H   0  0  0  0  0  0  0  0  0  0  0  0
    0.4283    0.8451    0.2314 H   0  0  0  0  0  0  0  0  0  0  0  0
   -0.9836   -1.6991   -1.0430 H   0  0  0  0  0  0  0  0  0  0  0  0
   -1.3061    0.0340   -1.1868 H   0  0  0  0  0  0  0  0  0  0  0  0
   -3.0095   -2.2115    0.0324 H   0  0  0  0  0  0  0  0  0  0  0  0
   -3.3849   -1.2806   -1.4286 H   0  0  0  0  0  0  0  0  0  0  0  0
   -3.5161    0.8042   -0.1348 H   0  0  0  0  0  0  0  0  0  0  0  0
   -3.4575   -1.0731    2.3053 H   0  0  0  0  0  0  0  0  0  0  0  0
   -3.4781    0.7121    2.3156 H   0  0  0  0  0  0  0  0  0  0  0  0
   -1.2585    0.9820    1.9059 H   0  0  0  0  0  0  0  0  0  0  0  0
   -1.2517   -0.5866    2.7617 H   0  0  0  0  0  0  0  0  0  0  0  0
   -4.9834    1.1953   -1.8084 H   0  0  0  0  0  0  0  0  0  0  0  0
   -7.0033    1.8178   -3.0568 H   0  0  0  0  0  0  0  0  0  0  0  0
   -9.3758   -0.3968   -0.2912 H   0  0  0  0  0  0  0  0  0  0  0  0
    5.5456    2.1940   -1.9186 H   0  0  0  0  0  0  0  0  0  0  0  0
    4.9479    0.7714   -2.9610 H   0  0  0  0  0  0  0  0  0  0  0  0
    6.6298   -0.6687   -2.0551 H   0  0  0  0  0  0  0  0  0  0  0  0
    7.3950    0.7111   -2.9081 H   0  0  0  0  0  0  0  0  0  0  0  0
    8.3883    1.4857   -1.0034 H   0  0  0  0  0  0  0  0  0  0  0  0
    8.1500   -0.2032   -0.4578 H   0  0  0  0  0  0  0  0  0  0  0  0
    7.2163    0.8811    1.3170 H   0  0  0  0  0  0  0  0  0  0  0  0
    6.7443    2.3342    0.3686 H   0  0  0  0  0  0  0  0  0  0  0  0
  1  2  1  0
  2  3  2  0
  3  4  1  0
  4  5  1  0
  5  6  1  0
  6  7  1  0
  7  8  1  0
  8  9  1  0
  9 10  1  0
 10 11  1  0
  9 12  1  0
 12 13  2  0
 13 14  1  0
 14 15  1  0
 15 16  2  0
 16 17  1  0
 17 18  2  0
 18 19  1  0
 19 20  1  0
 19 21  2  0
  3 22  1  0
 22 23  2  0
 22 24  1  0
 24 25  1  0
 25 26  1  0
 26 27  1  0
 27 28  1  0
 28 29  1  0
 29 30  2  0
 30  2  1  0
 11  6  1  0
 16 12  1  0
 29 24  1  0
 21 15  1  0
  1 31  1  0
  1 32  1  0
  1 33  1  0
  4 34  1  0
  4 35  1  0
  5 36  1  0
  5 37  1  0
  7 38  1  0
  7 39  1  0
  8 40  1  0
  8 41  1  0
  9 42  1  0
 10 43  1  0
 10 44  1  0
 11 45  1  0
 11 46  1  0
 17 47  1  0
 18 48  1  0
 21 49  1  0
 25 50  1  0
 25 51  1  0
 26 52  1  0
 26 53  1  0
 27 54  1  0
 27 55  1  0
 28 56  1  0
 28 57  1  0
M  END
$$$$
