@<TRIPOS>MOLECULE
*****
 66 70 0 0 0
SMALL
GASTEIGER

@<TRIPOS>ATOM
      1 C          -4.7441   -1.2113    2.2302 C.3     1  UNL1       -0.0187
      2 C          -3.9788   -0.3346    1.3162 C.ar    1  UNL1        0.0865
      3 N          -3.9657   -0.4386   -0.0222 N.ar    1  UNL1       -0.1740
      4 N          -3.1824    0.4931   -0.5330 N.ar    1  UNL1       -0.2634
      5 C          -2.9143    0.7056   -1.9471 C.3     1  UNL1        0.0530
      6 C          -4.2396    0.8602   -2.6732 C.3     1  UNL1       -0.0305
      7 C          -4.5953   -0.5749   -2.9956 C.3     1  UNL1       -0.0511
      8 C          -3.2827   -1.1529   -3.4281 C.3     1  UNL1       -0.0511
      9 C          -2.2833   -0.5385   -2.4976 C.3     1  UNL1       -0.0305
     10 C          -2.6623    1.2324    0.4737 C.ar    1  UNL1        0.0630
     11 C          -1.7393    2.3911    0.3288 C.3     1  UNL1       -0.0207
     12 C          -3.1669    0.7083    1.6523 C.ar    1  UNL1        0.1483
     13 S          -2.8572    1.2749    3.2757 S.O2    1  UNL1        0.0621
     14 O          -4.1418    1.0251    4.0614 O.2     1  UNL1       -0.1529
     15 O          -2.6664    2.7683    3.3226 O.2     1  UNL1       -0.1529
     16 N          -1.6229    0.4287    4.0681 N.3     1  UNL1       -0.1856
     17 C          -0.3219    0.4801    3.4733 C.3     1  UNL1        0.0414
     18 C           0.6777    1.2079    4.3664 C.3     1  UNL1       -0.0466
     19 C           0.1385   -0.9364    3.2240 C.3     1  UNL1        0.0259
     20 N           1.4250   -1.0010    2.6353 N.pl3   1  UNL1       -0.3418
     21 C           1.8195   -0.6890    1.3308 C.ar    1  UNL1        0.0380
     22 C           0.9168   -0.2880    0.3724 C.ar    1  UNL1       -0.0401
     23 C           1.2960    0.0044   -0.9431 C.ar    1  UNL1       -0.0580
     24 C           2.6237   -0.1149   -1.2897 C.ar    1  UNL1       -0.0355
     25 C           3.5702   -0.5152   -0.3617 C.ar    1  UNL1        0.0764
     26 C           3.1356   -0.7883    0.9156 C.ar    1  UNL1        0.0410
     27 C           4.2722   -1.1569    1.6110 C.ar    1  UNL1        0.0593
     28 N           5.3099   -1.0927    0.7527 N.ar    1  UNL1       -0.1736
     29 N           4.9069   -0.7086   -0.4390 N.ar    1  UNL1       -0.2306
     30 C           5.6596   -0.5110   -1.6294 C.ar    1  UNL1        0.0842
     31 C           5.3014   -1.1345   -2.8305 C.ar    1  UNL1       -0.0305
     32 C           5.9936   -0.9736   -3.9917 C.ar    1  UNL1       -0.0053
     33 C           7.1019   -0.1572   -3.9875 C.ar    1  UNL1        0.2133
     34 F           7.7663   -0.0190   -5.1570 F       1  UNL1       -0.1839
     35 N           7.4667    0.4531   -2.8464 N.ar    1  UNL1       -0.2255
     36 C           6.7824    0.2956   -1.6929 C.ar    1  UNL1        0.0560
     37 H          -4.4057   -1.1504    3.2815 H       1  UNL1        0.0294
     38 H          -4.7424   -2.2777    1.8713 H       1  UNL1        0.0294
     39 H          -5.8128   -0.9090    2.2065 H       1  UNL1        0.0294
     40 H          -2.2726    1.5864   -2.0845 H       1  UNL1        0.0545
     41 H          -4.1514    1.4955   -3.5639 H       1  UNL1        0.0286
     42 H          -4.9882    1.2357   -1.9266 H       1  UNL1        0.0286
     43 H          -5.3626   -0.6052   -3.8049 H       1  UNL1        0.0266
     44 H          -4.9854   -1.0509   -2.0860 H       1  UNL1        0.0266
     45 H          -3.1209   -0.8418   -4.4954 H       1  UNL1        0.0266
     46 H          -3.2745   -2.2592   -3.3303 H       1  UNL1        0.0266
     47 H          -1.3286   -0.2663   -3.0246 H       1  UNL1        0.0286
     48 H          -1.9690   -1.2566   -1.7040 H       1  UNL1        0.0286
     49 H          -0.6858    2.1004    0.1564 H       1  UNL1        0.0293
     50 H          -2.0671    2.9798   -0.5677 H       1  UNL1        0.0293
     51 H          -1.7834    3.0736    1.2019 H       1  UNL1        0.0293
     52 H          -1.6427    0.6424    5.0805 H       1  UNL1        0.1484
     53 H          -0.3713    1.0555    2.5392 H       1  UNL1        0.0490
     54 H           0.5874    2.2877    4.1356 H       1  UNL1        0.0246
     55 H           1.7199    0.9119    4.1688 H       1  UNL1        0.0246
     56 H           0.3595    1.0921    5.4217 H       1  UNL1        0.0246
     57 H           0.0483   -1.4925    4.1785 H       1  UNL1        0.0477
     58 H          -0.5893   -1.3418    2.4583 H       1  UNL1        0.0477
     59 H           2.2088   -1.3380    3.2832 H       1  UNL1        0.1461
     60 H          -0.1369   -0.1848    0.5710 H       1  UNL1        0.0636
     61 H           0.5627    0.3161   -1.6679 H       1  UNL1        0.0619
     62 H           2.9806    0.0978   -2.2933 H       1  UNL1        0.0639
     63 H           4.2587   -1.4331    2.6497 H       1  UNL1        0.0855
     64 H           4.4239   -1.7647   -2.7813 H       1  UNL1        0.0641
     65 H           5.6387   -1.4975   -4.8683 H       1  UNL1        0.0663
     66 H           7.1031    0.8027   -0.7864 H       1  UNL1        0.0852
@<TRIPOS>BOND
     1     1     2    1
     2     2     3   ar
     3     3     4   ar
     4     4     5    1
     5     5     6    1
     6     6     7    1
     7     7     8    1
     8     8     9    1
     9     4    10   ar
    10    10    11    1
    11    10    12   ar
    12    12    13    1
    13    13    14    2
    14    13    15    2
    15    13    16    1
    16    16    17    1
    17    17    18    1
    18    17    19    1
    19    19    20    1
    20    20    21    1
    21    21    22   ar
    22    22    23   ar
    23    23    24   ar
    24    24    25   ar
    25    25    26   ar
    26    26    27   ar
    27    27    28   ar
    28    28    29   ar
    29    29    30    1
    30    30    31   ar
    31    31    32   ar
    32    32    33   ar
    33    33    34    1
    34    33    35   ar
    35    35    36   ar
    36    12     2   ar
    37    26    21   ar
    38    36    30   ar
    39     9     5    1
    40    29    25   ar
    41     1    37    1
    42     1    38    1
    43     1    39    1
    44     5    40    1
    45     6    41    1
    46     6    42    1
    47     7    43    1
    48     7    44    1
    49     8    45    1
    50     8    46    1
    51     9    47    1
    52     9    48    1
    53    11    49    1
    54    11    50    1
    55    11    51    1
    56    16    52    1
    57    17    53    1
    58    18    54    1
    59    18    55    1
    60    18    56    1
    61    19    57    1
    62    19    58    1
    63    20    59    1
    64    22    60    1
    65    23    61    1
    66    24    62    1
    67    27    63    1
    68    31    64    1
    69    32    65    1
    70    36    66    1
