
     RDKit          3D

 66 70  0  0  0  0  0  0  0  0999 V2000
   -4.7441   -1.2113    2.2302 C   0  0  0  0  0  0  0  0  0  0  0  0
   -3.9788   -0.3346    1.3162 C   0  0  0  0  0  0  0  0  0  0  0  0
   -3.9657   -0.4386   -0.0222 N   0  0  0  0  0  0  0  0  0  0  0  0
   -3.1824    0.4931   -0.5330 N   0  0  0  0  0  0  0  0  0  0  0  0
   -2.9143    0.7056   -1.9471 C   0  0  0  0  0  0  0  0  0  0  0  0
   -4.2396    0.8602   -2.6732 C   0  0  0  0  0  0  0  0  0  0  0  0
   -4.5953   -0.5749   -2.9956 C   0  0  0  0  0  0  0  0  0  0  0  0
   -3.2827   -1.1529   -3.4281 C   0  0  0  0  0  0  0  0  0  0  0  0
   -2.2833   -0.5385   -2.4976 C   0  0  0  0  0  0  0  0  0  0  0  0
   -2.6623    1.2324    0.4737 C   0  0  0  0  0  0  0  0  0  0  0  0
   -1.7393    2.3911    0.3288 C   0  0  0  0  0  0  0  0  0  0  0  0
   -3.1669    0.7083    1.6523 C   0  0  0  0  0  0  0  0  0  0  0  0
   -2.8572    1.2749    3.2757 S   0  0  0  0  0  6  0  0  0  0  0  0
   -4.1418    1.0251    4.0614 O   0  0  0  0  0  0  0  0  0  0  0  0
   -2.6664    2.7683    3.3226 O   0  0  0  0  0  0  0  0  0  0  0  0
   -1.6229    0.4287    4.0681 N   0  0  0  0  0  0  0  0  0  0  0  0
   -0.3219    0.4801    3.4733 C   0  0  1  0  0  0  0  0  0  0  0  0
    0.6777    1.2079    4.3664 C   0  0  0  0  0  0  0  0  0  0  0  0
    0.1385   -0.9364    3.2240 C   0  0  0  0  0  0  0  0  0  0  0  0
    1.4250   -1.0010    2.6353 N   0  0  0  0  0  0  0  0  0  0  0  0
    1.8195   -0.6890    1.3308 C   0  0  0  0  0  0  0  0  0  0  0  0
    0.9168   -0.2880    0.3724 C   0  0  0  0  0  0  0  0  0  0  0  0
    1.2960    0.0044   -0.9431 C   0  0  0  0  0  0  0  0  0  0  0  0
    2.6237   -0.1149   -1.2897 C   0  0  0  0  0  0  0  0  0  0  0  0
    3.5702   -0.5152   -0.3617 C   0  0  0  0  0  0  0  0  0  0  0  0
    3.1356   -0.7883    0.9156 C   0  0  0  0  0  0  0  0  0  0  0  0
    4.2722   -1.1569    1.6110 C   0  0  0  0  0  0  0  0  0  0  0  0
    5.3099   -1.0927    0.7527 N   0  0  0  0  0  0  0  0  0  0  0  0
    4.9069   -0.7086   -0.4390 N   0  0  0  0  0  0  0  0  0  0  0  0
    5.6596   -0.5110   -1.6294 C   0  0  0  0  0  0  0  0  0  0  0  0
    5.3014   -1.1345   -2.8305 C   0  0  0  0  0  0  0  0  0  0  0  0
    5.9936   -0.9736   -3.9917 C   0  0  0  0  0  0  0  0  0  0  0  0
    7.1019   -0.1572   -3.9875 C   0  0  0  0  0  0  0  0  0  0  0  0
    7.7663   -0.0190   -5.1570 F   0  0  0  0  0  0  0  0  0  0  0  0
    7.4667    0.4531   -2.8464 N   0  0  0  0  0  0  0  0  0  0  0  0
    6.7824    0.2956   -1.6929 C   0  0  0  0  0  0  0  0  0  0  0  0
   -4.4057   -1.1504    3.2815 H   0  0  0  0  0  0  0  0  0  0  0  0
   -4.7424   -2.2777    1.8713 H   0  0  0  0  0  0  0  0  0  0  0  0
   -5.8128   -0.9090    2.2065 H   0  0  0  0  0  0  0  0  0  0  0  0
   -2.2726    1.5864   -2.0845 H   0  0  0  0  0  0  0  0  0  0  0  0
   -4.1514    1.4955   -3.5639 H   0  0  0  0  0  0  0  0  0  0  0  0
   -4.9882    1.2357   -1.9266 H   0  0  0  0  0  0  0  0  0  0  0  0
   -5.3626   -0.6052   -3.8049 H   0  0  0  0  0  0  0  0  0  0  0  0
   -4.9854   -1.0509   -2.0860 H   0  0  0  0  0  0  0  0  0  0  0  0
   -3.1209   -0.8418   -4.4954 H   0  0  0  0  0  0  0  0  0  0  0  0
   -3.2745   -2.2592   -3.3303 H   0  0  0  0  0  0  0  0  0  0  0  0
   -1.3286   -0.2663   -3.0246 H   0  0  0  0  0  0  0  0  0  0  0  0
   -1.9690   -1.2566   -1.7040 H   0  0  0  0  0  0  0  0  0  0  0  0
   -0.6858    2.1004    0.1564 H   0  0  0  0  0  0  0  0  0  0  0  0
   -2.0671    2.9798   -0.5677 H   0  0  0  0  0  0  0  0  0  0  0  0
   -1.7834    3.0736    1.2019 H   0  0  0  0  0  0  0  0  0  0  0  0
   -1.6427    0.6424    5.0805 H   0  0  0  0  0  0  0  0  0  0  0  0
   -0.3713    1.0555    2.5392 H   0  0  0  0  0  0  0  0  0  0  0  0
    0.5874    2.2877    4.1356 H   0  0  0  0  0  0  0  0  0  0  0  0
    1.7199    0.9119    4.1688 H   0  0  0  0  0  0  0  0  0  0  0  0
    0.3595    1.0921    5.4217 H   0  0  0  0  0  0  0  0  0  0  0  0
    0.0483   -1.4925    4.1785 H   0  0  0  0  0  0  0  0  0  0  0  0
   -0.5893   -1.3418    2.4583 H   0  0  0  0  0  0  0  0  0  0  0  0
    2.2088   -1.3380    3.2832 H   0  0  0  0  0  0  0  0  0  0  0  0
   -0.1369   -0.1848    0.5710 H   0  0  0  0  0  0  0  0  0  0  0  0
    0.5627    0.3161   -1.6679 H   0  0  0  0  0  0  0  0  0  0  0  0
    2.9806    0.0978   -2.2933 H   0  0  0  0  0  0  0  0  0  0  0  0
    4.2587   -1.4331    2.6497 H   0  0  0  0  0  0  0  0  0  0  0  0
    4.4239   -1.7647   -2.7813 H   0  0  0  0  0  0  0  0  0  0  0  0
    5.6387   -1.4975   -4.8683 H   0  0  0  0  0  0  0  0  0  0  0  0
    7.1031    0.8027   -0.7864 H   0  0  0  0  0  0  0  0  0  0  0  0
  1  2  1  0
  2  3  2  0
  3  4  1  0
  4  5  1  0
  5  6  1  0
  6  7  1  0
  7  8  1  0
  8  9  1  0
  4 10  1  0
 10 11  1  0
 10 12  2  0
 12 13  1  0
 13 14  2  0
 13 15  2  0
 13 16  1  0
 16 17  1  0
 17 18  1  0
 17 19  1  0
 19 20  1  0
 20 21  1  0
 21 22  2  0
 22 23  1  0
 23 24  2  0
 24 25  1  0
 25 26  2  0
 26 27  1  0
 27 28  2  0
 28 29  1  0
 29 30  1  0
 30 31  2  0
 31 32  1  0
 32 33  2  0
 33 34  1  0
 33 35  1  0
 35 36  2  0
 12  2  1  0
 26 21  1  0
 36 30  1  0
  9  5  1  0
 29 25  1  0
  1 37  1  0
  1 38  1  0
  1 39  1  0
  5 40  1  0
  6 41  1  0
  6 42  1  0
  7 43  1  0
  7 44  1  0
  8 45  1  0
  8 46  1  0
  9 47  1  0
  9 48  1  0
 11 49  1  0
 11 50  1  0
 11 51  1  0
 16 52  1  0
 17 53  1  6
 18 54  1  0
 18 55  1  0
 18 56  1  0
 19 57  1  0
 19 58  1  0
 20 59  1  0
 22 60  1  0
 23 61  1  0
 24 62  1  0
 27 63  1  0
 31 64  1  0
 32 65  1  0
 36 66  1  0
M  END
$$$$
