@<TRIPOS>MOLECULE
*****
 50 50 0 0 0
SMALL
GASTEIGER

@<TRIPOS>ATOM
      1 C          -4.5819   -0.1939   -2.2402 C.3     1  UNK1        0.1037
      2 N          -4.7855    1.0390   -2.9914 N.3     1  UNK1       -0.3184
      3 C          -3.2771   -0.1844   -1.5051 C.3     1  UNK1       -0.0190
      4 C          -3.0978   -1.4653   -0.7510 C.3     1  UNK1        0.0249
      5 C          -1.7822   -1.4791   -0.0110 C.2     1  UNK1        0.1832
      6 O          -1.3427   -2.5403    0.7552 O.2     1  UNK1       -0.4956
      7 N          -1.0182   -0.4690   -0.0811 N.2     1  UNK1       -0.2411
      8 C           0.2681   -0.3137    0.5599 C.3     1  UNK1        0.1378
      9 C           0.8943    0.9214   -0.0550 C.3     1  UNK1        0.0251
     10 S           1.0492    0.6092   -1.8353 S.3     1  UNK1       -0.1535
     11 C           2.2597   -0.7345   -2.0860 C.3     1  UNK1        0.0189
     12 C           3.6036   -0.2160   -1.6453 C.ar    1  UNK1       -0.0376
     13 C           4.0631   -0.3459   -0.3543 C.ar    1  UNK1       -0.0578
     14 C           5.2908    0.1274    0.0527 C.ar    1  UNK1       -0.0615
     15 C           6.1058    0.7669   -0.8832 C.ar    1  UNK1       -0.0617
     16 C           5.6584    0.9067   -2.1898 C.ar    1  UNK1       -0.0615
     17 C           4.4254    0.4239   -2.5707 C.ar    1  UNK1       -0.0578
     18 C           0.1278   -0.1781    2.0288 C.2     1  UNK1        0.2092
     19 O          -0.4606   -1.1552    2.8143 O.2     1  UNK1       -0.4942
     20 N           0.5664    0.8793    2.5868 N.2     2  GLY2       -0.2416
     21 CA          0.5221    1.1897    3.9835 C.3     2  GLY2        0.1398
     22 C           1.0675    0.1008    4.8332 C.2     2  GLY2        0.3264
     23 O           1.6204   -1.1441    4.7099 O.3     2  GLY2       -0.4793
     24 OXT         1.0086    0.4077    6.0630 O.2     2  GLY2       -0.2489
     25 C          -5.7666   -0.3681   -1.3483 C.2     1  UNK1        0.3217
     26 O          -6.8023    0.5855   -1.3061 O.3     1  UNK1       -0.4795
     27 O          -6.0887   -1.2891   -0.5229 O.2     1  UNK1       -0.2493
     28 H          -4.6062   -1.0274   -2.9658 H       1  UNK1        0.0574
     29 H          -4.3317    0.9849   -3.9279 H       1  UNK1        0.1190
     30 H          -4.5776    1.8938   -2.4559 H       1  UNK1        0.1190
     31 H          -2.4443    0.0530   -2.1760 H       1  UNK1        0.0290
     32 H          -3.2900    0.6483   -0.7458 H       1  UNK1        0.0290
     33 H          -3.1110   -2.3446   -1.4263 H       1  UNK1        0.0360
     34 H          -3.8803   -1.5539    0.0508 H       1  UNK1        0.0360
     35 H          -0.3941   -2.8878    0.6824 H       1  UNK1        0.2934
     36 H           0.9698   -1.1448    0.3379 H       1  UNK1        0.0651
     37 H           0.1787    1.7818    0.0611 H       1  UNK1        0.0402
     38 H           1.8781    1.1599    0.3945 H       1  UNK1        0.0402
     39 H           2.0331   -1.6215   -1.4462 H       1  UNK1        0.0425
     40 H           2.3144   -1.0562   -3.1259 H       1  UNK1        0.0425
     41 H           3.4151   -0.8432    0.3489 H       1  UNK1        0.0621
     42 H           5.6010   -0.0079    1.0983 H       1  UNK1        0.0618
     43 H           7.0446    1.0997   -0.4638 H       1  UNK1        0.0618
     44 H           6.3498    1.4100   -2.8372 H       1  UNK1        0.0618
     45 H           4.1261    0.5626   -3.6121 H       1  UNK1        0.0621
     46 H          -0.9504   -0.9503    3.6786 H       1  UNK1        0.2935
     47 HA1         1.1702    2.0754    4.1633 H       2  GLY2        0.0625
     48 HA2        -0.4833    1.4516    4.3454 H       2  GLY2        0.0625
     49 H           1.2244   -1.9567    5.1624 H       2  GLY2        0.2951
     50 H          -7.7642    0.3562   -1.1518 H       1  UNK1        0.2951
@<TRIPOS>BOND
     1     1     2    1
     2     1     3    1
     3     3     4    1
     4     4     5    1
     5     5     6    1
     6     5     7    2
     7     7     8    1
     8     8     9    1
     9     9    10    1
    10    10    11    1
    11    11    12    1
    12    12    13   ar
    13    13    14   ar
    14    14    15   ar
    15    15    16   ar
    16    16    17   ar
    17     8    18    1
    18    18    19    1
    19    18    20    2
    20    20    21    1
    21    21    22    1
    22    22    23    1
    23    22    24    2
    24     1    25    1
    25    25    26    1
    26    25    27    2
    27    17    12   ar
    28     1    28    1
    29     2    29    1
    30     2    30    1
    31     3    31    1
    32     3    32    1
    33     4    33    1
    34     4    34    1
    35     6    35    1
    36     8    36    1
    37     9    37    1
    38     9    38    1
    39    11    39    1
    40    11    40    1
    41    13    41    1
    42    14    42    1
    43    15    43    1
    44    16    44    1
    45    17    45    1
    46    19    46    1
    47    21    47    1
    48    21    48    1
    49    23    49    1
    50    26    50    1
