
     RDKit          3D

 57 61  0  0  0  0  0  0  0  0999 V2000
   -7.3398   -1.1713   -1.5771 C   0  0  0  0  0  0  0  0  0  0  0  0
   -5.9003   -0.8845   -1.3488 C   0  0  0  0  0  0  0  0  0  0  0  0
   -4.9241   -1.6361   -1.9675 C   0  0  0  0  0  0  0  0  0  0  0  0
   -3.5900   -1.3335   -1.7259 C   0  0  0  0  0  0  0  0  0  0  0  0
   -3.2222   -0.3034   -0.8854 C   0  0  0  0  0  0  0  0  0  0  0  0
   -1.8066    0.0332   -0.6114 C   0  0  0  0  0  0  0  0  0  0  0  0
   -1.2964    0.8728   -1.3681 O   0  0  0  0  0  0  0  0  0  0  0  0
   -1.0968   -0.5634    0.4362 N   0  0  0  0  0  0  0  0  0  0  0  0
   -1.7583   -1.5309    1.2842 C   0  0  0  0  0  0  0  0  0  0  0  0
   -0.6802   -2.5776    1.6040 C   0  0  0  0  0  0  0  0  0  0  0  0
    0.2350   -2.6324    0.5757 O   0  0  0  0  0  0  0  0  0  0  0  0
    1.0698   -1.5496    0.4868 C   0  0  0  0  0  0  0  0  0  0  0  0
    0.2593   -0.2734    0.7270 C   0  0  1  0  0  0  0  0  0  0  0  0
    0.8744    0.8961    0.0250 C   0  0  0  0  0  0  0  0  0  0  0  0
    2.3043    1.0039    0.5113 C   0  0  0  0  0  0  0  0  0  0  0  0
    3.3536    0.6015   -0.2798 C   0  0  0  0  0  0  0  0  0  0  0  0
    4.6594    0.6964    0.1543 C   0  0  0  0  0  0  0  0  0  0  0  0
    5.7717    0.2687   -0.6874 C   0  0  0  0  0  0  0  0  0  0  0  0
    5.5789   -0.2306   -1.9235 N   0  0  0  0  0  0  0  0  0  0  0  0
    6.6160   -0.6243   -2.6973 C   0  0  0  0  0  0  0  0  0  0  0  0
    7.9178   -0.5311   -2.2527 C   0  0  0  0  0  0  0  0  0  0  0  0
    8.1018   -0.0147   -0.9767 C   0  0  0  0  0  0  0  0  0  0  0  0
    7.0364    0.3632   -0.2458 N   0  0  0  0  0  0  0  0  0  0  0  0
    4.8827    1.2087    1.4107 C   0  0  0  0  0  0  0  0  0  0  0  0
    3.8645    1.6314    2.2555 C   0  0  0  0  0  0  0  0  0  0  0  0
    2.5593    1.5133    1.7654 C   0  0  0  0  0  0  0  0  0  0  0  0
    1.5158    1.9061    2.5345 F   0  0  0  0  0  0  0  0  0  0  0  0
   -4.1912    0.4469   -0.2679 C   0  0  0  0  0  0  0  0  0  0  0  0
   -3.8376    1.5209    0.6054 N   0  0  0  0  0  0  0  0  0  0  0  0
   -2.7581    1.6090    1.3273 N   0  0  0  0  0  0  0  0  0  0  0  0
   -2.8214    2.7615    1.9874 C   0  0  0  0  0  0  0  0  0  0  0  0
   -4.0092    3.3871    1.6315 C   0  0  0  0  0  0  0  0  0  0  0  0
   -4.6216    2.5755    0.7597 N   0  0  0  0  0  0  0  0  0  0  0  0
   -5.5266    0.1526   -0.5025 C   0  0  0  0  0  0  0  0  0  0  0  0
   -7.4383   -2.2227   -1.9384 H   0  0  0  0  0  0  0  0  0  0  0  0
   -7.7093   -0.4398   -2.3096 H   0  0  0  0  0  0  0  0  0  0  0  0
   -7.8790   -1.0404   -0.6315 H   0  0  0  0  0  0  0  0  0  0  0  0
   -5.2052   -2.4444   -2.6266 H   0  0  0  0  0  0  0  0  0  0  0  0
   -2.8036   -1.8961   -2.1892 H   0  0  0  0  0  0  0  0  0  0  0  0
   -2.6370   -1.9809    0.8253 H   0  0  0  0  0  0  0  0  0  0  0  0
   -2.0032   -1.0142    2.2580 H   0  0  0  0  0  0  0  0  0  0  0  0
   -1.2022   -3.5423    1.6480 H   0  0  0  0  0  0  0  0  0  0  0  0
   -0.1957   -2.3545    2.5727 H   0  0  0  0  0  0  0  0  0  0  0  0
    1.9744   -1.5949    1.1004 H   0  0  0  0  0  0  0  0  0  0  0  0
    1.3950   -1.4707   -0.5928 H   0  0  0  0  0  0  0  0  0  0  0  0
    0.4174   -0.0826    1.8396 H   0  0  0  0  0  0  0  0  0  0  0  0
    0.9208    0.7827   -1.0797 H   0  0  0  0  0  0  0  0  0  0  0  0
    0.3272    1.8202    0.2594 H   0  0  0  0  0  0  0  0  0  0  0  0
    3.1629    0.2066   -1.2510 H   0  0  0  0  0  0  0  0  0  0  0  0
    6.4560   -1.0288   -3.7005 H   0  0  0  0  0  0  0  0  0  0  0  0
    8.7601   -0.8422   -2.8611 H   0  0  0  0  0  0  0  0  0  0  0  0
    9.1259    0.0568   -0.6312 H   0  0  0  0  0  0  0  0  0  0  0  0
    5.9267    1.2821    1.7511 H   0  0  0  0  0  0  0  0  0  0  0  0
    4.0549    2.0315    3.2393 H   0  0  0  0  0  0  0  0  0  0  0  0
   -2.0503    3.1018    2.6714 H   0  0  0  0  0  0  0  0  0  0  0  0
   -4.3199    4.3379    2.0155 H   0  0  0  0  0  0  0  0  0  0  0  0
   -6.2979    0.7424   -0.0169 H   0  0  0  0  0  0  0  0  0  0  0  0
  1  2  1  0
  2  3  2  0
  3  4  1  0
  4  5  2  0
  5  6  1  0
  6  7  2  0
  6  8  1  0
  8  9  1  0
  9 10  1  0
 10 11  1  0
 11 12  1  0
 12 13  1  0
 13 14  1  0
 14 15  1  0
 15 16  2  0
 16 17  1  0
 17 18  1  0
 18 19  2  0
 19 20  1  0
 20 21  2  0
 21 22  1  0
 22 23  2  0
 17 24  2  0
 24 25  1  0
 25 26  2  0
 26 27  1  0
  5 28  1  0
 28 29  1  0
 29 30  1  0
 30 31  2  0
 31 32  1  0
 32 33  2  0
 28 34  2  0
 34  2  1  0
 13  8  1  0
 26 15  1  0
 33 29  1  0
 23 18  1  0
  1 35  1  0
  1 36  1  0
  1 37  1  0
  3 38  1  0
  4 39  1  0
  9 40  1  0
  9 41  1  0
 10 42  1  0
 10 43  1  0
 12 44  1  0
 12 45  1  0
 13 46  1  1
 14 47  1  0
 14 48  1  0
 16 49  1  0
 20 50  1  0
 21 51  1  0
 22 52  1  0
 24 53  1  0
 25 54  1  0
 31 55  1  0
 32 56  1  0
 34 57  1  0
M  END
$$$$
