@<TRIPOS>MOLECULE
*****
 57 61 0 0 0
SMALL
GASTEIGER

@<TRIPOS>ATOM
      1 C          -7.3398   -1.1713   -1.5771 C.3     1  UNL1       -0.0396
      2 C          -5.9003   -0.8845   -1.3488 C.ar    1  UNL1       -0.0483
      3 C          -4.9241   -1.6361   -1.9675 C.ar    1  UNL1       -0.0580
      4 C          -3.5900   -1.3335   -1.7259 C.ar    1  UNL1       -0.0473
      5 C          -3.2222   -0.3034   -0.8854 C.ar    1  UNL1        0.0640
      6 C          -1.8066    0.0332   -0.6114 C.2     1  UNL1        0.2491
      7 O          -1.2964    0.8728   -1.3681 O.2     1  UNL1       -0.2699
      8 N          -1.0968   -0.5634    0.4362 N.am    1  UNL1       -0.2897
      9 C          -1.7583   -1.5309    1.2842 C.3     1  UNL1        0.0388
     10 C          -0.6802   -2.5776    1.6040 C.3     1  UNL1        0.0635
     11 O           0.2350   -2.6324    0.5757 O.3     1  UNL1       -0.3764
     12 C           1.0698   -1.5496    0.4868 C.3     1  UNL1        0.0666
     13 C           0.2593   -0.2734    0.7270 C.3     1  UNL1        0.0537
     14 C           0.8744    0.8961    0.0250 C.3     1  UNL1       -0.0041
     15 C           2.3043    1.0039    0.5113 C.ar    1  UNL1       -0.0097
     16 C           3.3536    0.6015   -0.2798 C.ar    1  UNL1       -0.0451
     17 C           4.6594    0.6964    0.1543 C.ar    1  UNL1        0.0195
     18 C           5.7717    0.2687   -0.6874 C.ar    1  UNL1        0.1597
     19 N           5.5789   -0.2306   -1.9235 N.ar    1  UNL1       -0.2357
     20 C           6.6160   -0.6243   -2.6973 C.ar    1  UNL1        0.0314
     21 C           7.9178   -0.5311   -2.2527 C.ar    1  UNL1       -0.0254
     22 C           8.1018   -0.0147   -0.9767 C.ar    1  UNL1        0.0314
     23 N           7.0364    0.3632   -0.2458 N.ar    1  UNL1       -0.2357
     24 C           4.8827    1.2087    1.4107 C.ar    1  UNL1       -0.0483
     25 C           3.8645    1.6314    2.2555 C.ar    1  UNL1       -0.0255
     26 C           2.5593    1.5133    1.7654 C.ar    1  UNL1        0.1267
     27 F           1.5158    1.9061    2.5345 F       1  UNL1       -0.2052
     28 C          -4.1912    0.4469   -0.2679 C.ar    1  UNL1        0.0985
     29 N          -3.8376    1.5209    0.6054 N.ar    1  UNL1       -0.1496
     30 N          -2.7581    1.6090    1.3273 N.ar    1  UNL1       -0.1556
     31 C          -2.8214    2.7615    1.9874 C.ar    1  UNL1        0.0697
     32 C          -4.0092    3.3871    1.6315 C.ar    1  UNL1        0.0697
     33 N          -4.6216    2.5755    0.7597 N.ar    1  UNL1       -0.1556
     34 C          -5.5266    0.1526   -0.5025 C.ar    1  UNL1       -0.0309
     35 H          -7.4383   -2.2227   -1.9384 H       1  UNL1        0.0278
     36 H          -7.7093   -0.4398   -2.3096 H       1  UNL1        0.0278
     37 H          -7.8790   -1.0404   -0.6315 H       1  UNL1        0.0278
     38 H          -5.2052   -2.4444   -2.6266 H       1  UNL1        0.0620
     39 H          -2.8036   -1.8961   -2.1892 H       1  UNL1        0.0626
     40 H          -2.6370   -1.9809    0.8253 H       1  UNL1        0.0487
     41 H          -2.0032   -1.0142    2.2580 H       1  UNL1        0.0487
     42 H          -1.2022   -3.5423    1.6480 H       1  UNL1        0.0575
     43 H          -0.1957   -2.3545    2.5727 H       1  UNL1        0.0575
     44 H           1.9744   -1.5949    1.1004 H       1  UNL1        0.0578
     45 H           1.3950   -1.4707   -0.5928 H       1  UNL1        0.0578
     46 H           0.4174   -0.0826    1.8396 H       1  UNL1        0.0526
     47 H           0.9208    0.7827   -1.0797 H       1  UNL1        0.0333
     48 H           0.3272    1.8202    0.2594 H       1  UNL1        0.0333
     49 H           3.1629    0.2066   -1.2510 H       1  UNL1        0.0628
     50 H           6.4560   -1.0288   -3.7005 H       1  UNL1        0.0831
     51 H           8.7601   -0.8422   -2.8611 H       1  UNL1        0.0648
     52 H           9.1259    0.0568   -0.6312 H       1  UNL1        0.0831
     53 H           5.9267    1.2821    1.7511 H       1  UNL1        0.0625
     54 H           4.0549    2.0315    3.2393 H       1  UNL1        0.0646
     55 H          -2.0503    3.1018    2.6714 H       1  UNL1        0.0864
     56 H          -4.3199    4.3379    2.0155 H       1  UNL1        0.0864
     57 H          -6.2979    0.7424   -0.0169 H       1  UNL1        0.0642
@<TRIPOS>BOND
     1     1     2    1
     2     2     3   ar
     3     3     4   ar
     4     4     5   ar
     5     5     6    1
     6     6     7    2
     7     6     8   am
     8     8     9    1
     9     9    10    1
    10    10    11    1
    11    11    12    1
    12    12    13    1
    13    13    14    1
    14    14    15    1
    15    15    16   ar
    16    16    17   ar
    17    17    18    1
    18    18    19   ar
    19    19    20   ar
    20    20    21   ar
    21    21    22   ar
    22    22    23   ar
    23    17    24   ar
    24    24    25   ar
    25    25    26   ar
    26    26    27    1
    27     5    28   ar
    28    28    29    1
    29    29    30   ar
    30    30    31   ar
    31    31    32   ar
    32    32    33   ar
    33    28    34   ar
    34    34     2   ar
    35    13     8    1
    36    26    15   ar
    37    33    29   ar
    38    23    18   ar
    39     1    35    1
    40     1    36    1
    41     1    37    1
    42     3    38    1
    43     4    39    1
    44     9    40    1
    45     9    41    1
    46    10    42    1
    47    10    43    1
    48    12    44    1
    49    12    45    1
    50    13    46    1
    51    14    47    1
    52    14    48    1
    53    16    49    1
    54    20    50    1
    55    21    51    1
    56    22    52    1
    57    24    53    1
    58    25    54    1
    59    31    55    1
    60    32    56    1
    61    34    57    1
