@<TRIPOS>MOLECULE
*****
 43 43 0 0 0
SMALL
GASTEIGER

@<TRIPOS>ATOM
      1 C           5.3309   -1.2720    0.3418 C.3     1  UNL1        0.0364
      2 O           4.6198   -0.5203    1.2481 O.3     1  UNL1       -0.3830
      3 C           3.3702   -0.1883    0.7863 C.3     1  UNL1        0.0473
      4 C           2.5080   -1.3615    0.4857 C.3     1  UNL1       -0.0291
      5 C           1.1152   -0.9884   -0.0261 C.3     1  UNL1       -0.0454
      6 C           0.3274   -0.1759    0.9491 C.3     1  UNL1       -0.0066
      7 C          -1.0384    0.1894    0.4842 C.2     1  UNL1        0.0872
      8 N          -1.2307    1.4728    0.2840 N.2     1  UNL1       -0.0890
      9 O          -0.2548    2.3931    0.4868 O.2     1  UNL1       -0.3923
     10 C           0.1972    3.3092   -0.4836 C.3     1  UNL1        0.1301
     11 C           1.2845    4.2236   -0.0143 C.3     1  UNL1        0.0302
     12 N           1.6359    5.1049   -1.1362 N.3     1  UNL1       -0.3270
     13 C          -2.1507   -0.7009    0.2029 C.ar    1  UNL1       -0.0006
     14 C          -2.1779   -2.0670    0.3713 C.ar    1  UNL1       -0.0522
     15 C          -3.2256   -2.8869    0.0892 C.ar    1  UNL1       -0.0495
     16 C          -4.3679   -2.3313   -0.4072 C.ar    1  UNL1        0.0548
     17 C          -4.4137   -0.9688   -0.6016 C.ar    1  UNL1       -0.0495
     18 C          -3.3245   -0.1860   -0.2996 C.ar    1  UNL1       -0.0522
     19 C          -5.5704   -3.1317   -0.7493 C.3     1  UNL1        0.4174
     20 F          -5.5646   -4.2782    0.0176 F       1  UNL1       -0.1659
     21 F          -5.5822   -3.5174   -2.0745 F       1  UNL1       -0.1659
     22 F          -6.7039   -2.4256   -0.4115 F       1  UNL1       -0.1659
     23 H           5.4711   -0.7484   -0.6352 H       1  UNL1        0.0523
     24 H           6.3441   -1.5065    0.7724 H       1  UNL1        0.0523
     25 H           4.8497   -2.2345    0.1558 H       1  UNL1        0.0523
     26 H           2.8299    0.4664    1.5180 H       1  UNL1        0.0560
     27 H           3.4942    0.4797   -0.1131 H       1  UNL1        0.0560
     28 H           2.9672   -1.9089   -0.3930 H       1  UNL1        0.0287
     29 H           2.4214   -2.0850    1.2976 H       1  UNL1        0.0287
     30 H           0.6681   -1.9499   -0.3246 H       1  UNL1        0.0270
     31 H           1.3481   -0.3780   -0.9584 H       1  UNL1        0.0270
     32 H           0.1500   -0.8509    1.8390 H       1  UNL1        0.0329
     33 H           0.8867    0.7249    1.2465 H       1  UNL1        0.0329
     34 H          -0.6812    3.9498   -0.7526 H       1  UNL1        0.0736
     35 H           0.5321    2.7925   -1.4026 H       1  UNL1        0.0736
     36 H           0.9514    4.8923    0.8035 H       1  UNL1        0.0456
     37 H           2.2091    3.6806    0.2632 H       1  UNL1        0.0456
     38 H           2.6304    5.0169   -1.4200 H       1  UNL1        0.1183
     39 H           1.3720    6.0839   -0.9809 H       1  UNL1        0.1183
     40 H          -1.2959   -2.5439    0.7733 H       1  UNL1        0.0624
     41 H          -3.1703   -3.9563    0.2491 H       1  UNL1        0.0623
     42 H          -5.3226   -0.5087   -0.9987 H       1  UNL1        0.0623
     43 H          -3.4394    0.8915   -0.4825 H       1  UNL1        0.0624
@<TRIPOS>BOND
     1     1     2    1
     2     2     3    1
     3     3     4    1
     4     4     5    1
     5     5     6    1
     6     6     7    1
     7     7     8    2
     8     8     9    1
     9     9    10    1
    10    10    11    1
    11    11    12    1
    12     7    13    1
    13    13    14   ar
    14    14    15   ar
    15    15    16   ar
    16    16    17   ar
    17    17    18   ar
    18    16    19    1
    19    19    20    1
    20    19    21    1
    21    19    22    1
    22    18    13   ar
    23     1    23    1
    24     1    24    1
    25     1    25    1
    26     3    26    1
    27     3    27    1
    28     4    28    1
    29     4    29    1
    30     5    30    1
    31     5    31    1
    32     6    32    1
    33     6    33    1
    34    10    34    1
    35    10    35    1
    36    11    36    1
    37    11    37    1
    38    12    38    1
    39    12    39    1
    40    14    40    1
    41    15    41    1
    42    17    42    1
    43    18    43    1
