@<TRIPOS>MOLECULE
*****
 60 63 0 0 0
SMALL
GASTEIGER

@<TRIPOS>ATOM
      1 C           6.7111    2.2701   -1.3055 C.3     1  UNL1       -0.0241
      2 C           6.4063    0.8454   -0.9925 C.ar    1  UNL1        0.0181
      3 N           7.2522   -0.1820   -0.9589 N.ar    1  UNL1       -0.3429
      4 C           6.6141   -1.3169   -0.6371 C.ar    1  UNL1        0.1424
      5 N           6.9670   -2.5855   -0.4481 N.ar    1  UNL1       -0.2179
      6 C           6.0781   -3.5215   -0.0968 C.ar    1  UNL1        0.1189
      7 N           4.7821   -3.2384    0.0842 N.ar    1  UNL1       -0.2347
      8 C           4.3554   -1.9458   -0.0979 C.ar    1  UNL1        0.0837
      9 C           2.9416   -1.6437    0.0997 C.ar    1  UNL1        0.0039
     10 C           2.3155   -1.8966    1.3167 C.ar    1  UNL1       -0.0506
     11 C           0.9619   -1.6557    1.3916 C.ar    1  UNL1       -0.0370
     12 C           0.2371   -1.1853    0.3230 C.ar    1  UNL1        0.0702
     13 N          -1.1727   -0.9387    0.4212 N.am    1  UNL1       -0.2665
     14 C          -1.5858    0.3804    0.8244 C.2     1  UNL1        0.3108
     15 O          -0.6767    1.2222    1.0588 O.2     1  UNL1       -0.2519
     16 N          -2.9510    0.6795    0.9380 N.am    1  UNL1       -0.2541
     17 C          -3.8974   -0.4327    0.7266 C.3     1  UNL1        0.0340
     18 C          -4.2709   -0.5268   -0.7279 C.3     1  UNL1        0.0146
     19 N          -5.2019   -1.6028   -0.9790 N.3     1  UNL1       -0.3068
     20 C          -4.5550   -2.8762   -0.7725 C.3     1  UNL1       -0.0130
     21 C          -5.7876   -1.4874   -2.2790 C.3     1  UNL1       -0.0130
     22 C          -3.4582    1.9651    1.2723 C.ar    1  UNL1        0.0379
     23 C          -2.6989    3.0314    1.6534 C.ar    1  UNL1       -0.0388
     24 C          -3.2901    4.2790    1.9431 C.ar    1  UNL1       -0.0416
     25 C          -4.6418    4.4823    1.8578 C.ar    1  UNL1        0.0411
     26 CL         -5.3724    6.0346    2.2189 Cl      1  UNL1       -0.0835
     27 C          -5.4117    3.4196    1.4769 C.ar    1  UNL1       -0.0416
     28 C          -4.8307    2.1924    1.1917 C.ar    1  UNL1       -0.0388
     29 C           0.8630   -0.9394   -0.8725 C.ar    1  UNL1        0.1451
     30 F           0.1544   -0.4681   -1.9593 F       1  UNL1       -0.2035
     31 C           2.2149   -1.1736   -0.9680 C.ar    1  UNL1       -0.0154
     32 C           5.2623   -0.9722   -0.4567 C.ar    1  UNL1        0.0478
     33 C           5.1193    0.3757   -0.6738 C.ar    1  UNL1       -0.0189
     34 C           3.9134    1.2333   -0.5705 C.3     1  UNL1       -0.0373
     35 H           5.7875    2.7668   -1.6843 H       1  UNL1        0.0292
     36 H           6.9999    2.8191   -0.3830 H       1  UNL1        0.0292
     37 H           7.4738    2.3333   -2.1035 H       1  UNL1        0.0292
     38 H           8.2857   -0.1158   -1.1587 H       1  UNL1        0.1670
     39 H           6.3933   -4.5661    0.0564 H       1  UNL1        0.1048
     40 H           2.9134   -2.2648    2.1352 H       1  UNL1        0.0625
     41 H           0.4870   -1.8615    2.3622 H       1  UNL1        0.0637
     42 H          -1.8093   -1.7163    0.1914 H       1  UNL1        0.1565
     43 H          -3.4213   -1.3464    1.0871 H       1  UNL1        0.0482
     44 H          -4.7992   -0.3100    1.3685 H       1  UNL1        0.0482
     45 H          -3.3532   -0.7616   -1.3318 H       1  UNL1        0.0442
     46 H          -4.6806    0.4247   -1.0913 H       1  UNL1        0.0442
     47 H          -3.7512   -2.9778   -1.5300 H       1  UNL1        0.0391
     48 H          -5.3201   -3.6531   -1.0648 H       1  UNL1        0.0391
     49 H          -4.1810   -3.0237    0.2380 H       1  UNL1        0.0391
     50 H          -5.4061   -2.2625   -2.9773 H       1  UNL1        0.0391
     51 H          -6.8954   -1.4989   -2.2622 H       1  UNL1        0.0391
     52 H          -5.4960   -0.4906   -2.7038 H       1  UNL1        0.0391
     53 H          -1.6268    2.9401    1.7493 H       1  UNL1        0.0637
     54 H          -2.6382    5.0901    2.2408 H       1  UNL1        0.0633
     55 H          -6.4764    3.5653    1.4065 H       1  UNL1        0.0633
     56 H          -5.4908    1.4059    0.8937 H       1  UNL1        0.0637
     57 H           2.7148   -0.9826   -1.9314 H       1  UNL1        0.0653
     58 H           3.3331    1.3389   -1.4831 H       1  UNL1        0.0278
     59 H           3.2967    1.0380    0.3308 H       1  UNL1        0.0278
     60 H           4.3137    2.2874   -0.3643 H       1  UNL1        0.0278
@<TRIPOS>BOND
     1     1     2    1
     2     2     3   ar
     3     3     4   ar
     4     4     5   ar
     5     5     6   ar
     6     6     7   ar
     7     7     8   ar
     8     8     9    1
     9     9    10   ar
    10    10    11   ar
    11    11    12   ar
    12    12    13    1
    13    13    14   am
    14    14    15    2
    15    14    16   am
    16    16    17    1
    17    17    18    1
    18    18    19    1
    19    19    20    1
    20    19    21    1
    21    16    22    1
    22    22    23   ar
    23    23    24   ar
    24    24    25   ar
    25    25    26    1
    26    25    27   ar
    27    27    28   ar
    28    12    29   ar
    29    29    30    1
    30    29    31   ar
    31     8    32   ar
    32    32    33   ar
    33    33    34    1
    34    33     2   ar
    35    32     4   ar
    36    31     9   ar
    37    28    22   ar
    38     1    35    1
    39     1    36    1
    40     1    37    1
    41     3    38    1
    42     6    39    1
    43    10    40    1
    44    11    41    1
    45    13    42    1
    46    17    43    1
    47    17    44    1
    48    18    45    1
    49    18    46    1
    50    20    47    1
    51    20    48    1
    52    20    49    1
    53    21    50    1
    54    21    51    1
    55    21    52    1
    56    23    53    1
    57    24    54    1
    58    27    55    1
    59    28    56    1
    60    31    57    1
    61    34    58    1
    62    34    59    1
    63    34    60    1
