@<TRIPOS>MOLECULE
*****
 49 52 0 0 0
SMALL
GASTEIGER

@<TRIPOS>ATOM
      1 O           6.5179   -2.2871    0.5872 O.2     1  UNL1       -0.2434
      2 C           6.4682   -1.0846    0.9710 C.2     1  UNL1        0.3553
      3 OXT         7.5773   -0.5964    1.6370 O.3     1  UNL1       -0.4761
      4 CA          5.2774   -0.3020    0.6961 C.ar    1  UNL1        0.1480
      5 C           5.2389    1.0048    1.1170 C.ar    1  UNL1       -0.0292
      6 C           4.0918    1.7411    0.8490 C.ar    1  UNL1       -0.0575
      7 C           3.0485    1.1297    0.1757 C.ar    1  UNL1       -0.0360
      8 C           3.1152   -0.1819   -0.2343 C.ar    1  UNL1        0.0682
      9 C           1.9754   -0.7563   -0.9228 C.2     1  UNL1       -0.0181
     10 C           0.6879   -0.6537   -0.6327 C.2     1  UNL1       -0.0315
     11 C           0.0440    0.0556    0.4538 C.ar    1  UNL1        0.0215
     12 C           0.5415    0.1202    1.7257 C.ar    1  UNL1       -0.0325
     13 C          -0.1139    0.8037    2.7474 C.ar    1  UNL1        0.0418
     14 CL          0.5095    0.8922    4.3659 Cl      1  UNL1       -0.0835
     15 C          -1.3049    1.4370    2.4706 C.ar    1  UNL1       -0.0399
     16 C          -1.8401    1.3960    1.2036 C.ar    1  UNL1       -0.0179
     17 C          -1.1704    0.7138    0.2147 C.ar    1  UNL1        0.1284
     18 O          -1.6882    0.6672   -1.0460 O.3     1  UNL1       -0.4867
     19 C          -2.8679    1.2134   -1.5273 C.3     1  UNL1        0.1173
     20 C          -4.0904    0.6778   -0.9061 C.ar    1  UNL1        0.0250
     21 C          -4.0636   -0.4154   -0.0769 C.ar    1  UNL1       -0.0499
     22 C          -5.2334   -0.9019    0.4656 C.ar    1  UNL1       -0.0259
     23 C          -6.4370   -0.2998    0.1832 C.ar    1  UNL1        0.1261
     24 F          -7.6014   -0.7826    0.7178 F       1  UNL1       -0.2054
     25 C          -6.4914    0.7884   -0.6381 C.ar    1  UNL1        0.0092
     26 C          -5.2973    1.2711   -1.1806 C.ar    1  UNL1        0.1325
     27 F          -5.4208    2.3535   -1.9889 F       1  UNL1       -0.2050
     28 C          -0.1195   -1.4150   -1.6561 C.3     1  UNL1       -0.0264
     29 C           0.8835   -2.4712   -2.0543 C.3     1  UNL1       -0.0450
     30 C           2.1483   -1.6135   -2.1554 C.3     1  UNL1       -0.0251
     31 N           4.2338   -0.8713    0.0366 N.ar    1  UNL1       -0.2404
     32 HXT         8.3804   -1.1861    1.8613 H       1  UNL1        0.2955
     33 H           6.0533    1.4821    1.6436 H       1  UNL1        0.0641
     34 H           4.0526    2.7543    1.1713 H       1  UNL1        0.0619
     35 H           2.1782    1.7460   -0.0102 H       1  UNL1        0.0639
     36 H           1.4575   -0.3579    2.0069 H       1  UNL1        0.0639
     37 H          -1.8547    1.9846    3.2391 H       1  UNL1        0.0633
     38 H          -2.7722    1.9057    1.0130 H       1  UNL1        0.0655
     39 H          -2.9934    1.0989   -2.6316 H       1  UNL1        0.0749
     40 H          -2.7808    2.3316   -1.3983 H       1  UNL1        0.0749
     41 H          -3.1518   -0.9414    0.1843 H       1  UNL1        0.0623
     42 H          -5.2801   -1.7621    1.1289 H       1  UNL1        0.0646
     43 H          -7.4418    1.2483   -0.8532 H       1  UNL1        0.0675
     44 H          -1.0584   -1.7943   -1.2685 H       1  UNL1        0.0314
     45 H          -0.2405   -0.7348   -2.5482 H       1  UNL1        0.0314
     46 H           1.0370   -3.1320   -1.1913 H       1  UNL1        0.0272
     47 H           0.6554   -2.9827   -2.9877 H       1  UNL1        0.0272
     48 H           2.1124   -1.0186   -3.0683 H       1  UNL1        0.0314
     49 H           3.0281   -2.2742   -2.0619 H       1  UNL1        0.0314
@<TRIPOS>BOND
     1     1     2    2
     2     2     3    1
     3     2     4    1
     4     4     5   ar
     5     5     6   ar
     6     6     7   ar
     7     7     8   ar
     8     8     9    1
     9     9    10    2
    10    10    11    1
    11    11    12   ar
    12    12    13   ar
    13    13    14    1
    14    13    15   ar
    15    15    16   ar
    16    16    17   ar
    17    17    18    1
    18    18    19    1
    19    19    20    1
    20    20    21   ar
    21    21    22   ar
    22    22    23   ar
    23    23    24    1
    24    23    25   ar
    25    25    26   ar
    26    26    27    1
    27    10    28    1
    28    28    29    1
    29    29    30    1
    30     8    31   ar
    31    31     4   ar
    32    30     9    1
    33    17    11   ar
    34    26    20   ar
    35     3    32    1
    36     5    33    1
    37     6    34    1
    38     7    35    1
    39    12    36    1
    40    15    37    1
    41    16    38    1
    42    19    39    1
    43    19    40    1
    44    21    41    1
    45    22    42    1
    46    25    43    1
    47    28    44    1
    48    28    45    1
    49    29    46    1
    50    29    47    1
    51    30    48    1
    52    30    49    1
