
     RDKit          3D

 49 52  0  0  0  0  0  0  0  0999 V2000
    6.5179   -2.2871    0.5872 O   0  0  0  0  0  0  0  0  0  0  0  0
    6.4682   -1.0846    0.9710 C   0  0  0  0  0  0  0  0  0  0  0  0
    7.5773   -0.5964    1.6370 O   0  0  0  0  0  0  0  0  0  0  0  0
    5.2774   -0.3020    0.6961 C   0  0  0  0  0  0  0  0  0  0  0  0
    5.2389    1.0048    1.1170 C   0  0  0  0  0  0  0  0  0  0  0  0
    4.0918    1.7411    0.8490 C   0  0  0  0  0  0  0  0  0  0  0  0
    3.0485    1.1297    0.1757 C   0  0  0  0  0  0  0  0  0  0  0  0
    3.1152   -0.1819   -0.2343 C   0  0  0  0  0  0  0  0  0  0  0  0
    1.9754   -0.7563   -0.9228 C   0  0  0  0  0  0  0  0  0  0  0  0
    0.6879   -0.6537   -0.6327 C   0  0  0  0  0  0  0  0  0  0  0  0
    0.0440    0.0556    0.4538 C   0  0  0  0  0  0  0  0  0  0  0  0
    0.5415    0.1202    1.7257 C   0  0  0  0  0  0  0  0  0  0  0  0
   -0.1139    0.8037    2.7474 C   0  0  0  0  0  0  0  0  0  0  0  0
    0.5095    0.8922    4.3659 Cl  0  0  0  0  0  0  0  0  0  0  0  0
   -1.3049    1.4370    2.4706 C   0  0  0  0  0  0  0  0  0  0  0  0
   -1.8401    1.3960    1.2036 C   0  0  0  0  0  0  0  0  0  0  0  0
   -1.1704    0.7138    0.2147 C   0  0  0  0  0  0  0  0  0  0  0  0
   -1.6882    0.6672   -1.0460 O   0  0  0  0  0  0  0  0  0  0  0  0
   -2.8679    1.2134   -1.5273 C   0  0  0  0  0  0  0  0  0  0  0  0
   -4.0904    0.6778   -0.9061 C   0  0  0  0  0  0  0  0  0  0  0  0
   -4.0636   -0.4154   -0.0769 C   0  0  0  0  0  0  0  0  0  0  0  0
   -5.2334   -0.9019    0.4656 C   0  0  0  0  0  0  0  0  0  0  0  0
   -6.4370   -0.2998    0.1832 C   0  0  0  0  0  0  0  0  0  0  0  0
   -7.6014   -0.7826    0.7178 F   0  0  0  0  0  0  0  0  0  0  0  0
   -6.4914    0.7884   -0.6381 C   0  0  0  0  0  0  0  0  0  0  0  0
   -5.2973    1.2711   -1.1806 C   0  0  0  0  0  0  0  0  0  0  0  0
   -5.4208    2.3535   -1.9889 F   0  0  0  0  0  0  0  0  0  0  0  0
   -0.1195   -1.4150   -1.6561 C   0  0  0  0  0  0  0  0  0  0  0  0
    0.8835   -2.4712   -2.0543 C   0  0  0  0  0  0  0  0  0  0  0  0
    2.1483   -1.6135   -2.1554 C   0  0  0  0  0  0  0  0  0  0  0  0
    4.2338   -0.8713    0.0366 N   0  0  0  0  0  0  0  0  0  0  0  0
    8.3804   -1.1861    1.8613 H   0  0  0  0  0  0  0  0  0  0  0  0
    6.0533    1.4821    1.6436 H   0  0  0  0  0  0  0  0  0  0  0  0
    4.0526    2.7543    1.1713 H   0  0  0  0  0  0  0  0  0  0  0  0
    2.1782    1.7460   -0.0102 H   0  0  0  0  0  0  0  0  0  0  0  0
    1.4575   -0.3579    2.0069 H   0  0  0  0  0  0  0  0  0  0  0  0
   -1.8547    1.9846    3.2391 H   0  0  0  0  0  0  0  0  0  0  0  0
   -2.7722    1.9057    1.0130 H   0  0  0  0  0  0  0  0  0  0  0  0
   -2.9934    1.0989   -2.6316 H   0  0  0  0  0  0  0  0  0  0  0  0
   -2.7808    2.3316   -1.3983 H   0  0  0  0  0  0  0  0  0  0  0  0
   -3.1518   -0.9414    0.1843 H   0  0  0  0  0  0  0  0  0  0  0  0
   -5.2801   -1.7621    1.1289 H   0  0  0  0  0  0  0  0  0  0  0  0
   -7.4418    1.2483   -0.8532 H   0  0  0  0  0  0  0  0  0  0  0  0
   -1.0584   -1.7943   -1.2685 H   0  0  0  0  0  0  0  0  0  0  0  0
   -0.2405   -0.7348   -2.5482 H   0  0  0  0  0  0  0  0  0  0  0  0
    1.0370   -3.1320   -1.1913 H   0  0  0  0  0  0  0  0  0  0  0  0
    0.6554   -2.9827   -2.9877 H   0  0  0  0  0  0  0  0  0  0  0  0
    2.1124   -1.0186   -3.0683 H   0  0  0  0  0  0  0  0  0  0  0  0
    3.0281   -2.2742   -2.0619 H   0  0  0  0  0  0  0  0  0  0  0  0
  1  2  2  0
  2  3  1  0
  2  4  1  0
  4  5  2  0
  5  6  1  0
  6  7  2  0
  7  8  1  0
  8  9  1  0
  9 10  2  0
 10 11  1  0
 11 12  2  0
 12 13  1  0
 13 14  1  0
 13 15  2  0
 15 16  1  0
 16 17  2  0
 17 18  1  0
 18 19  1  0
 19 20  1  0
 20 21  2  0
 21 22  1  0
 22 23  2  0
 23 24  1  0
 23 25  1  0
 25 26  2  0
 26 27  1  0
 10 28  1  0
 28 29  1  0
 29 30  1  0
  8 31  2  0
 31  4  1  0
 30  9  1  0
 17 11  1  0
 26 20  1  0
  3 32  1  0
  5 33  1  0
  6 34  1  0
  7 35  1  0
 12 36  1  0
 15 37  1  0
 16 38  1  0
 19 39  1  0
 19 40  1  0
 21 41  1  0
 22 42  1  0
 25 43  1  0
 28 44  1  0
 28 45  1  0
 29 46  1  0
 29 47  1  0
 30 48  1  0
 30 49  1  0
M  END
$$$$
