@<TRIPOS>MOLECULE
*****
 52 56 0 0 0
SMALL
GASTEIGER

@<TRIPOS>ATOM
      1 O           5.4943    1.8423    1.6877 O.2     1  UNL1       -0.2918
      2 C           4.9522    1.0692    0.8577 C.2     1  UNL1        0.1704
      3 C           3.5685    1.2384    0.3426 C.3     1  UNL1        0.0506
      4 C           2.8324   -0.0622    0.2638 C.3     1  UNL1        0.1205
      5 C           1.7877   -0.0365   -0.8592 C.3     1  UNL1        0.0034
      6 C           0.8552    1.1399   -0.6360 C.3     1  UNL1        0.0198
      7 N           0.1903    0.9255    0.6183 N.am    1  UNL1       -0.2854
      8 C          -1.2040    0.8964    0.7162 C.2     1  UNL1        0.3024
      9 O          -1.7112    0.6938    1.8721 O.2     1  UNL1       -0.2526
     10 N          -2.1171    1.0696   -0.3392 N.am    1  UNL1       -0.2958
     11 C          -3.5687    1.0155   -0.1019 C.3     1  UNL1        0.0320
     12 C          -4.4302    2.0261   -0.7968 C.3     1  UNL1       -0.0254
     13 C          -4.4728    0.5797   -1.1994 C.3     1  UNL1        0.0043
     14 C          -5.6302   -0.2492   -0.8164 C.ar    1  UNL1       -0.0425
     15 C          -6.1622   -1.2028   -1.6447 C.ar    1  UNL1       -0.0582
     16 C          -7.2526   -1.9761   -1.2712 C.ar    1  UNL1       -0.0615
     17 C          -7.8166   -1.7735   -0.0218 C.ar    1  UNL1       -0.0617
     18 C          -7.3077   -0.8309    0.8239 C.ar    1  UNL1       -0.0615
     19 C          -6.2096   -0.0671    0.4217 C.ar    1  UNL1       -0.0582
     20 C           1.0517    0.7457    1.7816 C.3     1  UNL1        0.0198
     21 C           2.1092   -0.2817    1.5743 C.3     1  UNL1        0.0034
     22 O           3.6613   -1.1701   -0.0126 O.3     1  UNL1       -0.4845
     23 C           5.0272   -1.1774   -0.0674 C.ar    1  UNL1        0.1318
     24 C           5.7433   -2.2843   -0.5489 C.ar    1  UNL1       -0.0192
     25 C           7.1194   -2.2416   -0.5835 C.ar    1  UNL1       -0.0583
     26 C           7.8304   -1.1362   -0.1566 C.ar    1  UNL1       -0.0609
     27 C           7.0981   -0.0642    0.3112 C.ar    1  UNL1       -0.0477
     28 C           5.7167   -0.0653    0.3630 C.ar    1  UNL1        0.0592
     29 H           3.0749    1.9771    0.9781 H       1  UNL1        0.0384
     30 H           3.6847    1.6705   -0.6909 H       1  UNL1        0.0384
     31 H           2.2731   -0.0065   -1.8400 H       1  UNL1        0.0319
     32 H           1.1834   -0.9592   -0.7102 H       1  UNL1        0.0319
     33 H           1.4197    2.0992   -0.6610 H       1  UNL1        0.0466
     34 H           0.1685    1.1392   -1.4978 H       1  UNL1        0.0466
     35 H          -1.7673    1.2399   -1.3035 H       1  UNL1        0.1505
     36 H          -3.8401    0.8293    0.9434 H       1  UNL1        0.0505
     37 H          -5.3522    2.3777   -0.2820 H       1  UNL1        0.0290
     38 H          -3.9832    2.7712   -1.4574 H       1  UNL1        0.0290
     39 H          -4.0665    0.3771   -2.2066 H       1  UNL1        0.0367
     40 H          -5.7225   -1.3590   -2.6158 H       1  UNL1        0.0620
     41 H          -7.6773   -2.7284   -1.9166 H       1  UNL1        0.0618
     42 H          -8.6713   -2.3577    0.3093 H       1  UNL1        0.0618
     43 H          -7.7485   -0.6719    1.8018 H       1  UNL1        0.0618
     44 H          -5.8621    0.6537    1.1336 H       1  UNL1        0.0620
     45 H           0.3915    0.3700    2.6180 H       1  UNL1        0.0466
     46 H           1.4224    1.7269    2.1435 H       1  UNL1        0.0466
     47 H           1.6939   -1.2854    1.6778 H       1  UNL1        0.0319
     48 H           2.8720   -0.1494    2.3759 H       1  UNL1        0.0319
     49 H           5.1815   -3.1575   -0.8862 H       1  UNL1        0.0654
     50 H           7.6599   -3.1193   -0.9643 H       1  UNL1        0.0619
     51 H           8.9074   -1.1239   -0.1923 H       1  UNL1        0.0618
     52 H           7.6032    0.8436    0.6648 H       1  UNL1        0.0626
@<TRIPOS>BOND
     1     1     2    2
     2     2     3    1
     3     3     4    1
     4     4     5    1
     5     5     6    1
     6     6     7    1
     7     7     8   am
     8     8     9    2
     9     8    10   am
    10    10    11    1
    11    11    12    1
    12    12    13    1
    13    13    14    1
    14    14    15   ar
    15    15    16   ar
    16    16    17   ar
    17    17    18   ar
    18    18    19   ar
    19     7    20    1
    20    20    21    1
    21     4    22    1
    22    22    23    1
    23    23    24   ar
    24    24    25   ar
    25    25    26   ar
    26    26    27   ar
    27    27    28   ar
    28    28     2    1
    29    21     4    1
    30    28    23   ar
    31    13    11    1
    32    19    14   ar
    33     3    29    1
    34     3    30    1
    35     5    31    1
    36     5    32    1
    37     6    33    1
    38     6    34    1
    39    10    35    1
    40    11    36    1
    41    12    37    1
    42    12    38    1
    43    13    39    1
    44    15    40    1
    45    16    41    1
    46    17    42    1
    47    18    43    1
    48    19    44    1
    49    20    45    1
    50    20    46    1
    51    21    47    1
    52    21    48    1
    53    24    49    1
    54    25    50    1
    55    26    51    1
    56    27    52    1
