
     RDKit          3D

 52 56  0  0  0  0  0  0  0  0999 V2000
    5.4943    1.8423    1.6877 O   0  0  0  0  0  0  0  0  0  0  0  0
    4.9522    1.0692    0.8577 C   0  0  0  0  0  0  0  0  0  0  0  0
    3.5685    1.2384    0.3426 C   0  0  0  0  0  0  0  0  0  0  0  0
    2.8324   -0.0622    0.2638 C   0  0  0  0  0  0  0  0  0  0  0  0
    1.7877   -0.0365   -0.8592 C   0  0  0  0  0  0  0  0  0  0  0  0
    0.8552    1.1399   -0.6360 C   0  0  0  0  0  0  0  0  0  0  0  0
    0.1903    0.9255    0.6183 N   0  0  0  0  0  0  0  0  0  0  0  0
   -1.2040    0.8964    0.7162 C   0  0  0  0  0  0  0  0  0  0  0  0
   -1.7112    0.6938    1.8721 O   0  0  0  0  0  0  0  0  0  0  0  0
   -2.1171    1.0696   -0.3392 N   0  0  0  0  0  0  0  0  0  0  0  0
   -3.5687    1.0155   -0.1019 C   0  0  1  0  0  0  0  0  0  0  0  0
   -4.4302    2.0261   -0.7968 C   0  0  0  0  0  0  0  0  0  0  0  0
   -4.4728    0.5797   -1.1994 C   0  0  2  0  0  0  0  0  0  0  0  0
   -5.6302   -0.2492   -0.8164 C   0  0  0  0  0  0  0  0  0  0  0  0
   -6.1622   -1.2028   -1.6447 C   0  0  0  0  0  0  0  0  0  0  0  0
   -7.2526   -1.9761   -1.2712 C   0  0  0  0  0  0  0  0  0  0  0  0
   -7.8166   -1.7735   -0.0218 C   0  0  0  0  0  0  0  0  0  0  0  0
   -7.3077   -0.8309    0.8239 C   0  0  0  0  0  0  0  0  0  0  0  0
   -6.2096   -0.0671    0.4217 C   0  0  0  0  0  0  0  0  0  0  0  0
    1.0517    0.7457    1.7816 C   0  0  0  0  0  0  0  0  0  0  0  0
    2.1092   -0.2817    1.5743 C   0  0  0  0  0  0  0  0  0  0  0  0
    3.6613   -1.1701   -0.0126 O   0  0  0  0  0  0  0  0  0  0  0  0
    5.0272   -1.1774   -0.0674 C   0  0  0  0  0  0  0  0  0  0  0  0
    5.7433   -2.2843   -0.5489 C   0  0  0  0  0  0  0  0  0  0  0  0
    7.1194   -2.2416   -0.5835 C   0  0  0  0  0  0  0  0  0  0  0  0
    7.8304   -1.1362   -0.1566 C   0  0  0  0  0  0  0  0  0  0  0  0
    7.0981   -0.0642    0.3112 C   0  0  0  0  0  0  0  0  0  0  0  0
    5.7167   -0.0653    0.3630 C   0  0  0  0  0  0  0  0  0  0  0  0
    3.0749    1.9771    0.9781 H   0  0  0  0  0  0  0  0  0  0  0  0
    3.6847    1.6705   -0.6909 H   0  0  0  0  0  0  0  0  0  0  0  0
    2.2731   -0.0065   -1.8400 H   0  0  0  0  0  0  0  0  0  0  0  0
    1.1834   -0.9592   -0.7102 H   0  0  0  0  0  0  0  0  0  0  0  0
    1.4197    2.0992   -0.6610 H   0  0  0  0  0  0  0  0  0  0  0  0
    0.1685    1.1392   -1.4978 H   0  0  0  0  0  0  0  0  0  0  0  0
   -1.7673    1.2399   -1.3035 H   0  0  0  0  0  0  0  0  0  0  0  0
   -3.8401    0.8293    0.9434 H   0  0  0  0  0  0  0  0  0  0  0  0
   -5.3522    2.3777   -0.2820 H   0  0  0  0  0  0  0  0  0  0  0  0
   -3.9832    2.7712   -1.4574 H   0  0  0  0  0  0  0  0  0  0  0  0
   -4.0665    0.3771   -2.2066 H   0  0  0  0  0  0  0  0  0  0  0  0
   -5.7225   -1.3590   -2.6158 H   0  0  0  0  0  0  0  0  0  0  0  0
   -7.6773   -2.7284   -1.9166 H   0  0  0  0  0  0  0  0  0  0  0  0
   -8.6713   -2.3577    0.3093 H   0  0  0  0  0  0  0  0  0  0  0  0
   -7.7485   -0.6719    1.8018 H   0  0  0  0  0  0  0  0  0  0  0  0
   -5.8621    0.6537    1.1336 H   0  0  0  0  0  0  0  0  0  0  0  0
    0.3915    0.3700    2.6180 H   0  0  0  0  0  0  0  0  0  0  0  0
    1.4224    1.7269    2.1435 H   0  0  0  0  0  0  0  0  0  0  0  0
    1.6939   -1.2854    1.6778 H   0  0  0  0  0  0  0  0  0  0  0  0
    2.8720   -0.1494    2.3759 H   0  0  0  0  0  0  0  0  0  0  0  0
    5.1815   -3.1575   -0.8862 H   0  0  0  0  0  0  0  0  0  0  0  0
    7.6599   -3.1193   -0.9643 H   0  0  0  0  0  0  0  0  0  0  0  0
    8.9074   -1.1239   -0.1923 H   0  0  0  0  0  0  0  0  0  0  0  0
    7.6032    0.8436    0.6648 H   0  0  0  0  0  0  0  0  0  0  0  0
  1  2  2  0
  2  3  1  0
  3  4  1  0
  4  5  1  0
  5  6  1  0
  6  7  1  0
  7  8  1  0
  8  9  2  0
  8 10  1  0
 10 11  1  0
 11 12  1  0
 12 13  1  0
 13 14  1  0
 14 15  2  0
 15 16  1  0
 16 17  2  0
 17 18  1  0
 18 19  2  0
  7 20  1  0
 20 21  1  0
  4 22  1  0
 22 23  1  0
 23 24  2  0
 24 25  1  0
 25 26  2  0
 26 27  1  0
 27 28  2  0
 28  2  1  0
 21  4  1  0
 28 23  1  0
 13 11  1  0
 19 14  1  0
  3 29  1  0
  3 30  1  0
  5 31  1  0
  5 32  1  0
  6 33  1  0
  6 34  1  0
 10 35  1  0
 11 36  1  1
 12 37  1  0
 12 38  1  0
 13 39  1  6
 15 40  1  0
 16 41  1  0
 17 42  1  0
 18 43  1  0
 19 44  1  0
 20 45  1  0
 20 46  1  0
 21 47  1  0
 21 48  1  0
 24 49  1  0
 25 50  1  0
 26 51  1  0
 27 52  1  0
M  END
$$$$
