@<TRIPOS>MOLECULE
*****
 61 63 0 0 0
SMALL
GASTEIGER

@<TRIPOS>ATOM
      1 C           6.9372    1.0266    0.0396 C.3     1  UNL1        0.0563
      2 N           8.0429    0.3099    0.6762 N.3     1  UNL1       -0.3155
      3 C           6.2751    0.1001   -0.8950 C.3     1  UNL1       -0.0241
      4 C           4.7939    0.0383   -0.8988 C.3     1  UNL1       -0.0450
      5 C           4.3349    0.2559    0.5277 C.3     1  UNL1       -0.0132
      6 C           2.9144   -0.0966    0.7541 C.3     1  UNL1        0.0002
      7 N           1.9411    0.6048   -0.0150 N.3     1  UNL1       -0.3142
      8 C           0.5762    0.1395    0.2072 C.3     1  UNL1        0.0118
      9 C           0.3802   -1.2465   -0.3557 C.3     1  UNL1        0.0284
     10 N          -0.9574   -1.7390   -0.1539 N.pl3   1  UNL1       -0.2818
     11 C          -1.0494   -2.8509    0.7392 C.2     1  UNL1        0.1433
     12 CL          0.3408   -3.4979    1.5839 Cl      1  UNL1       -0.0628
     13 C          -2.2254   -3.4159    0.9410 C.2     1  UNL1        0.1730
     14 N          -3.3734   -2.9129    0.2772 N.2     1  UNL1       -0.0472
     15 C          -3.3311   -1.8925   -0.5389 C.2     1  UNL1        0.3343
     16 N          -4.6165   -1.6008   -1.0688 N.pl3   1  UNL1       -0.2275
     17 C          -5.8618   -2.0295   -0.4784 C.3     1  UNL1        0.1469
     18 C          -6.0958   -1.2893    0.8017 C.3     1  UNL1        0.3248
     19 F          -5.0601   -1.5281    1.6752 F       1  UNL1       -0.1945
     20 F          -7.3018   -1.6733    1.3925 F       1  UNL1       -0.1945
     21 C          -6.1629    0.1720    0.4844 C.ar    1  UNL1        0.1131
     22 C          -7.4422    0.6348    0.1754 C.ar    1  UNL1       -0.0344
     23 C          -7.7559    1.9517   -0.1513 C.ar    1  UNL1       -0.0584
     24 C          -6.7201    2.8620   -0.1692 C.ar    1  UNL1       -0.0436
     25 C          -5.4772    2.3555    0.1427 C.ar    1  UNL1        0.0281
     26 N          -5.1867    1.0862    0.4559 N.ar    1  UNL1       -0.2538
     27 C          -2.0884   -1.1479   -0.8369 C.3     1  UNL1        0.2283
     28 O          -2.3070    0.1627   -0.3646 O.3     1  UNL1       -0.3643
     29 C           4.7505    1.6514    0.8998 C.3     1  UNL1        0.0101
     30 C           4.3013    2.7074   -0.0814 C.3     1  UNL1       -0.0493
     31 N           6.1753    1.6344    1.0737 N.3     1  UNL1       -0.2986
     32 H           7.4413    1.8753   -0.5144 H       1  UNL1        0.0626
     33 H           8.2166    0.6308    1.6518 H       1  UNL1        0.1196
     34 H           7.7700   -0.6977    0.7320 H       1  UNL1        0.1196
     35 H           6.5875    0.3551   -1.9480 H       1  UNL1        0.0293
     36 H           6.6480   -0.9607   -0.7681 H       1  UNL1        0.0293
     37 H           4.3889    0.8749   -1.5290 H       1  UNL1        0.0270
     38 H           4.4723   -0.9352   -1.3220 H       1  UNL1        0.0270
     39 H           5.0137   -0.4273    1.1333 H       1  UNL1        0.0328
     40 H           2.8345   -1.1965    0.7510 H       1  UNL1        0.0427
     41 H           2.6979    0.1819    1.8353 H       1  UNL1        0.0427
     42 H           2.1612    0.6415   -1.0394 H       1  UNL1        0.1220
     43 H          -0.0872    0.8274   -0.3533 H       1  UNL1        0.0439
     44 H           0.3552    0.2421    1.2674 H       1  UNL1        0.0439
     45 H           1.1555   -1.9688   -0.0381 H       1  UNL1        0.0477
     46 H           0.5834   -1.1272   -1.4677 H       1  UNL1        0.0477
     47 H          -2.2910   -4.2684    1.6217 H       1  UNL1        0.1156
     48 H          -4.6526   -1.0306   -1.9495 H       1  UNL1        0.2914
     49 H          -6.7062   -1.9395   -1.1952 H       1  UNL1        0.0789
     50 H          -5.8332   -3.1231   -0.2099 H       1  UNL1        0.0789
     51 H          -8.3017   -0.0277    0.1685 H       1  UNL1        0.0637
     52 H          -8.7633    2.2563   -0.3840 H       1  UNL1        0.0619
     53 H          -6.8862    3.9026   -0.4145 H       1  UNL1        0.0633
     54 H          -4.6442    3.0507    0.1351 H       1  UNL1        0.0829
     55 H          -1.9670   -1.1353   -1.9475 H       1  UNL1        0.0940
     56 H          -2.3501    0.7733   -1.1466 H       1  UNL1        0.2123
     57 H           4.2847    1.9036    1.8707 H       1  UNL1        0.0461
     58 H           4.4068    3.7145    0.4182 H       1  UNL1        0.0245
     59 H           3.2481    2.6308   -0.3455 H       1  UNL1        0.0245
     60 H           5.0139    2.7576   -0.9282 H       1  UNL1        0.0245
     61 H           6.4527    1.4476    2.0417 H       1  UNL1        0.1236
@<TRIPOS>BOND
     1     1     2    1
     2     1     3    1
     3     3     4    1
     4     4     5    1
     5     5     6    1
     6     6     7    1
     7     7     8    1
     8     8     9    1
     9     9    10    1
    10    10    11    1
    11    11    12    1
    12    11    13    2
    13    13    14    1
    14    14    15    2
    15    15    16    1
    16    16    17    1
    17    17    18    1
    18    18    19    1
    19    18    20    1
    20    18    21    1
    21    21    22   ar
    22    22    23   ar
    23    23    24   ar
    24    24    25   ar
    25    25    26   ar
    26    15    27    1
    27    27    28    1
    28     5    29    1
    29    29    30    1
    30    29    31    1
    31    31     1    1
    32    27    10    1
    33    26    21   ar
    34     1    32    1
    35     2    33    1
    36     2    34    1
    37     3    35    1
    38     3    36    1
    39     4    37    1
    40     4    38    1
    41     5    39    1
    42     6    40    1
    43     6    41    1
    44     7    42    1
    45     8    43    1
    46     8    44    1
    47     9    45    1
    48     9    46    1
    49    13    47    1
    50    16    48    1
    51    17    49    1
    52    17    50    1
    53    22    51    1
    54    23    52    1
    55    24    53    1
    56    25    54    1
    57    27    55    1
    58    28    56    1
    59    29    57    1
    60    30    58    1
    61    30    59    1
    62    30    60    1
    63    31    61    1
