
     RDKit          3D

 61 63  0  0  0  0  0  0  0  0999 V2000
    6.9372    1.0266    0.0396 C   0  0  1  0  0  0  0  0  0  0  0  0
    8.0429    0.3099    0.6762 N   0  0  0  0  0  0  0  0  0  0  0  0
    6.2751    0.1001   -0.8950 C   0  0  0  0  0  0  0  0  0  0  0  0
    4.7939    0.0383   -0.8988 C   0  0  0  0  0  0  0  0  0  0  0  0
    4.3349    0.2559    0.5277 C   0  0  0  0  0  0  0  0  0  0  0  0
    2.9144   -0.0966    0.7541 C   0  0  0  0  0  0  0  0  0  0  0  0
    1.9411    0.6048   -0.0150 N   0  0  0  0  0  0  0  0  0  0  0  0
    0.5762    0.1395    0.2072 C   0  0  0  0  0  0  0  0  0  0  0  0
    0.3802   -1.2465   -0.3557 C   0  0  0  0  0  0  0  0  0  0  0  0
   -0.9574   -1.7390   -0.1539 N   0  0  0  0  0  0  0  0  0  0  0  0
   -1.0494   -2.8509    0.7392 C   0  0  0  0  0  0  0  0  0  0  0  0
    0.3408   -3.4979    1.5839 Cl  0  0  0  0  0  0  0  0  0  0  0  0
   -2.2254   -3.4159    0.9410 C   0  0  0  0  0  0  0  0  0  0  0  0
   -3.3734   -2.9129    0.2772 N   0  0  0  0  0  0  0  0  0  0  0  0
   -3.3311   -1.8925   -0.5389 C   0  0  0  0  0  0  0  0  0  0  0  0
   -4.6165   -1.6008   -1.0688 N   0  0  0  0  0  0  0  0  0  0  0  0
   -5.8618   -2.0295   -0.4784 C   0  0  0  0  0  0  0  0  0  0  0  0
   -6.0958   -1.2893    0.8017 C   0  0  0  0  0  0  0  0  0  0  0  0
   -5.0601   -1.5281    1.6752 F   0  0  0  0  0  0  0  0  0  0  0  0
   -7.3018   -1.6733    1.3925 F   0  0  0  0  0  0  0  0  0  0  0  0
   -6.1629    0.1720    0.4844 C   0  0  0  0  0  0  0  0  0  0  0  0
   -7.4422    0.6348    0.1754 C   0  0  0  0  0  0  0  0  0  0  0  0
   -7.7559    1.9517   -0.1513 C   0  0  0  0  0  0  0  0  0  0  0  0
   -6.7201    2.8620   -0.1692 C   0  0  0  0  0  0  0  0  0  0  0  0
   -5.4772    2.3555    0.1427 C   0  0  0  0  0  0  0  0  0  0  0  0
   -5.1867    1.0862    0.4559 N   0  0  0  0  0  0  0  0  0  0  0  0
   -2.0884   -1.1479   -0.8369 C   0  0  0  0  0  0  0  0  0  0  0  0
   -2.3070    0.1627   -0.3646 O   0  0  0  0  0  0  0  0  0  0  0  0
    4.7505    1.6514    0.8998 C   0  0  0  0  0  0  0  0  0  0  0  0
    4.3013    2.7074   -0.0814 C   0  0  0  0  0  0  0  0  0  0  0  0
    6.1753    1.6344    1.0737 N   0  0  0  0  0  0  0  0  0  0  0  0
    7.4413    1.8753   -0.5144 H   0  0  0  0  0  0  0  0  0  0  0  0
    8.2166    0.6308    1.6518 H   0  0  0  0  0  0  0  0  0  0  0  0
    7.7700   -0.6977    0.7320 H   0  0  0  0  0  0  0  0  0  0  0  0
    6.5875    0.3551   -1.9480 H   0  0  0  0  0  0  0  0  0  0  0  0
    6.6480   -0.9607   -0.7681 H   0  0  0  0  0  0  0  0  0  0  0  0
    4.3889    0.8749   -1.5290 H   0  0  0  0  0  0  0  0  0  0  0  0
    4.4723   -0.9352   -1.3220 H   0  0  0  0  0  0  0  0  0  0  0  0
    5.0137   -0.4273    1.1333 H   0  0  0  0  0  0  0  0  0  0  0  0
    2.8345   -1.1965    0.7510 H   0  0  0  0  0  0  0  0  0  0  0  0
    2.6979    0.1819    1.8353 H   0  0  0  0  0  0  0  0  0  0  0  0
    2.1612    0.6415   -1.0394 H   0  0  0  0  0  0  0  0  0  0  0  0
   -0.0872    0.8274   -0.3533 H   0  0  0  0  0  0  0  0  0  0  0  0
    0.3552    0.2421    1.2674 H   0  0  0  0  0  0  0  0  0  0  0  0
    1.1555   -1.9688   -0.0381 H   0  0  0  0  0  0  0  0  0  0  0  0
    0.5834   -1.1272   -1.4677 H   0  0  0  0  0  0  0  0  0  0  0  0
   -2.2910   -4.2684    1.6217 H   0  0  0  0  0  0  0  0  0  0  0  0
   -4.6526   -1.0306   -1.9495 H   0  0  0  0  0  0  0  0  0  0  0  0
   -6.7062   -1.9395   -1.1952 H   0  0  0  0  0  0  0  0  0  0  0  0
   -5.8332   -3.1231   -0.2099 H   0  0  0  0  0  0  0  0  0  0  0  0
   -8.3017   -0.0277    0.1685 H   0  0  0  0  0  0  0  0  0  0  0  0
   -8.7633    2.2563   -0.3840 H   0  0  0  0  0  0  0  0  0  0  0  0
   -6.8862    3.9026   -0.4145 H   0  0  0  0  0  0  0  0  0  0  0  0
   -4.6442    3.0507    0.1351 H   0  0  0  0  0  0  0  0  0  0  0  0
   -1.9670   -1.1353   -1.9475 H   0  0  0  0  0  0  0  0  0  0  0  0
   -2.3501    0.7733   -1.1466 H   0  0  0  0  0  0  0  0  0  0  0  0
    4.2847    1.9036    1.8707 H   0  0  0  0  0  0  0  0  0  0  0  0
    4.4068    3.7145    0.4182 H   0  0  0  0  0  0  0  0  0  0  0  0
    3.2481    2.6308   -0.3455 H   0  0  0  0  0  0  0  0  0  0  0  0
    5.0139    2.7576   -0.9282 H   0  0  0  0  0  0  0  0  0  0  0  0
    6.4527    1.4476    2.0417 H   0  0  0  0  0  0  0  0  0  0  0  0
  1  2  1  0
  1  3  1  0
  3  4  1  0
  4  5  1  0
  5  6  1  0
  6  7  1  0
  7  8  1  0
  8  9  1  0
  9 10  1  0
 10 11  1  0
 11 12  1  0
 11 13  2  0
 13 14  1  0
 14 15  2  0
 15 16  1  0
 16 17  1  0
 17 18  1  0
 18 19  1  0
 18 20  1  0
 18 21  1  0
 21 22  2  0
 22 23  1  0
 23 24  2  0
 24 25  1  0
 25 26  2  0
 15 27  1  0
 27 28  1  0
  5 29  1  0
 29 30  1  0
 29 31  1  0
 31  1  1  0
 27 10  1  0
 26 21  1  0
  1 32  1  6
  2 33  1  0
  2 34  1  0
  3 35  1  0
  3 36  1  0
  4 37  1  0
  4 38  1  0
  5 39  1  0
  6 40  1  0
  6 41  1  0
  7 42  1  0
  8 43  1  0
  8 44  1  0
  9 45  1  0
  9 46  1  0
 13 47  1  0
 16 48  1  0
 17 49  1  0
 17 50  1  0
 22 51  1  0
 23 52  1  0
 24 53  1  0
 25 54  1  0
 27 55  1  0
 28 56  1  0
 29 57  1  0
 30 58  1  0
 30 59  1  0
 30 60  1  0
 31 61  1  0
M  END
$$$$
