
     RDKit          3D

 51 55  0  0  0  0  0  0  0  0999 V2000
    0.6506    2.2402   -1.0562 O   0  0  0  0  0  0  0  0  0  0  0  0
    0.3847    1.0539   -0.6626 C   0  0  0  0  0  0  0  0  0  0  0  0
    1.3462    0.2326    0.0375 N   0  0  0  0  0  0  0  0  0  0  0  0
    2.4897    0.6163    0.8020 C   0  0  0  0  0  0  0  0  0  0  0  0
    3.7442    0.7288    0.0347 C   0  0  0  0  0  0  0  0  0  0  0  0
    4.1860    1.8816   -0.5839 C   0  0  0  0  0  0  0  0  0  0  0  0
    5.3553    1.9874   -1.2994 C   0  0  0  0  0  0  0  0  0  0  0  0
    6.1159    0.8182   -1.3773 C   0  0  0  0  0  0  0  0  0  0  0  0
    5.6974   -0.3468   -0.7684 C   0  0  0  0  0  0  0  0  0  0  0  0
    4.5218   -0.4203   -0.0594 C   0  0  0  0  0  0  0  0  0  0  0  0
    0.9425   -1.1162   -0.1716 C   0  0  0  0  0  0  0  0  0  0  0  0
    1.2445   -2.0990    0.8995 C   0  0  0  0  0  0  0  0  0  0  0  0
   -0.0903   -3.2770    0.5912 S   0  0  0  0  0  3  0  0  0  0  0  0
   -1.2963   -3.1419    1.9142 C   0  0  0  0  0  0  0  0  0  0  0  0
   -2.5440   -2.6248    1.2608 C   0  0  0  0  0  0  0  0  0  0  0  0
   -2.3951   -2.7086   -0.2107 C   0  0  0  0  0  0  0  0  0  0  0  0
   -1.0207   -2.2483   -0.5793 C   0  0  0  0  0  0  0  0  0  0  0  0
   -0.5811   -0.9570   -0.0225 C   0  0  0  0  0  0  0  0  0  0  0  0
   -0.8067    0.2357   -0.7673 N   0  0  0  0  0  0  0  0  0  0  0  0
   -1.9308    0.7565   -1.5615 C   0  0  0  0  0  0  0  0  0  0  0  0
   -2.8678    1.5599   -0.7248 C   0  0  0  0  0  0  0  0  0  0  0  0
   -2.6448    2.9287   -0.5983 C   0  0  0  0  0  0  0  0  0  0  0  0
   -3.4385    3.7753    0.1452 C   0  0  0  0  0  0  0  0  0  0  0  0
   -4.5266    3.2528    0.8132 C   0  0  0  0  0  0  0  0  0  0  0  0
   -4.7602    1.8982    0.6972 C   0  0  0  0  0  0  0  0  0  0  0  0
   -3.9579    1.0625   -0.0501 C   0  0  0  0  0  0  0  0  0  0  0  0
    2.2902    1.6300    1.2356 H   0  0  0  0  0  0  0  0  0  0  0  0
    2.5901   -0.0568    1.6860 H   0  0  0  0  0  0  0  0  0  0  0  0
    3.5212    2.7226   -0.4592 H   0  0  0  0  0  0  0  0  0  0  0  0
    5.6067    2.9367   -1.7433 H   0  0  0  0  0  0  0  0  0  0  0  0
    7.0419    0.8878   -1.9394 H   0  0  0  0  0  0  0  0  0  0  0  0
    6.3674   -1.1948   -0.8940 H   0  0  0  0  0  0  0  0  0  0  0  0
    4.2814   -1.3748    0.3797 H   0  0  0  0  0  0  0  0  0  0  0  0
    1.1570   -1.4708   -1.1930 H   0  0  0  0  0  0  0  0  0  0  0  0
    2.1708   -2.6785    0.7197 H   0  0  0  0  0  0  0  0  0  0  0  0
    1.1678   -1.6307    1.8781 H   0  0  0  0  0  0  0  0  0  0  0  0
   -1.4197   -4.0941    2.4598 H   0  0  0  0  0  0  0  0  0  0  0  0
   -0.9574   -2.3574    2.6287 H   0  0  0  0  0  0  0  0  0  0  0  0
   -3.3873   -3.2770    1.5807 H   0  0  0  0  0  0  0  0  0  0  0  0
   -2.8188   -1.6095    1.5711 H   0  0  0  0  0  0  0  0  0  0  0  0
   -3.1484   -2.1008   -0.7079 H   0  0  0  0  0  0  0  0  0  0  0  0
   -2.4972   -3.7478   -0.6144 H   0  0  0  0  0  0  0  0  0  0  0  0
   -0.7606   -2.4835   -1.6010 H   0  0  0  0  0  0  0  0  0  0  0  0
   -0.8709   -0.9085    1.0379 H   0  0  0  0  0  0  0  0  0  0  0  0
   -1.5828    1.3205   -2.4303 H   0  0  0  0  0  0  0  0  0  0  0  0
   -2.4898   -0.1346   -1.9698 H   0  0  0  0  0  0  0  0  0  0  0  0
   -1.8187    3.4507   -1.0793 H   0  0  0  0  0  0  0  0  0  0  0  0
   -3.2763    4.8222    0.2478 H   0  0  0  0  0  0  0  0  0  0  0  0
   -5.2210    3.8104    1.4254 H   0  0  0  0  0  0  0  0  0  0  0  0
   -5.6124    1.4476    1.2118 H   0  0  0  0  0  0  0  0  0  0  0  0
   -4.1513    0.0025   -0.1332 H   0  0  0  0  0  0  0  0  0  0  0  0
  1  2  2  0
  2  3  1  0
  3  4  1  0
  4  5  1  0
  5  6  2  0
  6  7  1  0
  7  8  2  0
  8  9  1  0
  9 10  2  0
  3 11  1  0
 11 12  1  0
 12 13  1  0
 13 14  1  0
 14 15  1  0
 15 16  1  0
 16 17  1  0
 17 18  1  0
 18 19  1  0
 19 20  1  0
 20 21  1  0
 21 22  2  0
 22 23  1  0
 23 24  2  0
 24 25  1  0
 25 26  2  0
 19  2  1  0
 26 21  1  0
 10  5  1  0
 18 11  1  0
 17 13  1  0
  4 27  1  0
  4 28  1  0
  6 29  1  0
  7 30  1  0
  8 31  1  0
  9 32  1  0
 10 33  1  0
 11 34  1  0
 12 35  1  0
 12 36  1  0
 14 37  1  0
 14 38  1  0
 15 39  1  0
 15 40  1  0
 16 41  1  0
 16 42  1  0
 17 43  1  0
 18 44  1  0
 20 45  1  0
 20 46  1  0
 22 47  1  0
 23 48  1  0
 24 49  1  0
 25 50  1  0
 26 51  1  0
M  CHG  1  13   1
M  END
$$$$
