@<TRIPOS>MOLECULE
*****
 51 55 0 0 0
SMALL
GASTEIGER

@<TRIPOS>ATOM
      1 O           0.6506    2.2402   -1.0562 O.2     1  UNL1       -0.2524
      2 C           0.3847    1.0539   -0.6626 C.2     1  UNL1        0.3062
      3 N           1.3462    0.2326    0.0375 N.am    1  UNL1       -0.2716
      4 C           2.4897    0.6163    0.8020 C.3     1  UNL1        0.0417
      5 C           3.7442    0.7288    0.0347 C.ar    1  UNL1       -0.0300
      6 C           4.1860    1.8816   -0.5839 C.ar    1  UNL1       -0.0571
      7 C           5.3553    1.9874   -1.2994 C.ar    1  UNL1       -0.0615
      8 C           6.1159    0.8182   -1.3773 C.ar    1  UNL1       -0.0617
      9 C           5.6974   -0.3468   -0.7684 C.ar    1  UNL1       -0.0615
     10 C           4.5218   -0.4203   -0.0594 C.ar    1  UNL1       -0.0571
     11 C           0.9425   -1.1162   -0.1716 C.3     1  UNL1        0.0957
     12 C           1.2445   -2.0990    0.8995 C.3     1  UNL1        0.1305
     13 S          -0.0903   -3.2770    0.5912 S.3     1  UNL1       -0.0035
     14 C          -1.2963   -3.1419    1.9142 C.3     1  UNL1        0.1103
     15 C          -2.5440   -2.6248    1.2608 C.3     1  UNL1       -0.0032
     16 C          -2.3951   -2.7086   -0.2107 C.3     1  UNL1        0.0012
     17 C          -1.0207   -2.2483   -0.5793 C.3     1  UNL1        0.1405
     18 C          -0.5811   -0.9570   -0.0225 C.3     1  UNL1        0.0982
     19 N          -0.8067    0.2357   -0.7673 N.am    1  UNL1       -0.2714
     20 C          -1.9308    0.7565   -1.5615 C.3     1  UNL1        0.0417
     21 C          -2.8678    1.5599   -0.7248 C.ar    1  UNL1       -0.0300
     22 C          -2.6448    2.9287   -0.5983 C.ar    1  UNL1       -0.0571
     23 C          -3.4385    3.7753    0.1452 C.ar    1  UNL1       -0.0615
     24 C          -4.5266    3.2528    0.8132 C.ar    1  UNL1       -0.0617
     25 C          -4.7602    1.8982    0.6972 C.ar    1  UNL1       -0.0615
     26 C          -3.9579    1.0625   -0.0501 C.ar    1  UNL1       -0.0571
     27 H           2.2902    1.6300    1.2356 H       1  UNL1        0.0514
     28 H           2.5901   -0.0568    1.6860 H       1  UNL1        0.0514
     29 H           3.5212    2.7226   -0.4592 H       1  UNL1        0.0621
     30 H           5.6067    2.9367   -1.7433 H       1  UNL1        0.0618
     31 H           7.0419    0.8878   -1.9394 H       1  UNL1        0.0618
     32 H           6.3674   -1.1948   -0.8940 H       1  UNL1        0.0618
     33 H           4.2814   -1.3748    0.3797 H       1  UNL1        0.0621
     34 H           1.1570   -1.4708   -1.1930 H       1  UNL1        0.0568
     35 H           2.1708   -2.6785    0.7197 H       1  UNL1        0.0860
     36 H           1.1678   -1.6307    1.8781 H       1  UNL1        0.0860
     37 H          -1.4197   -4.0941    2.4598 H       1  UNL1        0.0840
     38 H          -0.9574   -2.3574    2.6287 H       1  UNL1        0.0840
     39 H          -3.3873   -3.2770    1.5807 H       1  UNL1        0.0312
     40 H          -2.8188   -1.6095    1.5711 H       1  UNL1        0.0312
     41 H          -3.1484   -2.1008   -0.7079 H       1  UNL1        0.0316
     42 H          -2.4972   -3.7478   -0.6144 H       1  UNL1        0.0316
     43 H          -0.7606   -2.4835   -1.6010 H       1  UNL1        0.0896
     44 H          -0.8709   -0.9085    1.0379 H       1  UNL1        0.0571
     45 H          -1.5828    1.3205   -2.4303 H       1  UNL1        0.0514
     46 H          -2.4898   -0.1346   -1.9698 H       1  UNL1        0.0514
     47 H          -1.8187    3.4507   -1.0793 H       1  UNL1        0.0621
     48 H          -3.2763    4.8222    0.2478 H       1  UNL1        0.0618
     49 H          -5.2210    3.8104    1.4254 H       1  UNL1        0.0618
     50 H          -5.6124    1.4476    1.2118 H       1  UNL1        0.0618
     51 H          -4.1513    0.0025   -0.1332 H       1  UNL1        0.0621
@<TRIPOS>UNITY_ATOM_ATTR
13 1
charge 1
@<TRIPOS>BOND
     1     1     2    2
     2     2     3   am
     3     3     4    1
     4     4     5    1
     5     5     6   ar
     6     6     7   ar
     7     7     8   ar
     8     8     9   ar
     9     9    10   ar
    10     3    11    1
    11    11    12    1
    12    12    13    1
    13    13    14    1
    14    14    15    1
    15    15    16    1
    16    16    17    1
    17    17    18    1
    18    18    19    1
    19    19    20    1
    20    20    21    1
    21    21    22   ar
    22    22    23   ar
    23    23    24   ar
    24    24    25   ar
    25    25    26   ar
    26    19     2   am
    27    26    21   ar
    28    10     5   ar
    29    18    11    1
    30    17    13    1
    31     4    27    1
    32     4    28    1
    33     6    29    1
    34     7    30    1
    35     8    31    1
    36     9    32    1
    37    10    33    1
    38    11    34    1
    39    12    35    1
    40    12    36    1
    41    14    37    1
    42    14    38    1
    43    15    39    1
    44    15    40    1
    45    16    41    1
    46    16    42    1
    47    17    43    1
    48    18    44    1
    49    20    45    1
    50    20    46    1
    51    22    47    1
    52    23    48    1
    53    24    49    1
    54    25    50    1
    55    26    51    1
