@<TRIPOS>MOLECULE
*****
 45 47 0 0 0
SMALL
GASTEIGER

@<TRIPOS>ATOM
      1 C           4.2583   -0.5053    1.8136 C.3     1  UNL1       -0.0130
      2 N           4.1469   -0.1097    0.4531 N.3     1  UNL1       -0.3083
      3 C           4.4822    1.2709    0.2112 C.3     1  UNL1       -0.0130
      4 C           3.0284   -0.5814   -0.2736 C.3     1  UNL1       -0.0003
      5 C           1.6917   -0.0558    0.1119 C.3     1  UNL1       -0.0240
      6 C           0.6820   -0.7461   -0.8412 C.3     1  UNL1        0.0184
      7 N          -0.6541   -0.3464   -0.6181 N.pl3   1  UNL1       -0.2996
      8 C          -1.0364    1.0402   -0.7694 C.ar    1  UNL1        0.0372
      9 C          -0.0929    1.6737   -1.5330 C.ar    1  UNL1       -0.0401
     10 C          -0.2829    3.0313   -1.7895 C.ar    1  UNL1       -0.0600
     11 C          -1.3810    3.7026   -1.2918 C.ar    1  UNL1       -0.0614
     12 C          -2.2917    2.9952   -0.5295 C.ar    1  UNL1       -0.0568
     13 C          -2.1539    1.6409   -0.2408 C.ar    1  UNL1       -0.0257
     14 C          -3.2879    1.1774    0.5596 C.3     1  UNL1       -0.0219
     15 C          -3.0579   -0.0267    1.4103 C.3     1  UNL1       -0.0219
     16 C          -2.6357   -1.2417    0.6691 C.ar    1  UNL1       -0.0257
     17 C          -3.3874   -2.3690    0.8980 C.ar    1  UNL1       -0.0568
     18 C          -3.1244   -3.5773    0.2874 C.ar    1  UNL1       -0.0614
     19 C          -2.0534   -3.6635   -0.5992 C.ar    1  UNL1       -0.0600
     20 C          -1.2731   -2.5763   -0.8635 C.ar    1  UNL1       -0.0401
     21 C          -1.5766   -1.3955   -0.2293 C.ar    1  UNL1        0.0372
     22 H           3.8112   -1.5010    1.9553 H       1  UNL1        0.0391
     23 H           5.3600   -0.6556    2.0199 H       1  UNL1        0.0391
     24 H           3.8872    0.2523    2.5339 H       1  UNL1        0.0391
     25 H           3.8296    1.9192    0.8087 H       1  UNL1        0.0391
     26 H           5.5587    1.4417    0.3471 H       1  UNL1        0.0391
     27 H           4.2589    1.4642   -0.8759 H       1  UNL1        0.0391
     28 H           2.9883   -1.7003   -0.1143 H       1  UNL1        0.0427
     29 H           3.2466   -0.4795   -1.3563 H       1  UNL1        0.0427
     30 H           1.5249   -0.4442    1.1695 H       1  UNL1        0.0293
     31 H           1.5528    0.9987    0.2158 H       1  UNL1        0.0293
     32 H           1.0526   -0.8359   -1.8566 H       1  UNL1        0.0468
     33 H           0.8266   -1.8001   -0.4325 H       1  UNL1        0.0468
     34 H           0.7657    1.1302   -1.9343 H       1  UNL1        0.0636
     35 H           0.4428    3.5676   -2.3896 H       1  UNL1        0.0618
     36 H          -1.5200    4.7736   -1.5011 H       1  UNL1        0.0618
     37 H          -3.1463    3.5686   -0.1573 H       1  UNL1        0.0621
     38 H          -3.6120    1.9995    1.2573 H       1  UNL1        0.0317
     39 H          -4.1995    0.9740   -0.0606 H       1  UNL1        0.0317
     40 H          -2.3465    0.1700    2.2577 H       1  UNL1        0.0317
     41 H          -4.0709   -0.2870    1.8415 H       1  UNL1        0.0317
     42 H          -4.2256   -2.2861    1.5953 H       1  UNL1        0.0621
     43 H          -3.7446   -4.4657    0.4885 H       1  UNL1        0.0618
     44 H          -1.8138   -4.5904   -1.0997 H       1  UNL1        0.0618
     45 H          -0.4269   -2.5512   -1.5477 H       1  UNL1        0.0636
@<TRIPOS>BOND
     1     1     2    1
     2     2     3    1
     3     2     4    1
     4     4     5    1
     5     5     6    1
     6     6     7    1
     7     7     8    1
     8     8     9   ar
     9     9    10   ar
    10    10    11   ar
    11    11    12   ar
    12    12    13   ar
    13    13    14    1
    14    14    15    1
    15    15    16    1
    16    16    17   ar
    17    17    18   ar
    18    18    19   ar
    19    19    20   ar
    20    20    21   ar
    21    21     7    1
    22    13     8   ar
    23    21    16   ar
    24     1    22    1
    25     1    23    1
    26     1    24    1
    27     3    25    1
    28     3    26    1
    29     3    27    1
    30     4    28    1
    31     4    29    1
    32     5    30    1
    33     5    31    1
    34     6    32    1
    35     6    33    1
    36     9    34    1
    37    10    35    1
    38    11    36    1
    39    12    37    1
    40    14    38    1
    41    14    39    1
    42    15    40    1
    43    15    41    1
    44    17    42    1
    45    18    43    1
    46    19    44    1
    47    20    45    1
