
     RDKit          3D

 45 47  0  0  0  0  0  0  0  0999 V2000
    4.2583   -0.5053    1.8136 C   0  0  0  0  0  0  0  0  0  0  0  0
    4.1469   -0.1097    0.4531 N   0  0  0  0  0  0  0  0  0  0  0  0
    4.4822    1.2709    0.2112 C   0  0  0  0  0  0  0  0  0  0  0  0
    3.0284   -0.5814   -0.2736 C   0  0  0  0  0  0  0  0  0  0  0  0
    1.6917   -0.0558    0.1119 C   0  0  0  0  0  0  0  0  0  0  0  0
    0.6820   -0.7461   -0.8412 C   0  0  0  0  0  0  0  0  0  0  0  0
   -0.6541   -0.3464   -0.6181 N   0  0  0  0  0  0  0  0  0  0  0  0
   -1.0364    1.0402   -0.7694 C   0  0  0  0  0  0  0  0  0  0  0  0
   -0.0929    1.6737   -1.5330 C   0  0  0  0  0  0  0  0  0  0  0  0
   -0.2829    3.0313   -1.7895 C   0  0  0  0  0  0  0  0  0  0  0  0
   -1.3810    3.7026   -1.2918 C   0  0  0  0  0  0  0  0  0  0  0  0
   -2.2917    2.9952   -0.5295 C   0  0  0  0  0  0  0  0  0  0  0  0
   -2.1539    1.6409   -0.2408 C   0  0  0  0  0  0  0  0  0  0  0  0
   -3.2879    1.1774    0.5596 C   0  0  0  0  0  0  0  0  0  0  0  0
   -3.0579   -0.0267    1.4103 C   0  0  0  0  0  0  0  0  0  0  0  0
   -2.6357   -1.2417    0.6691 C   0  0  0  0  0  0  0  0  0  0  0  0
   -3.3874   -2.3690    0.8980 C   0  0  0  0  0  0  0  0  0  0  0  0
   -3.1244   -3.5773    0.2874 C   0  0  0  0  0  0  0  0  0  0  0  0
   -2.0534   -3.6635   -0.5992 C   0  0  0  0  0  0  0  0  0  0  0  0
   -1.2731   -2.5763   -0.8635 C   0  0  0  0  0  0  0  0  0  0  0  0
   -1.5766   -1.3955   -0.2293 C   0  0  0  0  0  0  0  0  0  0  0  0
    3.8112   -1.5010    1.9553 H   0  0  0  0  0  0  0  0  0  0  0  0
    5.3600   -0.6556    2.0199 H   0  0  0  0  0  0  0  0  0  0  0  0
    3.8872    0.2523    2.5339 H   0  0  0  0  0  0  0  0  0  0  0  0
    3.8296    1.9192    0.8087 H   0  0  0  0  0  0  0  0  0  0  0  0
    5.5587    1.4417    0.3471 H   0  0  0  0  0  0  0  0  0  0  0  0
    4.2589    1.4642   -0.8759 H   0  0  0  0  0  0  0  0  0  0  0  0
    2.9883   -1.7003   -0.1143 H   0  0  0  0  0  0  0  0  0  0  0  0
    3.2466   -0.4795   -1.3563 H   0  0  0  0  0  0  0  0  0  0  0  0
    1.5249   -0.4442    1.1695 H   0  0  0  0  0  0  0  0  0  0  0  0
    1.5528    0.9987    0.2158 H   0  0  0  0  0  0  0  0  0  0  0  0
    1.0526   -0.8359   -1.8566 H   0  0  0  0  0  0  0  0  0  0  0  0
    0.8266   -1.8001   -0.4325 H   0  0  0  0  0  0  0  0  0  0  0  0
    0.7657    1.1302   -1.9343 H   0  0  0  0  0  0  0  0  0  0  0  0
    0.4428    3.5676   -2.3896 H   0  0  0  0  0  0  0  0  0  0  0  0
   -1.5200    4.7736   -1.5011 H   0  0  0  0  0  0  0  0  0  0  0  0
   -3.1463    3.5686   -0.1573 H   0  0  0  0  0  0  0  0  0  0  0  0
   -3.6120    1.9995    1.2573 H   0  0  0  0  0  0  0  0  0  0  0  0
   -4.1995    0.9740   -0.0606 H   0  0  0  0  0  0  0  0  0  0  0  0
   -2.3465    0.1700    2.2577 H   0  0  0  0  0  0  0  0  0  0  0  0
   -4.0709   -0.2870    1.8415 H   0  0  0  0  0  0  0  0  0  0  0  0
   -4.2256   -2.2861    1.5953 H   0  0  0  0  0  0  0  0  0  0  0  0
   -3.7446   -4.4657    0.4885 H   0  0  0  0  0  0  0  0  0  0  0  0
   -1.8138   -4.5904   -1.0997 H   0  0  0  0  0  0  0  0  0  0  0  0
   -0.4269   -2.5512   -1.5477 H   0  0  0  0  0  0  0  0  0  0  0  0
  1  2  1  0
  2  3  1  0
  2  4  1  0
  4  5  1  0
  5  6  1  0
  6  7  1  0
  7  8  1  0
  8  9  2  0
  9 10  1  0
 10 11  2  0
 11 12  1  0
 12 13  2  0
 13 14  1  0
 14 15  1  0
 15 16  1  0
 16 17  2  0
 17 18  1  0
 18 19  2  0
 19 20  1  0
 20 21  2  0
 21  7  1  0
 13  8  1  0
 21 16  1  0
  1 22  1  0
  1 23  1  0
  1 24  1  0
  3 25  1  0
  3 26  1  0
  3 27  1  0
  4 28  1  0
  4 29  1  0
  5 30  1  0
  5 31  1  0
  6 32  1  0
  6 33  1  0
  9 34  1  0
 10 35  1  0
 11 36  1  0
 12 37  1  0
 14 38  1  0
 14 39  1  0
 15 40  1  0
 15 41  1  0
 17 42  1  0
 18 43  1  0
 19 44  1  0
 20 45  1  0
M  END
$$$$
