
     RDKit          3D

 53 55  0  0  0  0  0  0  0  0999 V2000
    7.8714    3.6068   -3.3522 C   0  0  0  0  0  0  0  0  0  0  0  0
    6.4970    3.3537   -2.8888 C   0  0  0  0  0  0  0  0  0  0  0  0
    5.5307    4.2039   -2.4690 C   0  0  0  0  0  0  0  0  0  0  0  0
    4.4012    3.4597   -2.1304 C   0  0  0  0  0  0  0  0  0  0  0  0
    3.1729    3.7172   -1.6668 N   0  0  0  0  0  0  0  0  0  0  0  0
    2.2520    2.7332   -1.4230 C   0  0  0  0  0  0  0  0  0  0  0  0
    2.5975    1.4359   -1.6645 C   0  0  0  0  0  0  0  0  0  0  0  0
    1.7063    0.2757   -1.4212 C   0  0  0  0  0  0  0  0  0  0  0  0
    2.0269   -0.7887   -1.9524 O   0  0  0  0  0  0  0  0  0  0  0  0
    0.5533    0.3514   -0.6339 N   0  0  0  0  0  0  0  0  0  0  0  0
   -0.4095   -0.6265   -0.3176 C   0  0  0  0  0  0  0  0  0  0  0  0
   -1.3318   -1.1553   -1.3585 C   0  0  0  0  0  0  0  0  0  0  0  0
   -2.1735   -0.0426   -1.9201 C   0  0  0  0  0  0  0  0  0  0  0  0
   -0.5780   -1.7439   -2.5757 C   0  0  0  0  0  0  0  0  0  0  0  0
   -2.0478   -2.2861   -0.8370 N   0  0  0  0  0  0  0  0  0  0  0  0
   -2.3898   -2.3300    0.5122 C   0  0  0  0  0  0  0  0  0  0  0  0
   -3.3932   -1.3917    1.0370 C   0  0  0  0  0  0  0  0  0  0  0  0
   -3.9765   -0.5565    0.3561 O   0  0  0  0  0  0  0  0  0  0  0  0
   -3.7293   -1.4405    2.4446 N   0  0  0  0  0  0  0  0  0  0  0  0
   -4.6821   -0.6318    3.1750 C   0  0  0  0  0  0  0  0  0  0  0  0
   -4.0314   -0.5535    4.5748 C   0  0  0  0  0  0  0  0  0  0  0  0
   -3.6535   -2.0119    4.7390 C   0  0  0  0  0  0  0  0  0  0  0  0
   -3.0863   -2.3524    3.3669 C   0  0  1  0  0  0  0  0  0  0  0  0
   -3.5073   -3.7321    3.0552 C   0  0  0  0  0  0  0  0  0  0  0  0
   -3.8611   -4.8339    2.7932 N   0  0  0  0  0  0  0  0  0  0  0  0
    3.8677    1.2172   -2.1404 C   0  0  0  0  0  0  0  0  0  0  0  0
    4.7439    2.1806   -2.3685 N   0  0  0  0  0  0  0  0  0  0  0  0
    5.9797    2.1120   -2.8160 N   0  0  0  0  0  0  0  0  0  0  0  0
    8.6368    3.0163   -2.7959 H   0  0  0  0  0  0  0  0  0  0  0  0
    8.0288    3.3404   -4.4219 H   0  0  0  0  0  0  0  0  0  0  0  0
    8.1166    4.6937   -3.2965 H   0  0  0  0  0  0  0  0  0  0  0  0
    5.5711    5.2811   -2.3906 H   0  0  0  0  0  0  0  0  0  0  0  0
    1.2766    2.9624   -1.0547 H   0  0  0  0  0  0  0  0  0  0  0  0
    0.4118    1.3460   -0.2064 H   0  0  0  0  0  0  0  0  0  0  0  0
   -1.0590   -0.3078    0.5709 H   0  0  0  0  0  0  0  0  0  0  0  0
    0.1429   -1.5139    0.1666 H   0  0  0  0  0  0  0  0  0  0  0  0
   -2.2299    0.8263   -1.2316 H   0  0  0  0  0  0  0  0  0  0  0  0
   -1.6945    0.3408   -2.8817 H   0  0  0  0  0  0  0  0  0  0  0  0
   -3.1803   -0.3110   -2.2224 H   0  0  0  0  0  0  0  0  0  0  0  0
   -1.3606   -2.2904   -3.2128 H   0  0  0  0  0  0  0  0  0  0  0  0
   -0.2184   -0.9650   -3.2559 H   0  0  0  0  0  0  0  0  0  0  0  0
    0.1095   -2.5394   -2.2941 H   0  0  0  0  0  0  0  0  0  0  0  0
   -2.8525   -2.4530   -1.4720 H   0  0  0  0  0  0  0  0  0  0  0  0
   -2.8754   -3.3628    0.6840 H   0  0  0  0  0  0  0  0  0  0  0  0
   -1.5006   -2.4084    1.2086 H   0  0  0  0  0  0  0  0  0  0  0  0
   -4.7718    0.3827    2.7471 H   0  0  0  0  0  0  0  0  0  0  0  0
   -5.6577   -1.1245    3.3347 H   0  0  0  0  0  0  0  0  0  0  0  0
   -4.7427   -0.2320    5.3344 H   0  0  0  0  0  0  0  0  0  0  0  0
   -3.1248    0.0555    4.5020 H   0  0  0  0  0  0  0  0  0  0  0  0
   -2.9632   -2.1981    5.5515 H   0  0  0  0  0  0  0  0  0  0  0  0
   -4.5760   -2.6252    4.8905 H   0  0  0  0  0  0  0  0  0  0  0  0
   -1.9988   -2.2685    3.3619 H   0  0  0  0  0  0  0  0  0  0  0  0
    4.1629    0.1849   -2.3389 H   0  0  0  0  0  0  0  0  0  0  0  0
  1  2  1  0
  2  3  1  0
  3  4  2  0
  4  5  1  0
  5  6  2  0
  6  7  1  0
  7  8  1  0
  8  9  2  0
  8 10  1  0
 10 11  1  0
 11 12  1  0
 12 13  1  0
 12 14  1  0
 12 15  1  0
 15 16  1  0
 16 17  1  0
 17 18  2  0
 17 19  1  0
 19 20  1  0
 20 21  1  0
 21 22  1  0
 22 23  1  0
 23 24  1  0
 24 25  3  0
  7 26  2  0
 26 27  1  0
 27 28  1  0
 28  2  2  0
 27  4  1  0
 23 19  1  0
  1 29  1  0
  1 30  1  0
  1 31  1  0
  3 32  1  0
  6 33  1  0
 10 34  1  0
 11 35  1  0
 11 36  1  0
 13 37  1  0
 13 38  1  0
 13 39  1  0
 14 40  1  0
 14 41  1  0
 14 42  1  0
 15 43  1  0
 16 44  1  0
 16 45  1  0
 20 46  1  0
 20 47  1  0
 21 48  1  0
 21 49  1  0
 22 50  1  0
 22 51  1  0
 23 52  1  1
 26 53  1  0
M  END
$$$$
