@<TRIPOS>MOLECULE
*****
 53 55 0 0 0
SMALL
GASTEIGER

@<TRIPOS>ATOM
      1 C           7.8714    3.6068   -3.3522 C.3     1  UNL1       -0.0205
      2 C           6.4970    3.3537   -2.8888 C.ar    1  UNL1        0.0625
      3 C           5.5307    4.2039   -2.4690 C.ar    1  UNL1        0.0052
      4 C           4.4012    3.4597   -2.1304 C.ar    1  UNL1        0.1556
      5 N           3.1729    3.7172   -1.6668 N.ar    1  UNL1       -0.2353
      6 C           2.2520    2.7332   -1.4230 C.ar    1  UNL1        0.0435
      7 C           2.5975    1.4359   -1.6645 C.ar    1  UNL1        0.0729
      8 C           1.7063    0.2757   -1.4212 C.2     1  UNL1        0.2471
      9 O           2.0269   -0.7887   -1.9524 O.2     1  UNL1       -0.2701
     10 N           0.5533    0.3514   -0.6339 N.am    1  UNL1       -0.3095
     11 C          -0.4095   -0.6265   -0.3176 C.3     1  UNL1        0.0297
     12 C          -1.3318   -1.1553   -1.3585 C.3     1  UNL1        0.0294
     13 C          -2.1735   -0.0426   -1.9201 C.3     1  UNL1       -0.0456
     14 C          -0.5780   -1.7439   -2.5757 C.3     1  UNL1       -0.0456
     15 N          -2.0478   -2.2861   -0.8370 N.3     1  UNL1       -0.3017
     16 C          -2.3898   -2.3300    0.5122 C.3     1  UNL1        0.0739
     17 C          -3.3932   -1.3917    1.0370 C.2     1  UNL1        0.2304
     18 O          -3.9765   -0.5565    0.3561 O.2     1  UNL1       -0.2742
     19 N          -3.7293   -1.4405    2.4446 N.am    1  UNL1       -0.2846
     20 C          -4.6821   -0.6318    3.1750 C.3     1  UNL1        0.0160
     21 C          -4.0314   -0.5535    4.5748 C.3     1  UNL1       -0.0345
     22 C          -3.6535   -2.0119    4.7390 C.3     1  UNL1       -0.0196
     23 C          -3.0863   -2.3524    3.3669 C.3     1  UNL1        0.1129
     24 C          -3.5073   -3.7321    3.0552 C.1     1  UNL1        0.0851
     25 N          -3.8611   -4.8339    2.7932 N.1     1  UNL1       -0.1946
     26 C           3.8677    1.2172   -2.1404 C.ar    1  UNL1        0.0450
     27 N           4.7439    2.1806   -2.3685 N.ar    1  UNL1       -0.2208
     28 N           5.9797    2.1120   -2.8160 N.ar    1  UNL1       -0.1702
     29 H           8.6368    3.0163   -2.7959 H       1  UNL1        0.0293
     30 H           8.0288    3.3404   -4.4219 H       1  UNL1        0.0293
     31 H           8.1166    4.6937   -3.2965 H       1  UNL1        0.0293
     32 H           5.5711    5.2811   -2.3906 H       1  UNL1        0.0673
     33 H           1.2766    2.9624   -1.0547 H       1  UNL1        0.0838
     34 H           0.4118    1.3460   -0.2064 H       1  UNL1        0.1491
     35 H          -1.0590   -0.3078    0.5709 H       1  UNL1        0.0480
     36 H           0.1429   -1.5139    0.1666 H       1  UNL1        0.0480
     37 H          -2.2299    0.8263   -1.2316 H       1  UNL1        0.0248
     38 H          -1.6945    0.3408   -2.8817 H       1  UNL1        0.0248
     39 H          -3.1803   -0.3110   -2.2224 H       1  UNL1        0.0248
     40 H          -1.3606   -2.2904   -3.2128 H       1  UNL1        0.0248
     41 H          -0.2184   -0.9650   -3.2559 H       1  UNL1        0.0248
     42 H           0.1095   -2.5394   -2.2941 H       1  UNL1        0.0248
     43 H          -2.8525   -2.4530   -1.4720 H       1  UNL1        0.1229
     44 H          -2.8754   -3.3628    0.6840 H       1  UNL1        0.0520
     45 H          -1.5006   -2.4084    1.2086 H       1  UNL1        0.0520
     46 H          -4.7718    0.3827    2.7471 H       1  UNL1        0.0465
     47 H          -5.6577   -1.1245    3.3347 H       1  UNL1        0.0465
     48 H          -4.7427   -0.2320    5.3344 H       1  UNL1        0.0281
     49 H          -3.1248    0.0555    4.5020 H       1  UNL1        0.0281
     50 H          -2.9632   -2.1981    5.5515 H       1  UNL1        0.0294
     51 H          -4.5760   -2.6252    4.8905 H       1  UNL1        0.0294
     52 H          -1.9988   -2.2685    3.3619 H       1  UNL1        0.0659
     53 H           4.1629    0.1849   -2.3389 H       1  UNL1        0.0839
@<TRIPOS>BOND
     1     1     2    1
     2     2     3   ar
     3     3     4   ar
     4     4     5   ar
     5     5     6   ar
     6     6     7   ar
     7     7     8    1
     8     8     9    2
     9     8    10   am
    10    10    11    1
    11    11    12    1
    12    12    13    1
    13    12    14    1
    14    12    15    1
    15    15    16    1
    16    16    17    1
    17    17    18    2
    18    17    19   am
    19    19    20    1
    20    20    21    1
    21    21    22    1
    22    22    23    1
    23    23    24    1
    24    24    25    3
    25     7    26   ar
    26    26    27   ar
    27    27    28   ar
    28    28     2   ar
    29    27     4   ar
    30    23    19    1
    31     1    29    1
    32     1    30    1
    33     1    31    1
    34     3    32    1
    35     6    33    1
    36    10    34    1
    37    11    35    1
    38    11    36    1
    39    13    37    1
    40    13    38    1
    41    13    39    1
    42    14    40    1
    43    14    41    1
    44    14    42    1
    45    15    43    1
    46    16    44    1
    47    16    45    1
    48    20    46    1
    49    20    47    1
    50    21    48    1
    51    21    49    1
    52    22    50    1
    53    22    51    1
    54    23    52    1
    55    26    53    1
