@<TRIPOS>MOLECULE
*****
 68 70 0 0 0
SMALL
GASTEIGER

@<TRIPOS>ATOM
      1 C          -3.4999    1.6680    0.1441 C.3     1  UNL1       -0.0643
      2 C          -3.3529    1.2145    1.5589 C.3     1  UNL1       -0.0406
      3 C          -3.2639   -0.2682    1.7434 C.3     1  UNL1        0.0619
      4 C          -3.1247   -0.5150    3.2383 C.3     1  UNL1       -0.0497
      5 C          -4.5621   -0.9044    1.3059 C.3     1  UNL1       -0.0497
      6 C          -2.1360   -0.8945    1.0036 C.2     1  UNL1        0.3130
      7 O          -1.2575   -1.5330    1.6787 O.2     1  UNL1       -0.2502
      8 O          -1.9520   -0.8489   -0.3464 O.3     1  UNL1       -0.4603
      9 C          -0.8589   -1.4653   -1.0043 C.3     1  UNL1        0.1106
     10 C          -1.2621   -2.5645   -1.9101 C.3     1  UNL1       -0.0090
     11 C          -0.5356   -2.4243   -3.2239 C.3     1  UNL1       -0.0218
     12 C          -0.9641   -3.5206   -4.1760 C.3     1  UNL1       -0.0588
     13 C          -0.8500   -1.0789   -3.7439 C.2     1  UNL1       -0.0775
     14 C          -0.5672   -0.0600   -2.9679 C.2     1  UNL1       -0.0444
     15 C          -0.8308    1.3034   -3.3707 C.2     1  UNL1       -0.0621
     16 C          -0.2920    2.2819   -2.6778 C.2     1  UNL1       -0.0806
     17 C           0.5531    2.0184   -1.5299 C.3     1  UNL1       -0.0219
     18 C           2.0106    2.0370   -2.0130 C.3     1  UNL1       -0.0587
     19 C           0.2782    0.7515   -0.7723 C.3     1  UNL1       -0.0247
     20 C           1.3669    0.4696    0.2365 C.3     1  UNL1       -0.0457
     21 C           1.4884    1.5669    1.2391 C.3     1  UNL1       -0.0153
     22 C           2.5709    1.2992    2.2521 C.3     1  UNL1        0.1054
     23 C           3.9228    1.1482    1.6458 C.3     1  UNL1        0.0109
     24 C           4.4371   -0.2621    1.8265 C.3     1  UNL1        0.0686
     25 O           5.6614   -0.4260    1.1809 O.3     1  UNL1       -0.3911
     26 C           4.6161   -0.4327    3.3426 C.3     1  UNL1        0.0710
     27 C           3.2450   -0.3166    3.9032 C.2     1  UNL1        0.3098
     28 O           3.0391   -0.6941    5.0874 O.2     1  UNL1       -0.2507
     29 O           2.2577    0.2042    3.0874 O.3     1  UNL1       -0.4612
     30 C           0.0397   -0.4407   -1.6537 C.3     1  UNL1        0.0243
     31 H          -2.6223    2.2857   -0.1255 H       1  UNL1        0.0230
     32 H          -4.3781    2.3550    0.0218 H       1  UNL1        0.0230
     33 H          -3.5679    0.8139   -0.5622 H       1  UNL1        0.0230
     34 H          -2.4897    1.7415    2.0441 H       1  UNL1        0.0273
     35 H          -4.2758    1.5380    2.1156 H       1  UNL1        0.0273
     36 H          -3.4990   -1.5308    3.4416 H       1  UNL1        0.0240
     37 H          -3.8539    0.1826    3.7278 H       1  UNL1        0.0240
     38 H          -2.1054   -0.3622    3.5963 H       1  UNL1        0.0240
     39 H          -4.3207   -1.9578    1.0051 H       1  UNL1        0.0240
     40 H          -5.3030   -0.9700    2.1150 H       1  UNL1        0.0240
     41 H          -4.9567   -0.3888    0.3983 H       1  UNL1        0.0240
     42 H          -0.2534   -1.9507   -0.1767 H       1  UNL1        0.0740
     43 H          -1.0150   -3.5754   -1.5188 H       1  UNL1        0.0307
     44 H          -2.3608   -2.5185   -2.1865 H       1  UNL1        0.0307
     45 H           0.5656   -2.4705   -3.0293 H       1  UNL1        0.0342
     46 H          -1.2377   -4.3952   -3.5808 H       1  UNL1        0.0235
     47 H          -0.1975   -3.7461   -4.9234 H       1  UNL1        0.0235
     48 H          -1.8786   -3.1765   -4.6971 H       1  UNL1        0.0235
     49 H          -1.2833   -0.9562   -4.7004 H       1  UNL1        0.0578
     50 H          -1.4747    1.4978   -4.2469 H       1  UNL1        0.0617
     51 H          -0.4911    3.2961   -2.9811 H       1  UNL1        0.0575
     52 H           0.4701    2.8914   -0.8290 H       1  UNL1        0.0343
     53 H           2.0648    2.4832   -3.0424 H       1  UNL1        0.0235
     54 H           2.6580    2.6467   -1.3871 H       1  UNL1        0.0235
     55 H           2.3592    0.9852   -2.1507 H       1  UNL1        0.0235
     56 H          -0.6525    0.9286   -0.1935 H       1  UNL1        0.0313
     57 H           1.1080   -0.4636    0.7878 H       1  UNL1        0.0269
     58 H           2.3419    0.2600   -0.2466 H       1  UNL1        0.0269
     59 H           1.6634    2.5629    0.7871 H       1  UNL1        0.0301
     60 H           0.5318    1.6320    1.8016 H       1  UNL1        0.0301
     61 H           2.5730    2.2092    2.9238 H       1  UNL1        0.0734
     62 H           3.9748    1.4784    0.5873 H       1  UNL1        0.0326
     63 H           4.6602    1.8078    2.1860 H       1  UNL1        0.0326
     64 H           3.7029   -1.0328    1.5332 H       1  UNL1        0.0600
     65 H           6.0177    0.4737    1.0116 H       1  UNL1        0.2098
     66 H           5.2589    0.4042    3.7224 H       1  UNL1        0.0403
     67 H           5.0606   -1.4179    3.5872 H       1  UNL1        0.0403
     68 H           1.0292   -0.8738   -1.8998 H       1  UNL1        0.0388
@<TRIPOS>BOND
     1     1     2    1
     2     2     3    1
     3     3     4    1
     4     3     5    1
     5     3     6    1
     6     6     7    2
     7     6     8    1
     8     8     9    1
     9     9    10    1
    10    10    11    1
    11    11    12    1
    12    11    13    1
    13    13    14    2
    14    14    15    1
    15    15    16    2
    16    16    17    1
    17    17    18    1
    18    17    19    1
    19    19    20    1
    20    20    21    1
    21    21    22    1
    22    22    23    1
    23    23    24    1
    24    24    25    1
    25    24    26    1
    26    26    27    1
    27    27    28    2
    28    27    29    1
    29    19    30    1
    30    30     9    1
    31    30    14    1
    32    29    22    1
    33     1    31    1
    34     1    32    1
    35     1    33    1
    36     2    34    1
    37     2    35    1
    38     4    36    1
    39     4    37    1
    40     4    38    1
    41     5    39    1
    42     5    40    1
    43     5    41    1
    44     9    42    1
    45    10    43    1
    46    10    44    1
    47    11    45    1
    48    12    46    1
    49    12    47    1
    50    12    48    1
    51    13    49    1
    52    15    50    1
    53    16    51    1
    54    17    52    1
    55    18    53    1
    56    18    54    1
    57    18    55    1
    58    19    56    1
    59    20    57    1
    60    20    58    1
    61    21    59    1
    62    21    60    1
    63    22    61    1
    64    23    62    1
    65    23    63    1
    66    24    64    1
    67    25    65    1
    68    26    66    1
    69    26    67    1
    70    30    68    1
