
     RDKit          3D

 36 39  0  0  0  0  0  0  0  0999 V2000
    0.2519   -2.2034   -0.1353 O   0  0  0  0  0  0  0  0  0  0  0  0
    0.2850   -0.9717   -0.0889 C   0  0  0  0  0  0  0  0  0  0  0  0
   -0.7760    0.0003    0.0724 C   0  0  0  0  0  0  0  0  0  0  0  0
   -2.1500   -0.4449    0.2072 C   0  0  0  0  0  0  0  0  0  0  0  0
   -2.5710   -1.7327    0.1436 C   0  0  0  0  0  0  0  0  0  0  0  0
   -3.9282   -2.0345    0.2833 C   0  0  0  0  0  0  0  0  0  0  0  0
   -4.8247   -1.0199    0.4842 C   0  0  0  0  0  0  0  0  0  0  0  0
   -4.4188    0.2991    0.5522 C   0  0  0  0  0  0  0  0  0  0  0  0
   -5.3689    1.2766    0.7554 C   0  0  0  0  0  0  0  0  0  0  0  0
   -4.9312    2.5461    0.8144 N   0  0  0  0  0  0  0  0  0  0  0  0
   -3.6411    2.8744    0.6856 C   0  0  0  0  0  0  0  0  0  0  0  0
   -2.6620    1.9165    0.4806 C   0  0  0  0  0  0  0  0  0  0  0  0
   -3.0861    0.5933    0.4149 C   0  0  0  0  0  0  0  0  0  0  0  0
    1.6207   -0.4013   -0.2198 N   0  0  0  0  0  0  0  0  0  0  0  0
    2.7150   -1.2670   -0.3846 C   0  0  0  0  0  0  0  0  0  0  0  0
    2.6828   -3.0306   -0.4615 S   0  0  0  0  0  0  0  0  0  0  0  0
    4.5021   -3.1886   -0.6828 C   0  0  0  0  0  0  0  0  0  0  0  0
    4.8506   -1.9846   -0.6687 N   0  0  0  0  0  0  0  0  0  0  0  0
    4.0786   -0.9603   -0.5308 C   0  0  0  0  0  0  0  0  0  0  0  0
    4.5847    0.4617   -0.5188 C   0  0  0  0  0  0  0  0  0  0  0  0
    5.9882    0.7578   -0.6741 C   0  0  0  0  0  0  0  0  0  0  0  0
    6.0290    2.5283   -0.5896 S   0  0  0  0  0  0  0  0  0  0  0  0
    4.1674    2.6698   -0.3565 C   0  0  0  0  0  0  0  0  0  0  0  0
    3.8836    1.5364   -0.3793 N   0  0  0  0  0  0  0  0  0  0  0  0
   -0.5376    0.5819    1.0202 H   0  0  0  0  0  0  0  0  0  0  0  0
   -0.6635    0.7906   -0.7215 H   0  0  0  0  0  0  0  0  0  0  0  0
   -1.8978   -2.5697   -0.0151 H   0  0  0  0  0  0  0  0  0  0  0  0
   -4.2247   -3.0827    0.2255 H   0  0  0  0  0  0  0  0  0  0  0  0
   -5.8941   -1.2449    0.5952 H   0  0  0  0  0  0  0  0  0  0  0  0
   -6.4296    1.0007    0.8608 H   0  0  0  0  0  0  0  0  0  0  0  0
   -3.3640    3.9147    0.7430 H   0  0  0  0  0  0  0  0  0  0  0  0
   -1.6192    2.1929    0.3795 H   0  0  0  0  0  0  0  0  0  0  0  0
    1.7768    0.6092   -0.1941 H   0  0  0  0  0  0  0  0  0  0  0  0
    5.0176   -4.1667   -0.7882 H   0  0  0  0  0  0  0  0  0  0  0  0
    6.7880    0.0588   -0.8068 H   0  0  0  0  0  0  0  0  0  0  0  0
    3.7666    3.6946   -0.2549 H   0  0  0  0  0  0  0  0  0  0  0  0
  1  2  2  0
  2  3  1  0
  3  4  1  0
  4  5  2  0
  5  6  1  0
  6  7  2  0
  7  8  1  0
  8  9  2  0
  9 10  1  0
 10 11  2  0
 11 12  1  0
 12 13  2  0
  2 14  1  0
 14 15  1  0
 15 16  1  0
 16 17  1  0
 17 18  2  0
 18 19  1  0
 19 20  1  0
 20 21  2  0
 21 22  1  0
 22 23  1  0
 23 24  2  0
 13  4  1  0
 19 15  2  0
 24 20  1  0
 13  8  1  0
  3 25  1  0
  3 26  1  0
  5 27  1  0
  6 28  1  0
  7 29  1  0
  9 30  1  0
 11 31  1  0
 12 32  1  0
 14 33  1  0
 17 34  1  0
 21 35  1  0
 23 36  1  0
M  END
$$$$
