@<TRIPOS>MOLECULE
*****
 36 39 0 0 0
SMALL
GASTEIGER

@<TRIPOS>ATOM
      1 O           0.2519   -2.2034   -0.1353 O.2     1  UNL1       -0.2751
      2 C           0.2850   -0.9717   -0.0889 C.2     1  UNL1        0.2220
      3 C          -0.7760    0.0003    0.0724 C.3     1  UNL1        0.0500
      4 C          -2.1500   -0.4449    0.2072 C.ar    1  UNL1       -0.0308
      5 C          -2.5710   -1.7327    0.1436 C.ar    1  UNL1       -0.0575
      6 C          -3.9282   -2.0345    0.2833 C.ar    1  UNL1       -0.0609
      7 C          -4.8247   -1.0199    0.4842 C.ar    1  UNL1       -0.0526
      8 C          -4.4188    0.2991    0.5522 C.ar    1  UNL1        0.0005
      9 C          -5.3689    1.2766    0.7554 C.ar    1  UNL1        0.0353
     10 N          -4.9312    2.5461    0.8144 N.ar    1  UNL1       -0.2626
     11 C          -3.6411    2.8744    0.6856 C.ar    1  UNL1        0.0282
     12 C          -2.6620    1.9165    0.4806 C.ar    1  UNL1       -0.0356
     13 C          -3.0861    0.5933    0.4149 C.ar    1  UNL1       -0.0114
     14 N           1.6207   -0.4013   -0.2198 N.am    1  UNL1       -0.2780
     15 C           2.7150   -1.2670   -0.3846 C.ar    1  UNL1        0.1009
     16 S           2.6828   -3.0306   -0.4615 S.2     1  UNL1       -0.0600
     17 C           4.5021   -3.1886   -0.6828 C.ar    1  UNL1        0.0672
     18 N           4.8506   -1.9846   -0.6687 N.ar    1  UNL1       -0.2439
     19 C           4.0786   -0.9603   -0.5308 C.ar    1  UNL1        0.1182
     20 C           4.5847    0.4617   -0.5188 C.ar    1  UNL1        0.0986
     21 C           5.9882    0.7578   -0.6741 C.ar    1  UNL1        0.0047
     22 S           6.0290    2.5283   -0.5896 S.2     1  UNL1       -0.0832
     23 C           4.1674    2.6698   -0.3565 C.ar    1  UNL1        0.0654
     24 N           3.8836    1.5364   -0.3793 N.ar    1  UNL1       -0.2458
     25 H          -0.5376    0.5819    1.0202 H       1  UNL1        0.0407
     26 H          -0.6635    0.7906   -0.7215 H       1  UNL1        0.0407
     27 H          -1.8978   -2.5697   -0.0151 H       1  UNL1        0.0621
     28 H          -4.2247   -3.0827    0.2255 H       1  UNL1        0.0618
     29 H          -5.8941   -1.2449    0.5952 H       1  UNL1        0.0624
     30 H          -6.4296    1.0007    0.8608 H       1  UNL1        0.0836
     31 H          -3.3640    3.9147    0.7430 H       1  UNL1        0.0830
     32 H          -1.6192    2.1929    0.3795 H       1  UNL1        0.0639
     33 H           1.7768    0.6092   -0.1941 H       1  UNL1        0.1554
     34 H           5.0176   -4.1667   -0.7882 H       1  UNL1        0.0908
     35 H           6.7880    0.0588   -0.8068 H       1  UNL1        0.0716
     36 H           3.7666    3.6946   -0.2549 H       1  UNL1        0.0907
@<TRIPOS>BOND
     1     1     2    2
     2     2     3    1
     3     3     4    1
     4     4     5   ar
     5     5     6   ar
     6     6     7   ar
     7     7     8   ar
     8     8     9   ar
     9     9    10   ar
    10    10    11   ar
    11    11    12   ar
    12    12    13   ar
    13     2    14   am
    14    14    15    1
    15    15    16   ar
    16    16    17   ar
    17    17    18   ar
    18    18    19   ar
    19    19    20    1
    20    20    21   ar
    21    21    22   ar
    22    22    23   ar
    23    23    24   ar
    24    13     4   ar
    25    19    15   ar
    26    24    20   ar
    27    13     8   ar
    28     3    25    1
    29     3    26    1
    30     5    27    1
    31     6    28    1
    32     7    29    1
    33     9    30    1
    34    11    31    1
    35    12    32    1
    36    14    33    1
    37    17    34    1
    38    21    35    1
    39    23    36    1
