@<TRIPOS>MOLECULE
*****
 62 64 0 0 0
SMALL
GASTEIGER

@<TRIPOS>ATOM
      1 C           8.3284   -0.1781   -0.5373 C.3     1  UNL1       -0.0453
      2 C           7.4018   -0.6193    0.5685 C.3     1  UNL1        0.0456
      3 N           6.4280    0.3953    0.8872 N.ar    1  UNL1       -0.1938
      4 N           6.4860    1.3921    1.7679 N.ar    1  UNL1       -0.0428
      5 N           5.3720    2.1025    1.7505 N.ar    1  UNL1       -0.0428
      6 N           4.5230    1.6015    0.8501 N.ar    1  UNL1       -0.1923
      7 C           3.1943    1.9472    0.4030 C.3     1  UNL1        0.0611
      8 C           2.1335    1.2437    1.2131 C.3     1  UNL1        0.0187
      9 N           0.7907    1.5988    0.7447 N.3     1  UNL1       -0.3004
     10 C           0.6809    0.9940   -0.5904 C.3     1  UNL1        0.0010
     11 C          -0.7948    0.8494   -0.8849 C.3     1  UNL1       -0.0160
     12 C          -1.2716   -0.3898   -0.1585 C.3     1  UNL1        0.0677
     13 C          -0.8340   -1.5944   -0.9691 C.3     1  UNL1        0.0691
     14 O          -1.3740   -1.5712   -2.2513 O.3     1  UNL1       -0.3808
     15 C          -0.9900   -2.6554   -3.0042 C.3     1  UNL1        0.0365
     16 C          -0.6268   -0.3541    1.1955 C.3     1  UNL1       -0.0160
     17 C          -0.2283    1.0587    1.5942 C.3     1  UNL1        0.0010
     18 N          -2.7255   -0.4273   -0.0704 N.am    1  UNL1       -0.2630
     19 C          -3.2983   -1.5691    0.6023 C.2     1  UNL1        0.2201
     20 O          -2.8741   -2.6059    1.1763 O.2     1  UNL1       -0.2752
     21 C          -4.7795   -1.6908    0.7290 C.3     1  UNL1        0.0217
     22 C          -5.0827   -2.9708    1.4557 C.3     1  UNL1       -0.0570
     23 C          -3.5767    0.5913   -0.6073 C.ar    1  UNL1        0.0370
     24 C          -4.0464    0.4934   -1.8973 C.ar    1  UNL1       -0.0402
     25 C          -4.8584    1.5170   -2.3399 C.ar    1  UNL1       -0.0600
     26 C          -5.2454    2.6273   -1.6186 C.ar    1  UNL1       -0.0616
     27 C          -4.7547    2.6952   -0.3225 C.ar    1  UNL1       -0.0600
     28 C          -3.9325    1.6847    0.1652 C.ar    1  UNL1       -0.0402
     29 C           5.2089    0.5528    0.3405 C.ar    1  UNL1        0.3641
     30 O           4.7886   -0.2371   -0.5664 O.2     1  UNL1       -0.2432
     31 H           7.6759    0.0334   -1.4254 H       1  UNL1        0.0247
     32 H           9.0329   -0.9910   -0.7801 H       1  UNL1        0.0247
     33 H           8.8981    0.7150   -0.1983 H       1  UNL1        0.0247
     34 H           8.0224   -0.8878    1.4428 H       1  UNL1        0.0508
     35 H           6.8503   -1.5164    0.2186 H       1  UNL1        0.0508
     36 H           3.0342    3.0500    0.5838 H       1  UNL1        0.0524
     37 H           3.1072    1.7134   -0.6688 H       1  UNL1        0.0524
     38 H           2.2491    1.4638    2.2832 H       1  UNL1        0.0445
     39 H           2.3097    0.1541    1.0867 H       1  UNL1        0.0445
     40 H           1.1925    1.6278   -1.3467 H       1  UNL1        0.0427
     41 H           1.2199    0.0284   -0.5256 H       1  UNL1        0.0427
     42 H          -1.3061    1.7646   -0.5053 H       1  UNL1        0.0299
     43 H          -0.9054    0.7464   -1.9881 H       1  UNL1        0.0299
     44 H          -1.2598   -2.5360   -0.5062 H       1  UNL1        0.0581
     45 H           0.2539   -1.6649   -1.0279 H       1  UNL1        0.0581
     46 H          -1.4800   -2.5312   -4.0087 H       1  UNL1        0.0523
     47 H           0.0903   -2.7288   -3.1713 H       1  UNL1        0.0523
     48 H          -1.4454   -3.5574   -2.5787 H       1  UNL1        0.0523
     49 H          -1.3739   -0.6691    1.9486 H       1  UNL1        0.0299
     50 H           0.2653   -0.9787    1.2502 H       1  UNL1        0.0299
     51 H          -1.0993    1.7477    1.6607 H       1  UNL1        0.0427
     52 H           0.1866    0.9905    2.6202 H       1  UNL1        0.0427
     53 H          -5.2142   -0.8475    1.3231 H       1  UNL1        0.0356
     54 H          -5.2660   -1.6205   -0.2773 H       1  UNL1        0.0356
     55 H          -4.9708   -2.8000    2.5359 H       1  UNL1        0.0234
     56 H          -6.1609   -3.1916    1.2536 H       1  UNL1        0.0234
     57 H          -4.4186   -3.7644    1.0815 H       1  UNL1        0.0234
     58 H          -3.8071   -0.3329   -2.5525 H       1  UNL1        0.0636
     59 H          -5.2223    1.4221   -3.3733 H       1  UNL1        0.0618
     60 H          -5.8890    3.3472   -2.1047 H       1  UNL1        0.0618
     61 H          -5.0469    3.5629    0.2605 H       1  UNL1        0.0618
     62 H          -3.5651    1.7691    1.1849 H       1  UNL1        0.0636
@<TRIPOS>BOND
     1     1     2    1
     2     2     3    1
     3     3     4   ar
     4     4     5   ar
     5     5     6   ar
     6     6     7    1
     7     7     8    1
     8     8     9    1
     9     9    10    1
    10    10    11    1
    11    11    12    1
    12    12    13    1
    13    13    14    1
    14    14    15    1
    15    12    16    1
    16    16    17    1
    17    12    18    1
    18    18    19   am
    19    19    20    2
    20    19    21    1
    21    21    22    1
    22    18    23    1
    23    23    24   ar
    24    24    25   ar
    25    25    26   ar
    26    26    27   ar
    27    27    28   ar
    28     6    29   ar
    29    29    30    2
    30    29     3   ar
    31    17     9    1
    32    28    23   ar
    33     1    31    1
    34     1    32    1
    35     1    33    1
    36     2    34    1
    37     2    35    1
    38     7    36    1
    39     7    37    1
    40     8    38    1
    41     8    39    1
    42    10    40    1
    43    10    41    1
    44    11    42    1
    45    11    43    1
    46    13    44    1
    47    13    45    1
    48    15    46    1
    49    15    47    1
    50    15    48    1
    51    16    49    1
    52    16    50    1
    53    17    51    1
    54    17    52    1
    55    21    53    1
    56    21    54    1
    57    22    55    1
    58    22    56    1
    59    22    57    1
    60    24    58    1
    61    25    59    1
    62    26    60    1
    63    27    61    1
    64    28    62    1
