@<TRIPOS>MOLECULE
*****
 61 68 0 0 0
SMALL
GASTEIGER

@<TRIPOS>ATOM
      1 C           5.2577    0.2816    0.6627 C.3     1  UNL1       -0.0155
      2 N           4.0485    1.0259    0.9408 N.3     1  UNL1       -0.3136
      3 C           3.1310    0.9215   -0.1565 C.3     1  UNL1        0.0423
      4 C           1.9527    1.8643    0.1423 C.3     1  UNL1        0.0107
      5 C           1.0756    1.7804   -1.0852 C.3     1  UNL1        0.1402
      6 O           1.2421    0.7179   -1.8824 O.3     1  UNL1       -0.3282
      7 C           1.4714   -0.5325   -1.3094 C.3     1  UNL1        0.1741
      8 C           2.0868   -1.3493   -2.4180 C.3     1  UNL1       -0.0136
      9 C           2.4507   -0.4647   -0.1552 C.3     1  UNL1        0.1214
     10 O           1.8180   -0.5653    1.0683 O.3     1  UNL1       -0.3735
     11 C           2.3543   -1.5949    1.8282 C.3     1  UNL1        0.0371
     12 N           0.2078   -1.1156   -0.8563 N.ar    1  UNL1       -0.3070
     13 C          -0.0886   -2.4136   -0.7535 C.ar    1  UNL1        0.0527
     14 C           0.6224   -3.5620   -0.9682 C.ar    1  UNL1       -0.0375
     15 C           0.0683   -4.8131   -0.7756 C.ar    1  UNL1       -0.0598
     16 C          -1.2235   -4.9651   -0.3584 C.ar    1  UNL1       -0.0611
     17 C          -1.9661   -3.8364   -0.1322 C.ar    1  UNL1       -0.0520
     18 C          -1.4032   -2.6034   -0.3276 C.ar    1  UNL1        0.0081
     19 C          -1.9338   -1.3444   -0.1592 C.ar    1  UNL1        0.0151
     20 C          -3.1796   -0.8616    0.2464 C.ar    1  UNL1       -0.0078
     21 C          -3.4056    0.5182    0.3212 C.ar    1  UNL1        0.0518
     22 C          -2.3923    1.3825   -0.0066 C.ar    1  UNL1        0.0221
     23 C          -2.2764    2.7531   -0.0265 C.ar    1  UNL1        0.0085
     24 C          -3.1421    3.7841    0.2627 C.ar    1  UNL1       -0.0520
     25 C          -2.6931    5.0926    0.1362 C.ar    1  UNL1       -0.0611
     26 C          -1.4075    5.3263   -0.2710 C.ar    1  UNL1       -0.0598
     27 C          -0.5296    4.3154   -0.5639 C.ar    1  UNL1       -0.0375
     28 C          -0.9685    3.0344   -0.4402 C.ar    1  UNL1        0.0524
     29 N          -0.3152    1.8870   -0.6635 N.ar    1  UNL1       -0.3115
     30 C          -1.1529    0.8736   -0.4107 C.ar    1  UNL1        0.0774
     31 C          -0.9242   -0.4862   -0.4887 C.ar    1  UNL1        0.0772
     32 C          -4.7793    0.6781    0.7670 C.2     1  UNL1        0.2453
     33 O          -5.4429    1.7061    0.9833 O.2     1  UNL1       -0.2702
     34 N          -5.3831   -0.6131    0.9616 N.am    1  UNL1       -0.3072
     35 C          -4.3988   -1.6079    0.6423 C.3     1  UNL1        0.0385
     36 H           5.4763   -0.3720    1.5480 H       1  UNL1        0.0388
     37 H           6.1075    0.9749    0.4682 H       1  UNL1        0.0388
     38 H           5.0820   -0.3523   -0.2250 H       1  UNL1        0.0388
     39 H           4.3162    2.0236    1.0834 H       1  UNL1        0.1220
     40 H           3.5468    1.1656   -1.1331 H       1  UNL1        0.0489
     41 H           1.3652    1.4856    0.9947 H       1  UNL1        0.0325
     42 H           2.2699    2.8989    0.2716 H       1  UNL1        0.0325
     43 H           1.2649    2.7026   -1.7207 H       1  UNL1        0.0839
     44 H           3.0256   -1.8785   -2.1131 H       1  UNL1        0.0277
     45 H           1.3698   -1.9691   -2.9812 H       1  UNL1        0.0277
     46 H           2.4957   -0.6594   -3.2413 H       1  UNL1        0.0277
     47 H           3.2571   -1.2032   -0.2714 H       1  UNL1        0.0660
     48 H           1.8576   -1.6911    2.8158 H       1  UNL1        0.0524
     49 H           3.4567   -1.5810    1.9088 H       1  UNL1        0.0524
     50 H           2.1327   -2.5512    1.2702 H       1  UNL1        0.0524
     51 H           1.6311   -3.5021   -1.2763 H       1  UNL1        0.0638
     52 H           0.6364   -5.7318   -0.9479 H       1  UNL1        0.0618
     53 H          -1.6732   -5.9424   -0.2027 H       1  UNL1        0.0618
     54 H          -2.9950   -3.9445    0.2003 H       1  UNL1        0.0624
     55 H          -4.1282    3.5804    0.5743 H       1  UNL1        0.0624
     56 H          -3.4074    5.8768    0.3740 H       1  UNL1        0.0618
     57 H          -1.0483    6.3548   -0.3724 H       1  UNL1        0.0618
     58 H           0.4913    4.4938   -0.8872 H       1  UNL1        0.0638
     59 H          -6.3510   -0.8365    1.2749 H       1  UNL1        0.1493
     60 H          -4.7748   -2.2717   -0.1690 H       1  UNL1        0.0512
     61 H          -4.1859   -2.2841    1.5023 H       1  UNL1        0.0512
@<TRIPOS>BOND
     1     1     2    1
     2     2     3    1
     3     3     4    1
     4     4     5    1
     5     5     6    1
     6     6     7    1
     7     7     8    1
     8     7     9    1
     9     9    10    1
    10    10    11    1
    11     7    12    1
    12    12    13   ar
    13    13    14   ar
    14    14    15   ar
    15    15    16   ar
    16    16    17   ar
    17    17    18   ar
    18    18    19   ar
    19    19    20   ar
    20    20    21   ar
    21    21    22   ar
    22    22    23   ar
    23    23    24   ar
    24    24    25   ar
    25    25    26   ar
    26    26    27   ar
    27    27    28   ar
    28    28    29   ar
    29    29    30   ar
    30    30    31   ar
    31    21    32    1
    32    32    33    2
    33    32    34   am
    34    34    35    1
    35     9     3    1
    36    31    12   ar
    37    29     5    1
    38    18    13   ar
    39    31    19   ar
    40    35    20    1
    41    30    22   ar
    42    28    23   ar
    43     1    36    1
    44     1    37    1
    45     1    38    1
    46     2    39    1
    47     3    40    1
    48     4    41    1
    49     4    42    1
    50     5    43    1
    51     8    44    1
    52     8    45    1
    53     8    46    1
    54     9    47    1
    55    11    48    1
    56    11    49    1
    57    11    50    1
    58    14    51    1
    59    15    52    1
    60    16    53    1
    61    17    54    1
    62    24    55    1
    63    25    56    1
    64    26    57    1
    65    27    58    1
    66    34    59    1
    67    35    60    1
    68    35    61    1
