
     RDKit          3D

 61 68  0  0  0  0  0  0  0  0999 V2000
    5.2577    0.2816    0.6627 C   0  0  0  0  0  0  0  0  0  0  0  0
    4.0485    1.0259    0.9408 N   0  0  0  0  0  0  0  0  0  0  0  0
    3.1310    0.9215   -0.1565 C   0  0  2  0  0  0  0  0  0  0  0  0
    1.9527    1.8643    0.1423 C   0  0  0  0  0  0  0  0  0  0  0  0
    1.0756    1.7804   -1.0852 C   0  0  1  0  0  0  0  0  0  0  0  0
    1.2421    0.7179   -1.8824 O   0  0  0  0  0  0  0  0  0  0  0  0
    1.4714   -0.5325   -1.3094 C   0  0  1  0  0  0  0  0  0  0  0  0
    2.0868   -1.3493   -2.4180 C   0  0  0  0  0  0  0  0  0  0  0  0
    2.4507   -0.4647   -0.1552 C   0  0  2  0  0  0  0  0  0  0  0  0
    1.8180   -0.5653    1.0683 O   0  0  0  0  0  0  0  0  0  0  0  0
    2.3543   -1.5949    1.8282 C   0  0  0  0  0  0  0  0  0  0  0  0
    0.2078   -1.1156   -0.8563 N   0  0  0  0  0  0  0  0  0  0  0  0
   -0.0886   -2.4136   -0.7535 C   0  0  0  0  0  0  0  0  0  0  0  0
    0.6224   -3.5620   -0.9682 C   0  0  0  0  0  0  0  0  0  0  0  0
    0.0683   -4.8131   -0.7756 C   0  0  0  0  0  0  0  0  0  0  0  0
   -1.2235   -4.9651   -0.3584 C   0  0  0  0  0  0  0  0  0  0  0  0
   -1.9661   -3.8364   -0.1322 C   0  0  0  0  0  0  0  0  0  0  0  0
   -1.4032   -2.6034   -0.3276 C   0  0  0  0  0  0  0  0  0  0  0  0
   -1.9338   -1.3444   -0.1592 C   0  0  0  0  0  0  0  0  0  0  0  0
   -3.1796   -0.8616    0.2464 C   0  0  0  0  0  0  0  0  0  0  0  0
   -3.4056    0.5182    0.3212 C   0  0  0  0  0  0  0  0  0  0  0  0
   -2.3923    1.3825   -0.0066 C   0  0  0  0  0  0  0  0  0  0  0  0
   -2.2764    2.7531   -0.0265 C   0  0  0  0  0  0  0  0  0  0  0  0
   -3.1421    3.7841    0.2627 C   0  0  0  0  0  0  0  0  0  0  0  0
   -2.6931    5.0926    0.1362 C   0  0  0  0  0  0  0  0  0  0  0  0
   -1.4075    5.3263   -0.2710 C   0  0  0  0  0  0  0  0  0  0  0  0
   -0.5296    4.3154   -0.5639 C   0  0  0  0  0  0  0  0  0  0  0  0
   -0.9685    3.0344   -0.4402 C   0  0  0  0  0  0  0  0  0  0  0  0
   -0.3152    1.8870   -0.6635 N   0  0  0  0  0  0  0  0  0  0  0  0
   -1.1529    0.8736   -0.4107 C   0  0  0  0  0  0  0  0  0  0  0  0
   -0.9242   -0.4862   -0.4887 C   0  0  0  0  0  0  0  0  0  0  0  0
   -4.7793    0.6781    0.7670 C   0  0  0  0  0  0  0  0  0  0  0  0
   -5.4429    1.7061    0.9833 O   0  0  0  0  0  0  0  0  0  0  0  0
   -5.3831   -0.6131    0.9616 N   0  0  0  0  0  0  0  0  0  0  0  0
   -4.3988   -1.6079    0.6423 C   0  0  0  0  0  0  0  0  0  0  0  0
    5.4763   -0.3720    1.5480 H   0  0  0  0  0  0  0  0  0  0  0  0
    6.1075    0.9749    0.4682 H   0  0  0  0  0  0  0  0  0  0  0  0
    5.0820   -0.3523   -0.2250 H   0  0  0  0  0  0  0  0  0  0  0  0
    4.3162    2.0236    1.0834 H   0  0  0  0  0  0  0  0  0  0  0  0
    3.5468    1.1656   -1.1331 H   0  0  0  0  0  0  0  0  0  0  0  0
    1.3652    1.4856    0.9947 H   0  0  0  0  0  0  0  0  0  0  0  0
    2.2699    2.8989    0.2716 H   0  0  0  0  0  0  0  0  0  0  0  0
    1.2649    2.7026   -1.7207 H   0  0  0  0  0  0  0  0  0  0  0  0
    3.0256   -1.8785   -2.1131 H   0  0  0  0  0  0  0  0  0  0  0  0
    1.3698   -1.9691   -2.9812 H   0  0  0  0  0  0  0  0  0  0  0  0
    2.4957   -0.6594   -3.2413 H   0  0  0  0  0  0  0  0  0  0  0  0
    3.2571   -1.2032   -0.2714 H   0  0  0  0  0  0  0  0  0  0  0  0
    1.8576   -1.6911    2.8158 H   0  0  0  0  0  0  0  0  0  0  0  0
    3.4567   -1.5810    1.9088 H   0  0  0  0  0  0  0  0  0  0  0  0
    2.1327   -2.5512    1.2702 H   0  0  0  0  0  0  0  0  0  0  0  0
    1.6311   -3.5021   -1.2763 H   0  0  0  0  0  0  0  0  0  0  0  0
    0.6364   -5.7318   -0.9479 H   0  0  0  0  0  0  0  0  0  0  0  0
   -1.6732   -5.9424   -0.2027 H   0  0  0  0  0  0  0  0  0  0  0  0
   -2.9950   -3.9445    0.2003 H   0  0  0  0  0  0  0  0  0  0  0  0
   -4.1282    3.5804    0.5743 H   0  0  0  0  0  0  0  0  0  0  0  0
   -3.4074    5.8768    0.3740 H   0  0  0  0  0  0  0  0  0  0  0  0
   -1.0483    6.3548   -0.3724 H   0  0  0  0  0  0  0  0  0  0  0  0
    0.4913    4.4938   -0.8872 H   0  0  0  0  0  0  0  0  0  0  0  0
   -6.3510   -0.8365    1.2749 H   0  0  0  0  0  0  0  0  0  0  0  0
   -4.7748   -2.2717   -0.1690 H   0  0  0  0  0  0  0  0  0  0  0  0
   -4.1859   -2.2841    1.5023 H   0  0  0  0  0  0  0  0  0  0  0  0
  1  2  1  0
  2  3  1  0
  3  4  1  0
  4  5  1  0
  5  6  1  0
  6  7  1  0
  7  8  1  6
  7  9  1  0
  9 10  1  0
 10 11  1  0
  7 12  1  0
 12 13  1  0
 13 14  2  0
 14 15  1  0
 15 16  2  0
 16 17  1  0
 17 18  2  0
 18 19  1  0
 19 20  2  0
 20 21  1  0
 21 22  2  0
 22 23  1  0
 23 24  2  0
 24 25  1  0
 25 26  2  0
 26 27  1  0
 27 28  2  0
 28 29  1  0
 29 30  1  0
 30 31  2  0
 21 32  1  0
 32 33  2  0
 32 34  1  0
 34 35  1  0
  9  3  1  0
 31 12  1  0
 29  5  1  0
 18 13  1  0
 31 19  1  0
 35 20  1  0
 30 22  1  0
 28 23  1  0
  1 36  1  0
  1 37  1  0
  1 38  1  0
  2 39  1  0
  3 40  1  6
  4 41  1  0
  4 42  1  0
  5 43  1  6
  8 44  1  0
  8 45  1  0
  8 46  1  0
  9 47  1  6
 11 48  1  0
 11 49  1  0
 11 50  1  0
 14 51  1  0
 15 52  1  0
 16 53  1  0
 17 54  1  0
 24 55  1  0
 25 56  1  0
 26 57  1  0
 27 58  1  0
 34 59  1  0
 35 60  1  0
 35 61  1  0
M  END
$$$$
