
     RDKit          3D

 46 49  0  0  0  0  0  0  0  0999 V2000
    5.1210   -1.8794    2.1905 C   0  0  0  0  0  0  0  0  0  0  0  0
    4.1236   -1.4052    1.2052 C   0  0  0  0  0  0  0  0  0  0  0  0
    2.9472   -1.9318    0.9002 N   0  0  0  0  0  0  0  0  0  0  0  0
    2.4055   -1.1850   -0.0212 N   0  0  0  0  0  0  0  0  0  0  0  0
    3.2059   -0.1455   -0.3514 C   0  0  0  0  0  0  0  0  0  0  0  0
    2.8533    0.8903   -1.3807 C   0  0  0  0  0  0  0  0  0  0  0  0
    3.5849    1.9413   -1.7622 C   0  0  0  0  0  0  0  0  0  0  0  0
    4.9712    2.2647   -1.1822 C   0  0  0  0  0  0  0  0  0  0  0  0
    3.1238    2.8052   -2.7198 C   0  0  0  0  0  0  0  0  0  0  0  0
    1.5325    2.0813   -3.1168 S   0  0  0  0  0  0  0  0  0  0  0  0
    1.5807    0.7677   -2.0566 C   0  0  0  0  0  0  0  0  0  0  0  0
    0.6177   -0.2650   -1.8305 N   0  0  0  0  0  0  0  0  0  0  0  0
   -0.4009   -0.1568   -0.8744 C   0  0  0  0  0  0  0  0  0  0  0  0
   -0.4939    0.8828   -0.1721 O   0  0  0  0  0  0  0  0  0  0  0  0
   -1.3591   -1.3079   -0.7233 C   0  0  0  0  0  0  0  0  0  0  0  0
   -2.2881   -0.9591    0.2981 N   0  0  0  0  0  0  0  0  0  0  0  0
   -2.0356   -1.2906    1.6724 C   0  0  0  0  0  0  0  0  0  0  0  0
   -0.8852   -1.4544    2.0709 O   0  0  0  0  0  0  0  0  0  0  0  0
   -3.2020   -1.4216    2.5614 C   0  0  0  0  0  0  0  0  0  0  0  0
   -4.1061   -0.2371    2.3841 C   0  0  0  0  0  0  0  0  0  0  0  0
   -4.3839    0.0785    0.9692 C   0  0  0  0  0  0  0  0  0  0  0  0
   -5.5704    0.7492    0.6627 C   0  0  0  0  0  0  0  0  0  0  0  0
   -5.8086    1.0508   -0.6492 C   0  0  0  0  0  0  0  0  0  0  0  0
   -4.9445    0.7284   -1.6702 C   0  0  0  0  0  0  0  0  0  0  0  0
   -3.7854    0.0665   -1.3231 C   0  0  0  0  0  0  0  0  0  0  0  0
   -3.5081   -0.2565   -0.0102 C   0  0  0  0  0  0  0  0  0  0  0  0
    4.2701   -0.2926    0.4167 N   0  0  0  0  0  0  0  0  0  0  0  0
    6.1212   -1.4334    2.0126 H   0  0  0  0  0  0  0  0  0  0  0  0
    5.2623   -2.9813    2.1032 H   0  0  0  0  0  0  0  0  0  0  0  0
    4.7912   -1.6921    3.2421 H   0  0  0  0  0  0  0  0  0  0  0  0
    5.4084    3.1497   -1.7330 H   0  0  0  0  0  0  0  0  0  0  0  0
    4.9001    2.4899   -0.1125 H   0  0  0  0  0  0  0  0  0  0  0  0
    5.6730    1.4547   -1.3920 H   0  0  0  0  0  0  0  0  0  0  0  0
    3.5310    3.6780   -3.1571 H   0  0  0  0  0  0  0  0  0  0  0  0
    0.6848   -1.1328   -2.4075 H   0  0  0  0  0  0  0  0  0  0  0  0
   -0.7344   -2.1910   -0.3694 H   0  0  0  0  0  0  0  0  0  0  0  0
   -1.7756   -1.6467   -1.6740 H   0  0  0  0  0  0  0  0  0  0  0  0
   -2.8326   -1.4067    3.6116 H   0  0  0  0  0  0  0  0  0  0  0  0
   -3.7560   -2.3700    2.3988 H   0  0  0  0  0  0  0  0  0  0  0  0
   -5.0675   -0.3887    2.9214 H   0  0  0  0  0  0  0  0  0  0  0  0
   -3.6373    0.6565    2.8488 H   0  0  0  0  0  0  0  0  0  0  0  0
   -6.2684    1.0133    1.4606 H   0  0  0  0  0  0  0  0  0  0  0  0
   -6.7399    1.5780   -0.8958 H   0  0  0  0  0  0  0  0  0  0  0  0
   -5.1622    0.9833   -2.7122 H   0  0  0  0  0  0  0  0  0  0  0  0
   -3.0728   -0.2069   -2.0756 H   0  0  0  0  0  0  0  0  0  0  0  0
    5.1089    0.3279    0.4425 H   0  0  0  0  0  0  0  0  0  0  0  0
  1  2  1  0
  2  3  2  0
  3  4  1  0
  4  5  2  0
  5  6  1  0
  6  7  1  0
  7  8  1  0
  7  9  2  0
  9 10  1  0
 10 11  1  0
 11 12  1  0
 12 13  1  0
 13 14  2  0
 13 15  1  0
 15 16  1  0
 16 17  1  0
 17 18  2  0
 17 19  1  0
 19 20  1  0
 20 21  1  0
 21 22  2  0
 22 23  1  0
 23 24  2  0
 24 25  1  0
 25 26  2  0
  5 27  1  0
 27  2  1  0
 11  6  2  0
 26 16  1  0
 26 21  1  0
  1 28  1  0
  1 29  1  0
  1 30  1  0
  8 31  1  0
  8 32  1  0
  8 33  1  0
  9 34  1  0
 12 35  1  0
 15 36  1  0
 15 37  1  0
 19 38  1  0
 19 39  1  0
 20 40  1  0
 20 41  1  0
 22 42  1  0
 23 43  1  0
 24 44  1  0
 25 45  1  0
 27 46  1  0
M  END
$$$$
