@<TRIPOS>MOLECULE
*****
 46 49 0 0 0
SMALL
GASTEIGER

@<TRIPOS>ATOM
      1 C           5.1210   -1.8794    2.1905 C.3     1  UNL1       -0.0046
      2 C           4.1236   -1.4052    1.2052 C.ar    1  UNL1        0.1280
      3 N           2.9472   -1.9318    0.9002 N.ar    1  UNL1       -0.1345
      4 N           2.4055   -1.1850   -0.0212 N.ar    1  UNL1       -0.1293
      5 C           3.2059   -0.1455   -0.3514 C.ar    1  UNL1        0.1642
      6 C           2.8533    0.8903   -1.3807 C.ar    1  UNL1        0.0504
      7 C           3.5849    1.9413   -1.7622 C.ar    1  UNL1       -0.0309
      8 C           4.9712    2.2647   -1.1822 C.3     1  UNL1       -0.0385
      9 C           3.1238    2.8052   -2.7198 C.ar    1  UNL1       -0.0189
     10 S           1.5325    2.0813   -3.1168 S.2     1  UNL1       -0.0809
     11 C           1.5807    0.7677   -2.0566 C.ar    1  UNL1        0.0827
     12 N           0.6177   -0.2650   -1.8305 N.am    1  UNL1       -0.2781
     13 C          -0.4009   -0.1568   -0.8744 C.2     1  UNL1        0.2354
     14 O          -0.4939    0.8828   -0.1721 O.2     1  UNL1       -0.2737
     15 C          -1.3591   -1.3079   -0.7233 C.3     1  UNL1        0.0964
     16 N          -2.2881   -0.9591    0.2981 N.am    1  UNL1       -0.2623
     17 C          -2.0356   -1.2906    1.6724 C.2     1  UNL1        0.2205
     18 O          -0.8852   -1.4544    2.0709 O.2     1  UNL1       -0.2752
     19 C          -3.2020   -1.4216    2.5614 C.3     1  UNL1        0.0285
     20 C          -4.1061   -0.2371    2.3841 C.3     1  UNL1       -0.0177
     21 C          -4.3839    0.0785    0.9692 C.ar    1  UNL1       -0.0255
     22 C          -5.5704    0.7492    0.6627 C.ar    1  UNL1       -0.0568
     23 C          -5.8086    1.0508   -0.6492 C.ar    1  UNL1       -0.0614
     24 C          -4.9445    0.7284   -1.6702 C.ar    1  UNL1       -0.0600
     25 C          -3.7854    0.0665   -1.3231 C.ar    1  UNL1       -0.0400
     26 C          -3.5081   -0.2565   -0.0102 C.ar    1  UNL1        0.0400
     27 N           4.2701   -0.2926    0.4167 N.ar    1  UNL1       -0.3253
     28 H           6.1212   -1.4334    2.0126 H       1  UNL1        0.0308
     29 H           5.2623   -2.9813    2.1032 H       1  UNL1        0.0308
     30 H           4.7912   -1.6921    3.2421 H       1  UNL1        0.0308
     31 H           5.4084    3.1497   -1.7330 H       1  UNL1        0.0278
     32 H           4.9001    2.4899   -0.1125 H       1  UNL1        0.0278
     33 H           5.6730    1.4547   -1.3920 H       1  UNL1        0.0278
     34 H           3.5310    3.6780   -3.1571 H       1  UNL1        0.0697
     35 H           0.6848   -1.1328   -2.4075 H       1  UNL1        0.1554
     36 H          -0.7344   -2.1910   -0.3694 H       1  UNL1        0.0564
     37 H          -1.7756   -1.6467   -1.6740 H       1  UNL1        0.0564
     38 H          -2.8326   -1.4067    3.6116 H       1  UNL1        0.0362
     39 H          -3.7560   -2.3700    2.3988 H       1  UNL1        0.0362
     40 H          -5.0675   -0.3887    2.9214 H       1  UNL1        0.0318
     41 H          -3.6373    0.6565    2.8488 H       1  UNL1        0.0318
     42 H          -6.2684    1.0133    1.4606 H       1  UNL1        0.0621
     43 H          -6.7399    1.5780   -0.8958 H       1  UNL1        0.0618
     44 H          -5.1622    0.9833   -2.7122 H       1  UNL1        0.0618
     45 H          -3.0728   -0.2069   -2.0756 H       1  UNL1        0.0636
     46 H           5.1089    0.3279    0.4425 H       1  UNL1        0.1685
@<TRIPOS>BOND
     1     1     2    1
     2     2     3   ar
     3     3     4   ar
     4     4     5   ar
     5     5     6    1
     6     6     7   ar
     7     7     8    1
     8     7     9   ar
     9     9    10   ar
    10    10    11   ar
    11    11    12    1
    12    12    13   am
    13    13    14    2
    14    13    15    1
    15    15    16    1
    16    16    17   am
    17    17    18    2
    18    17    19    1
    19    19    20    1
    20    20    21    1
    21    21    22   ar
    22    22    23   ar
    23    23    24   ar
    24    24    25   ar
    25    25    26   ar
    26     5    27   ar
    27    27     2   ar
    28    11     6   ar
    29    26    16    1
    30    26    21   ar
    31     1    28    1
    32     1    29    1
    33     1    30    1
    34     8    31    1
    35     8    32    1
    36     8    33    1
    37     9    34    1
    38    12    35    1
    39    15    36    1
    40    15    37    1
    41    19    38    1
    42    19    39    1
    43    20    40    1
    44    20    41    1
    45    22    42    1
    46    23    43    1
    47    24    44    1
    48    25    45    1
    49    27    46    1
