@<TRIPOS>MOLECULE
*****
 49 52 0 0 0
SMALL
GASTEIGER

@<TRIPOS>ATOM
      1 C          -4.3586   -1.2529   -1.3331 C.3     1  UNL1       -0.0578
      2 C          -3.4395   -1.0153   -0.1506 C.3     1  UNL1       -0.0116
      3 C          -4.2174   -1.1410    1.1619 C.3     1  UNL1       -0.0578
      4 C          -2.3581   -2.0418   -0.1435 C.3     1  UNL1        0.0288
      5 N          -1.1039   -1.2960   -0.0906 N.ar    1  UNL1       -0.3454
      6 C           0.2069   -1.5202   -0.0011 C.ar    1  UNL1        0.0379
      7 C           0.9202   -2.8290    0.0871 C.3     1  UNL1        0.0857
      8 C           1.3566   -3.0209    1.5158 C.2     1  UNL1        0.3105
      9 O           1.9856   -3.7848    2.4713 O.3     1  UNL1       -0.4804
     10 O           0.9590   -1.9991    2.1354 O.2     1  UNL1       -0.2506
     11 C           0.8933   -0.2995    0.0012 C.ar    1  UNL1        0.0114
     12 C          -0.0873    0.6713   -0.0925 C.ar    1  UNL1        0.0108
     13 C          -1.3080    0.0244   -0.1475 C.ar    1  UNL1        0.0278
     14 C          -2.7578    0.3039   -0.2488 C.3     1  UNL1       -0.0049
     15 C           0.0989    2.1089   -0.1301 C.ar    1  UNL1       -0.0156
     16 C           0.5994    2.9925    0.8062 C.ar    1  UNL1       -0.0540
     17 C           0.6623    4.3343    0.4923 C.ar    1  UNL1       -0.0612
     18 C           0.2537    4.8386   -0.7015 C.ar    1  UNL1       -0.0617
     19 C          -0.2443    3.9798   -1.6392 C.ar    1  UNL1       -0.0612
     20 C          -0.3226    2.6124   -1.3551 C.ar    1  UNL1       -0.0540
     21 C           2.3393   -0.1208    0.0888 C.ar    1  UNL1       -0.0155
     22 C           2.9785   -0.5922   -1.0516 C.ar    1  UNL1       -0.0526
     23 C           4.3553   -0.5237   -1.1761 C.ar    1  UNL1       -0.0428
     24 C           5.1302    0.0222   -0.1549 C.ar    1  UNL1        0.0410
     25 CL          6.8594    0.1309   -0.2673 Cl      1  UNL1       -0.0835
     26 C           4.4764    0.4830    0.9668 C.ar    1  UNL1       -0.0428
     27 C           3.1060    0.4204    1.1027 C.ar    1  UNL1       -0.0526
     28 H          -3.8191   -0.9491   -2.2410 H       1  UNL1        0.0236
     29 H          -4.6475   -2.3354   -1.3464 H       1  UNL1        0.0236
     30 H          -5.3045   -0.6706   -1.2697 H       1  UNL1        0.0236
     31 H          -4.9920   -0.3575    1.1221 H       1  UNL1        0.0236
     32 H          -4.6139   -2.1610    1.2172 H       1  UNL1        0.0236
     33 H          -3.4877   -1.0187    1.9661 H       1  UNL1        0.0236
     34 H          -2.4113   -2.6673   -1.0660 H       1  UNL1        0.0497
     35 H          -2.4005   -2.6797    0.7523 H       1  UNL1        0.0497
     36 H           1.8293   -2.8443   -0.5130 H       1  UNL1        0.0441
     37 H           0.2197   -3.6094   -0.2060 H       1  UNL1        0.0441
     38 H           2.8196   -3.4371    2.9090 H       1  UNL1        0.2951
     39 H          -3.0827    0.9511    0.5865 H       1  UNL1        0.0334
     40 H          -3.0029    0.7508   -1.2464 H       1  UNL1        0.0334
     41 H           0.8904    2.4836    1.7142 H       1  UNL1        0.0624
     42 H           1.0803    4.9126    1.3287 H       1  UNL1        0.0618
     43 H           0.3574    5.9287   -0.8239 H       1  UNL1        0.0618
     44 H          -0.5639    4.4187   -2.5856 H       1  UNL1        0.0618
     45 H          -0.7406    2.0578   -2.2003 H       1  UNL1        0.0624
     46 H           2.4935   -1.0439   -1.9325 H       1  UNL1        0.0624
     47 H           4.8905   -0.8857   -2.0585 H       1  UNL1        0.0632
     48 H           4.9896    0.9211    1.8100 H       1  UNL1        0.0632
     49 H           2.5126    0.7500    1.9371 H       1  UNL1        0.0624
@<TRIPOS>BOND
     1     1     2    1
     2     2     3    1
     3     2     4    1
     4     4     5    1
     5     5     6   ar
     6     6     7    1
     7     7     8    1
     8     8     9    1
     9     8    10    2
    10     6    11   ar
    11    11    12   ar
    12    12    13   ar
    13    13    14    1
    14    12    15    1
    15    15    16   ar
    16    16    17   ar
    17    17    18   ar
    18    18    19   ar
    19    19    20   ar
    20    11    21    1
    21    21    22   ar
    22    22    23   ar
    23    23    24   ar
    24    24    25    1
    25    24    26   ar
    26    26    27   ar
    27    14     2    1
    28    20    15   ar
    29    27    21   ar
    30    13     5   ar
    31     1    28    1
    32     1    29    1
    33     1    30    1
    34     3    31    1
    35     3    32    1
    36     3    33    1
    37     4    34    1
    38     4    35    1
    39     7    36    1
    40     7    37    1
    41     9    38    1
    42    14    39    1
    43    14    40    1
    44    16    41    1
    45    17    42    1
    46    18    43    1
    47    19    44    1
    48    20    45    1
    49    22    46    1
    50    23    47    1
    51    26    48    1
    52    27    49    1
