@<TRIPOS>MOLECULE
*****
 50 53 0 0 0
SMALL
GASTEIGER

@<TRIPOS>ATOM
      1 C          -5.5910   -2.1451   -2.6084 C.3     1  UNL1        0.0790
      2 O          -6.2200   -1.4009   -1.5819 O.3     1  UNL1       -0.4913
      3 C          -5.3762   -0.7113   -0.6941 C.ar    1  UNL1        0.1650
      4 C          -4.0055   -0.7455   -0.8010 C.ar    1  UNL1        0.0267
      5 C          -3.1864   -0.0518    0.0933 C.ar    1  UNL1        0.1429
      6 O          -1.8901   -0.1015   -0.0312 O.2     1  UNL1       -0.4545
      7 C          -1.0456    0.5148    0.7579 C.ar    1  UNL1        0.1392
      8 C           0.3921    0.4012    0.5408 C.ar    1  UNL1        0.0175
      9 C           0.8563   -0.3698   -0.5152 C.ar    1  UNL1       -0.0493
     10 C           2.2002   -0.5165   -0.7733 C.ar    1  UNL1       -0.0400
     11 C           3.1331    0.1080    0.0227 C.ar    1  UNL1        0.0297
     12 N           4.5370   -0.0263   -0.2125 N.pl3   1  UNL1       -0.3299
     13 C           5.4468    0.7536    0.5573 C.3     1  UNL1        0.0122
     14 C           6.8215    0.9028    0.0085 C.3     1  UNL1       -0.0372
     15 C           7.2625   -0.1783   -0.9323 C.3     1  UNL1       -0.0502
     16 C           6.4035   -1.3983   -0.8820 C.3     1  UNL1       -0.0372
     17 C           4.9849   -0.9541   -1.2209 C.3     1  UNL1        0.0122
     18 C           2.6789    0.8747    1.0725 C.ar    1  UNL1       -0.0400
     19 C           1.3298    1.0040    1.3074 C.ar    1  UNL1       -0.0493
     20 C          -1.5945    1.2567    1.7778 C.ar    1  UNL1        0.0287
     21 C          -2.9617    1.3565    1.9728 C.ar    1  UNL1        0.1932
     22 O          -3.4426    2.0421    2.9140 O.2     1  UNL1       -0.2870
     23 C          -3.7723    0.6760    1.0958 C.ar    1  UNL1        0.0677
     24 C          -5.1444    0.7362    1.2378 C.ar    1  UNL1       -0.0020
     25 C          -5.9187    0.0387    0.3363 C.ar    1  UNL1        0.1624
     26 O          -7.2963    0.0731    0.4435 O.3     1  UNL1       -0.4914
     27 C          -7.9945    0.7833    1.4272 C.3     1  UNL1        0.0790
     28 H          -4.8390   -1.5152   -3.1605 H       1  UNL1        0.0660
     29 H          -5.0704   -3.0399   -2.2118 H       1  UNL1        0.0660
     30 H          -6.3145   -2.5015   -3.3654 H       1  UNL1        0.0660
     31 H          -3.5552   -1.3111   -1.5799 H       1  UNL1        0.0692
     32 H           0.1735   -0.8935   -1.1871 H       1  UNL1        0.0625
     33 H           2.5601   -1.1254   -1.6097 H       1  UNL1        0.0636
     34 H           5.0075    1.7980    0.5863 H       1  UNL1        0.0464
     35 H           5.4782    0.4466    1.6371 H       1  UNL1        0.0464
     36 H           6.9894    1.9290   -0.4282 H       1  UNL1        0.0280
     37 H           7.5439    0.8721    0.8768 H       1  UNL1        0.0280
     38 H           7.1636    0.2369   -1.9776 H       1  UNL1        0.0266
     39 H           8.3120   -0.4705   -0.8355 H       1  UNL1        0.0266
     40 H           6.7855   -2.1403   -1.5930 H       1  UNL1        0.0280
     41 H           6.4702   -1.8231    0.1353 H       1  UNL1        0.0280
     42 H           4.3954   -1.8948   -1.2472 H       1  UNL1        0.0464
     43 H           5.0189   -0.5206   -2.2291 H       1  UNL1        0.0464
     44 H           3.3963    1.3871    1.7314 H       1  UNL1        0.0636
     45 H           1.0520    1.6276    2.1570 H       1  UNL1        0.0625
     46 H          -0.9355    1.7832    2.4551 H       1  UNL1        0.0693
     47 H          -5.5344    1.3226    2.0417 H       1  UNL1        0.0663
     48 H          -9.0374    0.3911    1.4610 H       1  UNL1        0.0660
     49 H          -8.0861    1.8687    1.2242 H       1  UNL1        0.0660
     50 H          -7.5809    0.6507    2.4487 H       1  UNL1        0.0660
@<TRIPOS>BOND
     1     1     2    1
     2     2     3    1
     3     3     4   ar
     4     4     5   ar
     5     5     6   ar
     6     6     7   ar
     7     7     8    1
     8     8     9   ar
     9     9    10   ar
    10    10    11   ar
    11    11    12    1
    12    12    13    1
    13    13    14    1
    14    14    15    1
    15    15    16    1
    16    16    17    1
    17    11    18   ar
    18    18    19   ar
    19     7    20   ar
    20    20    21   ar
    21    21    22    2
    22    21    23   ar
    23    23    24   ar
    24    24    25   ar
    25    25    26    1
    26    26    27    1
    27    25     3   ar
    28    23     5   ar
    29    19     8   ar
    30    17    12    1
    31     1    28    1
    32     1    29    1
    33     1    30    1
    34     4    31    1
    35     9    32    1
    36    10    33    1
    37    13    34    1
    38    13    35    1
    39    14    36    1
    40    14    37    1
    41    15    38    1
    42    15    39    1
    43    16    40    1
    44    16    41    1
    45    17    42    1
    46    17    43    1
    47    18    44    1
    48    19    45    1
    49    20    46    1
    50    24    47    1
    51    27    48    1
    52    27    49    1
    53    27    50    1
