
     RDKit          3D

 50 53  0  0  0  0  0  0  0  0999 V2000
   -5.5910   -2.1451   -2.6084 C   0  0  0  0  0  0  0  0  0  0  0  0
   -6.2200   -1.4009   -1.5819 O   0  0  0  0  0  0  0  0  0  0  0  0
   -5.3762   -0.7113   -0.6941 C   0  0  0  0  0  0  0  0  0  0  0  0
   -4.0055   -0.7455   -0.8010 C   0  0  0  0  0  0  0  0  0  0  0  0
   -3.1864   -0.0518    0.0933 C   0  0  0  0  0  0  0  0  0  0  0  0
   -1.8901   -0.1015   -0.0312 O   0  0  0  0  0  0  0  0  0  0  0  0
   -1.0456    0.5148    0.7579 C   0  0  0  0  0  0  0  0  0  0  0  0
    0.3921    0.4012    0.5408 C   0  0  0  0  0  0  0  0  0  0  0  0
    0.8563   -0.3698   -0.5152 C   0  0  0  0  0  0  0  0  0  0  0  0
    2.2002   -0.5165   -0.7733 C   0  0  0  0  0  0  0  0  0  0  0  0
    3.1331    0.1080    0.0227 C   0  0  0  0  0  0  0  0  0  0  0  0
    4.5370   -0.0263   -0.2125 N   0  0  0  0  0  0  0  0  0  0  0  0
    5.4468    0.7536    0.5573 C   0  0  0  0  0  0  0  0  0  0  0  0
    6.8215    0.9028    0.0085 C   0  0  0  0  0  0  0  0  0  0  0  0
    7.2625   -0.1783   -0.9323 C   0  0  0  0  0  0  0  0  0  0  0  0
    6.4035   -1.3983   -0.8820 C   0  0  0  0  0  0  0  0  0  0  0  0
    4.9849   -0.9541   -1.2209 C   0  0  0  0  0  0  0  0  0  0  0  0
    2.6789    0.8747    1.0725 C   0  0  0  0  0  0  0  0  0  0  0  0
    1.3298    1.0040    1.3074 C   0  0  0  0  0  0  0  0  0  0  0  0
   -1.5945    1.2567    1.7778 C   0  0  0  0  0  0  0  0  0  0  0  0
   -2.9617    1.3565    1.9728 C   0  0  0  0  0  0  0  0  0  0  0  0
   -3.4426    2.0421    2.9140 O   0  0  0  0  0  0  0  0  0  0  0  0
   -3.7723    0.6760    1.0958 C   0  0  0  0  0  0  0  0  0  0  0  0
   -5.1444    0.7362    1.2378 C   0  0  0  0  0  0  0  0  0  0  0  0
   -5.9187    0.0387    0.3363 C   0  0  0  0  0  0  0  0  0  0  0  0
   -7.2963    0.0731    0.4435 O   0  0  0  0  0  0  0  0  0  0  0  0
   -7.9945    0.7833    1.4272 C   0  0  0  0  0  0  0  0  0  0  0  0
   -4.8390   -1.5152   -3.1605 H   0  0  0  0  0  0  0  0  0  0  0  0
   -5.0704   -3.0399   -2.2118 H   0  0  0  0  0  0  0  0  0  0  0  0
   -6.3145   -2.5015   -3.3654 H   0  0  0  0  0  0  0  0  0  0  0  0
   -3.5552   -1.3111   -1.5799 H   0  0  0  0  0  0  0  0  0  0  0  0
    0.1735   -0.8935   -1.1871 H   0  0  0  0  0  0  0  0  0  0  0  0
    2.5601   -1.1254   -1.6097 H   0  0  0  0  0  0  0  0  0  0  0  0
    5.0075    1.7980    0.5863 H   0  0  0  0  0  0  0  0  0  0  0  0
    5.4782    0.4466    1.6371 H   0  0  0  0  0  0  0  0  0  0  0  0
    6.9894    1.9290   -0.4282 H   0  0  0  0  0  0  0  0  0  0  0  0
    7.5439    0.8721    0.8768 H   0  0  0  0  0  0  0  0  0  0  0  0
    7.1636    0.2369   -1.9776 H   0  0  0  0  0  0  0  0  0  0  0  0
    8.3120   -0.4705   -0.8355 H   0  0  0  0  0  0  0  0  0  0  0  0
    6.7855   -2.1403   -1.5930 H   0  0  0  0  0  0  0  0  0  0  0  0
    6.4702   -1.8231    0.1353 H   0  0  0  0  0  0  0  0  0  0  0  0
    4.3954   -1.8948   -1.2472 H   0  0  0  0  0  0  0  0  0  0  0  0
    5.0189   -0.5206   -2.2291 H   0  0  0  0  0  0  0  0  0  0  0  0
    3.3963    1.3871    1.7314 H   0  0  0  0  0  0  0  0  0  0  0  0
    1.0520    1.6276    2.1570 H   0  0  0  0  0  0  0  0  0  0  0  0
   -0.9355    1.7832    2.4551 H   0  0  0  0  0  0  0  0  0  0  0  0
   -5.5344    1.3226    2.0417 H   0  0  0  0  0  0  0  0  0  0  0  0
   -9.0374    0.3911    1.4610 H   0  0  0  0  0  0  0  0  0  0  0  0
   -8.0861    1.8687    1.2242 H   0  0  0  0  0  0  0  0  0  0  0  0
   -7.5809    0.6507    2.4487 H   0  0  0  0  0  0  0  0  0  0  0  0
  1  2  1  0
  2  3  1  0
  3  4  2  0
  4  5  1  0
  5  6  1  0
  6  7  1  0
  7  8  1  0
  8  9  2  0
  9 10  1  0
 10 11  2  0
 11 12  1  0
 12 13  1  0
 13 14  1  0
 14 15  1  0
 15 16  1  0
 16 17  1  0
 11 18  1  0
 18 19  2  0
  7 20  2  0
 20 21  1  0
 21 22  2  0
 21 23  1  0
 23 24  1  0
 24 25  2  0
 25 26  1  0
 26 27  1  0
 25  3  1  0
 23  5  2  0
 19  8  1  0
 17 12  1  0
  1 28  1  0
  1 29  1  0
  1 30  1  0
  4 31  1  0
  9 32  1  0
 10 33  1  0
 13 34  1  0
 13 35  1  0
 14 36  1  0
 14 37  1  0
 15 38  1  0
 15 39  1  0
 16 40  1  0
 16 41  1  0
 17 42  1  0
 17 43  1  0
 18 44  1  0
 19 45  1  0
 20 46  1  0
 24 47  1  0
 27 48  1  0
 27 49  1  0
 27 50  1  0
M  END
$$$$
