@<TRIPOS>MOLECULE
*****
 50 53 0 0 0
SMALL
GASTEIGER

@<TRIPOS>ATOM
      1 C           1.5099    1.3480   -2.0529 C.3     1  UNL1       -0.0236
      2 C           1.7475    0.3424   -0.9896 C.ar    1  UNL1        0.0251
      3 C           0.7740   -0.1213   -0.1388 C.ar    1  UNL1        0.0124
      4 C          -0.6316    0.2298   -0.0699 C.ar    1  UNL1        0.0085
      5 C          -1.6117   -0.4348   -0.7800 C.ar    1  UNL1        0.0166
      6 N          -2.9129   -0.1268   -0.7305 N.ar    1  UNL1       -0.3116
      7 C          -3.8149   -0.9225   -1.5375 C.3     1  UNL1        0.0318
      8 C          -4.7529   -1.7462   -0.6993 C.3     1  UNL1       -0.0444
      9 C          -3.0827   -1.8023   -2.4946 C.3     1  UNL1       -0.0444
     10 C          -3.3637    0.8744    0.0322 C.ar    1  UNL1        0.2593
     11 O          -4.5633    1.1750    0.0918 O.2     1  UNL1       -0.2670
     12 C          -2.4148    1.5830    0.7740 C.ar    1  UNL1        0.0473
     13 C          -2.8555    2.6242    1.5717 C.ar    1  UNL1       -0.0488
     14 C          -1.9513    3.3544    2.3244 C.ar    1  UNL1       -0.0610
     15 C          -0.6123    3.0226    2.2610 C.ar    1  UNL1       -0.0611
     16 C          -0.1698    1.9895    1.4704 C.ar    1  UNL1       -0.0532
     17 C          -1.0860    1.2820    0.7348 C.ar    1  UNL1       -0.0035
     18 C           1.4119   -1.0280    0.6790 C.ar    1  UNL1        0.0106
     19 C           1.0066   -1.8334    1.7289 C.ar    1  UNL1       -0.0167
     20 C           1.8467   -2.6835    2.4151 C.ar    1  UNL1        0.1241
     21 F           1.3911   -3.4597    3.4485 F       1  UNL1       -0.2055
     22 C           3.1683   -2.7239    2.0212 C.ar    1  UNL1       -0.0245
     23 C           3.6021   -1.9275    0.9721 C.ar    1  UNL1       -0.0349
     24 C           2.7495   -1.0826    0.2959 C.ar    1  UNL1        0.0505
     25 N           2.9252   -0.2326   -0.7282 N.ar    1  UNL1       -0.3327
     26 C           4.1900    0.0137   -1.4288 C.3     1  UNL1        0.1204
     27 C           4.9435    1.0998   -0.8077 C.2     1  UNL1        0.3247
     28 O           6.0556    1.4472   -1.2790 O.2     1  UNL1       -0.2490
     29 O           4.4823    1.7866    0.3061 O.3     1  UNL1       -0.4794
     30 H           1.9507    1.0650   -3.0153 H       1  UNL1        0.0292
     31 H           0.4396    1.5347   -2.2127 H       1  UNL1        0.0292
     32 H           2.0506    2.2783   -1.7196 H       1  UNL1        0.0292
     33 H          -1.2435   -1.2587   -1.4082 H       1  UNL1        0.0816
     34 H          -4.4264   -0.2101   -2.1314 H       1  UNL1        0.0523
     35 H          -5.2110   -1.1272    0.1115 H       1  UNL1        0.0249
     36 H          -4.2684   -2.6457   -0.2615 H       1  UNL1        0.0249
     37 H          -5.5845   -2.1061   -1.3427 H       1  UNL1        0.0249
     38 H          -2.5843   -2.6708   -2.0223 H       1  UNL1        0.0249
     39 H          -2.3818   -1.1976   -3.1187 H       1  UNL1        0.0249
     40 H          -3.8423   -2.2279   -3.2103 H       1  UNL1        0.0249
     41 H          -3.9078    2.8430    1.5866 H       1  UNL1        0.0625
     42 H          -2.3321    4.1688    2.9427 H       1  UNL1        0.0618
     43 H           0.1122    3.5824    2.8431 H       1  UNL1        0.0618
     44 H           0.8685    1.6989    1.3935 H       1  UNL1        0.0624
     45 H          -0.0274   -1.7921    2.0260 H       1  UNL1        0.0653
     46 H           3.8207   -3.3922    2.5633 H       1  UNL1        0.0647
     47 H           4.6420   -2.0037    0.7126 H       1  UNL1        0.0639
     48 H           3.9838    0.1545   -2.4943 H       1  UNL1        0.0607
     49 H           4.7759   -0.9381   -1.3451 H       1  UNL1        0.0607
     50 H           5.1848    2.1972    0.9083 H       1  UNL1        0.2951
@<TRIPOS>BOND
     1     1     2    1
     2     2     3   ar
     3     3     4    1
     4     4     5   ar
     5     5     6   ar
     6     6     7    1
     7     7     8    1
     8     7     9    1
     9     6    10   ar
    10    10    11    2
    11    10    12   ar
    12    12    13   ar
    13    13    14   ar
    14    14    15   ar
    15    15    16   ar
    16    16    17   ar
    17     3    18   ar
    18    18    19   ar
    19    19    20   ar
    20    20    21    1
    21    20    22   ar
    22    22    23   ar
    23    23    24   ar
    24    24    25   ar
    25    25    26    1
    26    26    27    1
    27    27    28    2
    28    27    29    1
    29    25     2   ar
    30    17     4   ar
    31    24    18   ar
    32    17    12   ar
    33     1    30    1
    34     1    31    1
    35     1    32    1
    36     5    33    1
    37     7    34    1
    38     8    35    1
    39     8    36    1
    40     8    37    1
    41     9    38    1
    42     9    39    1
    43     9    40    1
    44    13    41    1
    45    14    42    1
    46    15    43    1
    47    16    44    1
    48    19    45    1
    49    22    46    1
    50    23    47    1
    51    26    48    1
    52    26    49    1
    53    29    50    1
