
     RDKit          3D

 50 53  0  0  0  0  0  0  0  0999 V2000
    1.5099    1.3480   -2.0529 C   0  0  0  0  0  0  0  0  0  0  0  0
    1.7475    0.3424   -0.9896 C   0  0  0  0  0  0  0  0  0  0  0  0
    0.7740   -0.1213   -0.1388 C   0  0  0  0  0  0  0  0  0  0  0  0
   -0.6316    0.2298   -0.0699 C   0  0  0  0  0  0  0  0  0  0  0  0
   -1.6117   -0.4348   -0.7800 C   0  0  0  0  0  0  0  0  0  0  0  0
   -2.9129   -0.1268   -0.7305 N   0  0  0  0  0  0  0  0  0  0  0  0
   -3.8149   -0.9225   -1.5375 C   0  0  0  0  0  0  0  0  0  0  0  0
   -4.7529   -1.7462   -0.6993 C   0  0  0  0  0  0  0  0  0  0  0  0
   -3.0827   -1.8023   -2.4946 C   0  0  0  0  0  0  0  0  0  0  0  0
   -3.3637    0.8744    0.0322 C   0  0  0  0  0  0  0  0  0  0  0  0
   -4.5633    1.1750    0.0918 O   0  0  0  0  0  0  0  0  0  0  0  0
   -2.4148    1.5830    0.7740 C   0  0  0  0  0  0  0  0  0  0  0  0
   -2.8555    2.6242    1.5717 C   0  0  0  0  0  0  0  0  0  0  0  0
   -1.9513    3.3544    2.3244 C   0  0  0  0  0  0  0  0  0  0  0  0
   -0.6123    3.0226    2.2610 C   0  0  0  0  0  0  0  0  0  0  0  0
   -0.1698    1.9895    1.4704 C   0  0  0  0  0  0  0  0  0  0  0  0
   -1.0860    1.2820    0.7348 C   0  0  0  0  0  0  0  0  0  0  0  0
    1.4119   -1.0280    0.6790 C   0  0  0  0  0  0  0  0  0  0  0  0
    1.0066   -1.8334    1.7289 C   0  0  0  0  0  0  0  0  0  0  0  0
    1.8467   -2.6835    2.4151 C   0  0  0  0  0  0  0  0  0  0  0  0
    1.3911   -3.4597    3.4485 F   0  0  0  0  0  0  0  0  0  0  0  0
    3.1683   -2.7239    2.0212 C   0  0  0  0  0  0  0  0  0  0  0  0
    3.6021   -1.9275    0.9721 C   0  0  0  0  0  0  0  0  0  0  0  0
    2.7495   -1.0826    0.2959 C   0  0  0  0  0  0  0  0  0  0  0  0
    2.9252   -0.2326   -0.7282 N   0  0  0  0  0  0  0  0  0  0  0  0
    4.1900    0.0137   -1.4288 C   0  0  0  0  0  0  0  0  0  0  0  0
    4.9435    1.0998   -0.8077 C   0  0  0  0  0  0  0  0  0  0  0  0
    6.0556    1.4472   -1.2790 O   0  0  0  0  0  0  0  0  0  0  0  0
    4.4823    1.7866    0.3061 O   0  0  0  0  0  0  0  0  0  0  0  0
    1.9507    1.0650   -3.0153 H   0  0  0  0  0  0  0  0  0  0  0  0
    0.4396    1.5347   -2.2127 H   0  0  0  0  0  0  0  0  0  0  0  0
    2.0506    2.2783   -1.7196 H   0  0  0  0  0  0  0  0  0  0  0  0
   -1.2435   -1.2587   -1.4082 H   0  0  0  0  0  0  0  0  0  0  0  0
   -4.4264   -0.2101   -2.1314 H   0  0  0  0  0  0  0  0  0  0  0  0
   -5.2110   -1.1272    0.1115 H   0  0  0  0  0  0  0  0  0  0  0  0
   -4.2684   -2.6457   -0.2615 H   0  0  0  0  0  0  0  0  0  0  0  0
   -5.5845   -2.1061   -1.3427 H   0  0  0  0  0  0  0  0  0  0  0  0
   -2.5843   -2.6708   -2.0223 H   0  0  0  0  0  0  0  0  0  0  0  0
   -2.3818   -1.1976   -3.1187 H   0  0  0  0  0  0  0  0  0  0  0  0
   -3.8423   -2.2279   -3.2103 H   0  0  0  0  0  0  0  0  0  0  0  0
   -3.9078    2.8430    1.5866 H   0  0  0  0  0  0  0  0  0  0  0  0
   -2.3321    4.1688    2.9427 H   0  0  0  0  0  0  0  0  0  0  0  0
    0.1122    3.5824    2.8431 H   0  0  0  0  0  0  0  0  0  0  0  0
    0.8685    1.6989    1.3935 H   0  0  0  0  0  0  0  0  0  0  0  0
   -0.0274   -1.7921    2.0260 H   0  0  0  0  0  0  0  0  0  0  0  0
    3.8207   -3.3922    2.5633 H   0  0  0  0  0  0  0  0  0  0  0  0
    4.6420   -2.0037    0.7126 H   0  0  0  0  0  0  0  0  0  0  0  0
    3.9838    0.1545   -2.4943 H   0  0  0  0  0  0  0  0  0  0  0  0
    4.7759   -0.9381   -1.3451 H   0  0  0  0  0  0  0  0  0  0  0  0
    5.1848    2.1972    0.9083 H   0  0  0  0  0  0  0  0  0  0  0  0
  1  2  1  0
  2  3  2  0
  3  4  1  0
  4  5  2  0
  5  6  1  0
  6  7  1  0
  7  8  1  0
  7  9  1  0
  6 10  1  0
 10 11  2  0
 10 12  1  0
 12 13  2  0
 13 14  1  0
 14 15  2  0
 15 16  1  0
 16 17  2  0
  3 18  1  0
 18 19  2  0
 19 20  1  0
 20 21  1  0
 20 22  2  0
 22 23  1  0
 23 24  2  0
 24 25  1  0
 25 26  1  0
 26 27  1  0
 27 28  2  0
 27 29  1  0
 25  2  1  0
 17  4  1  0
 24 18  1  0
 17 12  1  0
  1 30  1  0
  1 31  1  0
  1 32  1  0
  5 33  1  0
  7 34  1  0
  8 35  1  0
  8 36  1  0
  8 37  1  0
  9 38  1  0
  9 39  1  0
  9 40  1  0
 13 41  1  0
 14 42  1  0
 15 43  1  0
 16 44  1  0
 19 45  1  0
 22 46  1  0
 23 47  1  0
 26 48  1  0
 26 49  1  0
 29 50  1  0
M  END
$$$$
