@<TRIPOS>MOLECULE
*****
 54 57 0 0 0
SMALL
GASTEIGER

@<TRIPOS>ATOM
      1 C          -2.6815   -1.3053   -0.2698 C.3     1  UNL1       -0.0436
      2 C          -2.6762    0.1984   -0.4123 C.3     1  UNL1        0.0543
      3 C          -3.9880    0.8496   -0.1601 C.3     1  UNL1        0.0758
      4 C          -5.1208   -0.1268    0.0694 C.3     1  UNL1       -0.0369
      5 O          -4.0000    1.7669    0.8707 O.3     1  UNL1       -0.3599
      6 C          -3.1059    2.8169    0.6605 C.3     1  UNL1        0.1402
      7 C          -3.3849    3.5718   -0.6079 C.3     1  UNL1       -0.0274
      8 C          -3.1630    3.6969    1.8985 C.3     1  UNL1       -0.0274
      9 C          -1.7518    2.2043    0.6587 C.2     1  UNL1        0.2516
     10 O          -0.6826    2.8638    0.8286 O.2     1  UNL1       -0.2721
     11 N          -1.6576    0.8015    0.4564 N.am    1  UNL1       -0.2626
     12 C          -0.6371    0.0118    1.0472 C.ar    1  UNL1        0.0547
     13 C           0.5399   -0.1688    0.3577 C.ar    1  UNL1       -0.0298
     14 C           1.5558   -0.9542    0.8954 C.ar    1  UNL1        0.0023
     15 C           2.8192   -1.1548    0.1634 C.ar    1  UNL1        0.0740
     16 C           4.0970   -1.1693    0.6386 C.ar    1  UNL1       -0.0219
     17 C           4.9788   -1.3889   -0.4294 C.ar    1  UNL1        0.0855
     18 C           6.4443   -1.4769   -0.3691 C.3     1  UNL1        0.4195
     19 F           6.8563   -1.3302    0.9580 F       1  UNL1       -0.1658
     20 F           6.9944   -0.3720   -1.0217 F       1  UNL1       -0.1658
     21 F           6.9540   -2.6602   -0.8079 F       1  UNL1       -0.1658
     22 C           4.2071   -1.5043   -1.5504 C.ar    1  UNL1        0.1171
     23 C           4.5436   -1.7244   -2.8935 C.ar    1  UNL1        0.1442
     24 N           5.8844   -1.8868   -3.3109 N.pl3   1  UNL1       -0.3414
     25 N           3.5196   -1.7801   -3.7615 N.ar    1  UNL1       -0.2173
     26 C           2.2431   -1.6327   -3.3612 C.ar    1  UNL1        0.1388
     27 N           1.9450   -1.4223   -2.0579 N.ar    1  UNL1       -0.1543
     28 N           2.9207   -1.3625   -1.1839 N.ar    1  UNL1       -0.2269
     29 C           1.3196   -1.5247    2.1234 C.ar    1  UNL1       -0.0512
     30 C           0.1351   -1.3405    2.8122 C.ar    1  UNL1       -0.0419
     31 C          -0.8721   -0.5569    2.2727 C.ar    1  UNL1        0.0732
     32 C          -2.0839   -0.3721    3.0092 C.1     1  UNL1        0.1010
     33 N          -3.0798   -0.2052    3.6122 N.1     1  UNL1       -0.1908
     34 H          -2.9870   -1.7530   -1.2143 H       1  UNL1        0.0248
     35 H          -3.2014   -1.6627    0.6307 H       1  UNL1        0.0248
     36 H          -1.6024   -1.6056   -0.1146 H       1  UNL1        0.0248
     37 H          -2.3205    0.4051   -1.4643 H       1  UNL1        0.0527
     38 H          -4.2913    1.4252   -1.0863 H       1  UNL1        0.0612
     39 H          -6.0891    0.2392   -0.3608 H       1  UNL1        0.0255
     40 H          -5.3026   -0.1998    1.1698 H       1  UNL1        0.0255
     41 H          -4.9355   -1.1349   -0.3036 H       1  UNL1        0.0255
     42 H          -2.6172    3.3743   -1.3932 H       1  UNL1        0.0262
     43 H          -3.2652    4.6638   -0.3650 H       1  UNL1        0.0262
     44 H          -4.4142    3.4555   -0.9893 H       1  UNL1        0.0262
     45 H          -4.2003    3.8842    2.2442 H       1  UNL1        0.0262
     46 H          -2.5926    3.1412    2.6961 H       1  UNL1        0.0262
     47 H          -2.5992    4.6167    1.6711 H       1  UNL1        0.0262
     48 H           0.7221    0.2837   -0.6148 H       1  UNL1        0.0643
     49 H           4.4074   -1.0350    1.6766 H       1  UNL1        0.0645
     50 H           6.3388   -2.8138   -3.4041 H       1  UNL1        0.1438
     51 H           6.4379   -1.0409   -3.5410 H       1  UNL1        0.1438
     52 H           1.4232   -1.6761   -4.0558 H       1  UNL1        0.1066
     53 H           2.0789   -2.1405    2.5782 H       1  UNL1        0.0624
     54 H          -0.0624   -1.7889    3.7856 H       1  UNL1        0.0631
@<TRIPOS>BOND
     1     1     2    1
     2     2     3    1
     3     3     4    1
     4     3     5    1
     5     5     6    1
     6     6     7    1
     7     6     8    1
     8     6     9    1
     9     9    10    2
    10     9    11   am
    11    11    12    1
    12    12    13   ar
    13    13    14   ar
    14    14    15    1
    15    15    16   ar
    16    16    17   ar
    17    17    18    1
    18    18    19    1
    19    18    20    1
    20    18    21    1
    21    17    22   ar
    22    22    23   ar
    23    23    24    1
    24    23    25   ar
    25    25    26   ar
    26    26    27   ar
    27    27    28   ar
    28    14    29   ar
    29    29    30   ar
    30    30    31   ar
    31    31    32    1
    32    32    33    3
    33    11     2    1
    34    31    12   ar
    35    28    15   ar
    36    28    22   ar
    37     1    34    1
    38     1    35    1
    39     1    36    1
    40     2    37    1
    41     3    38    1
    42     4    39    1
    43     4    40    1
    44     4    41    1
    45     7    42    1
    46     7    43    1
    47     7    44    1
    48     8    45    1
    49     8    46    1
    50     8    47    1
    51    13    48    1
    52    16    49    1
    53    24    50    1
    54    24    51    1
    55    26    52    1
    56    29    53    1
    57    30    54    1
