@<TRIPOS>MOLECULE
*****
 65 65 0 0 0
SMALL
GASTEIGER

@<TRIPOS>ATOM
      1 C          -0.3504   -2.6522   -2.4945 C.3     1  UNL1       -0.0306
      2 C           0.4700   -1.3662   -2.4269 C.3     1  UNL1        0.0897
      3 O           0.2740   -0.8597   -1.1180 O.3     1  UNL1       -0.4641
      4 C           0.8785    0.3278   -0.6792 C.2     1  UNL1        0.3246
      5 O           1.3679    0.3751   -1.8116 O.2     1  UNL1       -0.2496
      6 C           0.5367    0.6589    0.7046 C.3     1  UNL1        0.1690
      7 C          -0.9650    0.8262    0.8018 C.3     1  UNL1       -0.0108
      8 C          -1.4411    1.9329   -0.1110 C.3     1  UNL1        0.0163
      9 N          -2.8896    2.0909   -0.0181 N.am    1  UNL1       -0.2811
     10 C          -3.8212    1.0640   -0.3312 C.2     1  UNL1        0.4008
     11 O          -3.4595   -0.0557   -0.7117 O.2     1  UNL1       -0.2265
     12 O          -5.1822    1.1599   -0.2607 O.3     1  UNL1       -0.4447
     13 C          -6.0727    0.1107   -0.5824 C.3     1  UNL1        0.1068
     14 C          -5.9196   -0.3439   -2.0164 C.3     1  UNL1       -0.0253
     15 C          -5.9024   -1.0895    0.2892 C.3     1  UNL1       -0.0253
     16 C          -7.4837    0.6360   -0.4133 C.3     1  UNL1       -0.0253
     17 C           1.2544    1.8553    1.2435 C.3     1  UNL1       -0.0015
     18 C           2.7232    1.7022    1.2409 C.ar    1  UNL1       -0.0457
     19 C           3.3619    2.1257    0.0855 C.ar    1  UNL1       -0.0567
     20 C           4.7378    2.0505   -0.0770 C.ar    1  UNL1       -0.0390
     21 C           5.5229    1.5356    0.9420 C.ar    1  UNL1        0.0499
     22 N           6.9202    1.4296    0.8453 N.pl3   1  UNL1       -0.1971
     23 S           7.7899    0.8316   -0.5307 S.O2    1  UNL1        0.1639
     24 O           7.4706    1.8223   -1.8489 O.3     1  UNL1       -0.2378
     25 O           9.2574    0.8870   -0.1877 O.2     1  UNL1       -0.1267
     26 O           7.4348   -0.5748   -0.8519 O.2     1  UNL1       -0.1267
     27 C           4.8741    1.1123    2.0994 C.ar    1  UNL1       -0.0390
     28 C           3.5041    1.1895    2.2558 C.ar    1  UNL1       -0.0567
     29 C           0.8826   -0.5382    1.5534 C.2     1  UNL1        0.3246
     30 O           1.4035   -1.2655    2.4305 O.2     1  UNL1       -0.2496
     31 O           0.1983   -1.6591    1.1760 O.3     1  UNL1       -0.4641
     32 C           0.2830   -2.9357    1.7504 C.3     1  UNL1        0.0897
     33 C           1.6796   -3.4676    1.6567 C.3     1  UNL1       -0.0306
     34 H          -1.3100   -2.5557   -1.9165 H       1  UNL1        0.0262
     35 H          -0.6113   -2.9417   -3.5140 H       1  UNL1        0.0262
     36 H           0.2029   -3.4711   -1.9791 H       1  UNL1        0.0262
     37 H           0.0003   -0.6330   -3.1310 H       1  UNL1        0.0694
     38 H           1.5045   -1.6198   -2.6567 H       1  UNL1        0.0694
     39 H          -1.4253   -0.1130    0.4224 H       1  UNL1        0.0296
     40 H          -1.2065    1.0189    1.8495 H       1  UNL1        0.0296
     41 H          -1.1216    1.7710   -1.1600 H       1  UNL1        0.0463
     42 H          -1.0278    2.9332    0.1808 H       1  UNL1        0.0463
     43 H          -3.3770    2.9789    0.2891 H       1  UNL1        0.1520
     44 H          -5.0344   -0.9902   -2.1636 H       1  UNL1        0.0268
     45 H          -6.8261   -0.9377   -2.2589 H       1  UNL1        0.0268
     46 H          -5.9354    0.5222   -2.7156 H       1  UNL1        0.0268
     47 H          -6.9036   -1.5557    0.4379 H       1  UNL1        0.0268
     48 H          -5.5067   -0.8618    1.3021 H       1  UNL1        0.0268
     49 H          -5.2781   -1.8902   -0.2043 H       1  UNL1        0.0268
     50 H          -7.5063    1.7373   -0.2976 H       1  UNL1        0.0268
     51 H          -7.9830    0.2356    0.5058 H       1  UNL1        0.0268
     52 H          -8.1477    0.3814   -1.2556 H       1  UNL1        0.0268
     53 H           0.9224    2.7689    0.7110 H       1  UNL1        0.0329
     54 H           0.9132    2.0040    2.2986 H       1  UNL1        0.0329
     55 H           2.8173    2.5385   -0.7525 H       1  UNL1        0.0621
     56 H           5.2010    2.3912   -0.9938 H       1  UNL1        0.0637
     57 H           7.4154    1.7617    1.7254 H       1  UNL1        0.1756
     58 H           6.8205    1.3444   -2.4216 H       1  UNL1        0.2463
     59 H           5.4795    0.7035    2.9130 H       1  UNL1        0.0637
     60 H           2.9794    0.8695    3.1408 H       1  UNL1        0.0621
     61 H          -0.0659   -2.8253    2.8053 H       1  UNL1        0.0694
     62 H          -0.4295   -3.6103    1.2520 H       1  UNL1        0.0694
     63 H           2.3110   -2.8660    0.9904 H       1  UNL1        0.0262
     64 H           2.1024   -3.4793    2.7036 H       1  UNL1        0.0262
     65 H           1.6883   -4.5252    1.2895 H       1  UNL1        0.0262
@<TRIPOS>BOND
     1     1     2    1
     2     2     3    1
     3     3     4    1
     4     4     5    2
     5     4     6    1
     6     6     7    1
     7     7     8    1
     8     8     9    1
     9     9    10   am
    10    10    11    2
    11    10    12    1
    12    12    13    1
    13    13    14    1
    14    13    15    1
    15    13    16    1
    16     6    17    1
    17    17    18    1
    18    18    19   ar
    19    19    20   ar
    20    20    21   ar
    21    21    22    1
    22    22    23    1
    23    23    24    1
    24    23    25    2
    25    23    26    2
    26    21    27   ar
    27    27    28   ar
    28     6    29    1
    29    29    30    2
    30    29    31    1
    31    31    32    1
    32    32    33    1
    33    28    18   ar
    34     1    34    1
    35     1    35    1
    36     1    36    1
    37     2    37    1
    38     2    38    1
    39     7    39    1
    40     7    40    1
    41     8    41    1
    42     8    42    1
    43     9    43    1
    44    14    44    1
    45    14    45    1
    46    14    46    1
    47    15    47    1
    48    15    48    1
    49    15    49    1
    50    16    50    1
    51    16    51    1
    52    16    52    1
    53    17    53    1
    54    17    54    1
    55    19    55    1
    56    20    56    1
    57    22    57    1
    58    24    58    1
    59    27    59    1
    60    28    60    1
    61    32    61    1
    62    32    62    1
    63    33    63    1
    64    33    64    1
    65    33    65    1
