@<TRIPOS>MOLECULE
*****
 62 66 0 0 0
SMALL
GASTEIGER

@<TRIPOS>ATOM
      1 O          -2.3397    2.5707   -0.5868 O.2     1  UNL1       -0.2690
      2 C          -3.1220    1.5671   -0.4196 C.2     1  UNL1        0.2583
      3 C          -2.5780    0.2430   -0.2567 C.2     1  UNL1        0.0773
      4 C          -1.3512   -0.1534   -0.4010 C.2     1  UNL1       -0.0322
      5 C          -0.9221   -1.5468   -0.2039 C.ar    1  UNL1        0.0220
      6 C          -1.5799   -2.7173   -0.5032 C.ar    1  UNL1        0.0390
      7 N          -0.8043   -3.7521   -0.1495 N.ar    1  UNL1       -0.2387
      8 C          -1.1152   -5.1380   -0.2896 C.ar    1  UNL1        0.0654
      9 C          -0.3285   -6.0867    0.2995 C.ar    1  UNL1       -0.0363
     10 C          -0.6491   -7.4238    0.1508 C.ar    1  UNL1       -0.0598
     11 C          -1.7416   -7.8374   -0.5753 C.ar    1  UNL1       -0.0616
     12 C          -2.5413   -6.8778   -1.1739 C.ar    1  UNL1       -0.0598
     13 C          -2.2108   -5.5481   -1.0181 C.ar    1  UNL1       -0.0363
     14 N           0.3174   -3.2525    0.3613 N.ar    1  UNL1       -0.1658
     15 C           0.2849   -1.9047    0.3461 C.ar    1  UNL1        0.1003
     16 C           1.2896   -0.9582    0.8026 C.ar    1  UNL1        0.0029
     17 C           2.6091   -1.1336    0.4819 C.ar    1  UNL1       -0.0490
     18 C           3.6045   -0.2533    0.8995 C.ar    1  UNL1       -0.0193
     19 C           3.2953    0.8463    1.6634 C.ar    1  UNL1        0.1210
     20 O           4.1999    1.7240    2.0909 O.3     1  UNL1       -0.4874
     21 C           5.5216    1.9494    2.0118 C.3     1  UNL1        0.1146
     22 C           6.0330    2.1963    0.6479 C.ar    1  UNL1       -0.0103
     23 C           6.6378    1.2626   -0.1429 C.ar    1  UNL1       -0.0540
     24 C           7.0728    1.5791   -1.4135 C.ar    1  UNL1       -0.0430
     25 C           6.8814    2.8720   -1.8708 C.ar    1  UNL1        0.0410
     26 CL          7.4292    3.2940   -3.4871 Cl      1  UNL1       -0.0835
     27 C           6.2781    3.8403   -1.1070 C.ar    1  UNL1       -0.0430
     28 C           5.8571    3.4889    0.1542 C.ar    1  UNL1       -0.0540
     29 C           1.9254    1.0091    1.9841 C.ar    1  UNL1       -0.0193
     30 C           0.9634    0.1392    1.5684 C.ar    1  UNL1       -0.0490
     31 S          -3.9612   -0.7797    0.1944 S.3     1  UNL1       -0.0610
     32 C          -5.2193    0.4507   -0.1885 C.2     1  UNL1        0.1206
     33 S          -6.8351    0.1963   -0.2850 S.2     1  UNL1       -0.0272
     34 N          -4.5013    1.6525   -0.3806 N.am    1  UNL1       -0.2537
     35 C          -5.2378    2.9235   -0.5280 C.3     1  UNL1        0.0428
     36 C          -5.4496    3.5647    0.8219 C.3     1  UNL1        0.1087
     37 S          -6.3342    5.0861    0.6329 S.O2    1  UNL1        0.0812
     38 O          -6.5756    5.7271    1.9639 O.2     1  UNL1       -0.1473
     39 O          -7.7069    4.8334    0.0346 O.2     1  UNL1       -0.1473
     40 O          -5.5225    6.1763   -0.3251 O.3     1  UNL1       -0.2539
     41 H          -0.5893    0.5802   -0.6843 H       1  UNL1        0.0637
     42 H          -2.5583   -2.7568   -0.9490 H       1  UNL1        0.0837
     43 H           0.5401   -5.8056    0.8795 H       1  UNL1        0.0639
     44 H          -0.0401   -8.1974    0.6087 H       1  UNL1        0.0618
     45 H          -1.9807   -8.8963   -0.6827 H       1  UNL1        0.0618
     46 H          -3.4084   -7.1819   -1.7514 H       1  UNL1        0.0618
     47 H          -2.8520   -4.8029   -1.4973 H       1  UNL1        0.0639
     48 H           2.8567   -1.9992   -0.1214 H       1  UNL1        0.0625
     49 H           4.5905   -0.5123    0.5898 H       1  UNL1        0.0654
     50 H           6.1034    1.0713    2.4144 H       1  UNL1        0.0748
     51 H           5.8076    2.8541    2.6172 H       1  UNL1        0.0748
     52 H           6.7836    0.2468    0.2562 H       1  UNL1        0.0622
     53 H           7.5461    0.8210   -2.0148 H       1  UNL1        0.0632
     54 H           6.1565    4.8289   -1.5153 H       1  UNL1        0.0632
     55 H           5.3782    4.2314    0.7793 H       1  UNL1        0.0622
     56 H           1.7022    1.8771    2.5842 H       1  UNL1        0.0654
     57 H          -0.0647    0.3179    1.8461 H       1  UNL1        0.0625
     58 H          -6.2283    2.7527   -0.9918 H       1  UNL1        0.0486
     59 H          -4.6846    3.6183   -1.1796 H       1  UNL1        0.0486
     60 H          -6.0497    2.9181    1.4856 H       1  UNL1        0.0541
     61 H          -4.5138    3.7895    1.3428 H       1  UNL1        0.0541
     62 H          -6.0680    6.4161   -1.1145 H       1  UNL1        0.2445
@<TRIPOS>BOND
     1     1     2    2
     2     2     3    1
     3     3     4    2
     4     4     5    1
     5     5     6   ar
     6     6     7   ar
     7     7     8    1
     8     8     9   ar
     9     9    10   ar
    10    10    11   ar
    11    11    12   ar
    12    12    13   ar
    13     7    14   ar
    14    14    15   ar
    15    15    16    1
    16    16    17   ar
    17    17    18   ar
    18    18    19   ar
    19    19    20    1
    20    20    21    1
    21    21    22    1
    22    22    23   ar
    23    23    24   ar
    24    24    25   ar
    25    25    26    1
    26    25    27   ar
    27    27    28   ar
    28    19    29   ar
    29    29    30   ar
    30     3    31    1
    31    31    32    1
    32    32    33    2
    33    32    34    1
    34    34    35    1
    35    35    36    1
    36    36    37    1
    37    37    38    2
    38    37    39    2
    39    37    40    1
    40    34     2   am
    41    15     5   ar
    42    30    16   ar
    43    13     8   ar
    44    28    22   ar
    45     4    41    1
    46     6    42    1
    47     9    43    1
    48    10    44    1
    49    11    45    1
    50    12    46    1
    51    13    47    1
    52    17    48    1
    53    18    49    1
    54    21    50    1
    55    21    51    1
    56    23    52    1
    57    24    53    1
    58    27    54    1
    59    28    55    1
    60    29    56    1
    61    30    57    1
    62    35    58    1
    63    35    59    1
    64    36    60    1
    65    36    61    1
    66    40    62    1
