
     RDKit          3D

 61 63  0  0  0  0  0  0  0  0999 V2000
   -0.9477    3.4180    1.5929 C   0  0  0  0  0  0  0  0  0  0  0  0
   -0.3609    2.2294    1.2411 O   0  0  0  0  0  0  0  0  0  0  0  0
   -0.2342    2.0082   -0.1339 C   0  0  1  0  0  0  0  0  0  0  0  0
    1.1860    1.9588   -0.5766 C   0  0  0  0  0  0  0  0  0  0  0  0
    1.8629    0.7390   -0.6083 N   0  0  0  0  0  0  0  0  0  0  0  0
    2.8801    0.5325    0.3856 C   0  0  0  0  0  0  0  0  0  0  0  0
    4.0966    1.4304    0.2216 C   0  0  0  0  0  0  0  0  0  0  0  0
    5.1045    1.0782    1.3145 C   0  0  0  0  0  0  0  0  0  0  0  0
    5.5526   -0.2341    1.2734 O   0  0  0  0  0  0  0  0  0  0  0  0
    6.2673   -0.7812    0.2676 C   0  0  0  0  0  0  0  0  0  0  0  0
    6.8263   -0.4379   -0.9364 C   0  0  0  0  0  0  0  0  0  0  0  0
    7.5294   -1.2531   -1.7832 C   0  0  0  0  0  0  0  0  0  0  0  0
    7.7084   -2.5805   -1.3965 C   0  0  0  0  0  0  0  0  0  0  0  0
    8.4089   -3.3665   -2.2791 F   0  0  0  0  0  0  0  0  0  0  0  0
    7.1806   -3.0123   -0.2007 C   0  0  0  0  0  0  0  0  0  0  0  0
    6.4711   -2.1199    0.6163 C   0  0  0  0  0  0  0  0  0  0  0  0
    1.0520   -0.4361   -0.8128 C   0  0  0  0  0  0  0  0  0  0  0  0
   -0.1404   -0.4046    0.1619 C   0  0  0  0  0  0  0  0  0  0  0  0
   -0.9865    0.7574   -0.4306 C   0  0  1  0  0  0  0  0  0  0  0  0
   -2.2956    0.7613    0.1648 N   0  0  0  0  0  0  0  0  0  0  0  0
   -3.2487   -0.0201   -0.4663 C   0  0  0  0  0  0  0  0  0  0  0  0
   -3.0232   -0.7186   -1.4931 O   0  0  0  0  0  0  0  0  0  0  0  0
   -4.5133   -0.5912   -0.6934 C   0  0  0  0  0  0  0  0  0  0  0  0
   -5.0341    0.3211    0.3839 C   0  0  0  0  0  0  0  0  0  0  0  0
   -6.3599    0.4858    0.9269 C   0  0  0  0  0  0  0  0  0  0  0  0
   -7.1678    1.4854    2.1587 Cl  0  0  0  0  0  0  0  0  0  0  0  0
   -7.3824   -0.3235    0.3865 C   0  0  0  0  0  0  0  0  0  0  0  0
   -8.7580   -0.4592    0.6356 N   0  0  0  0  0  0  0  0  0  0  0  0
   -6.9889   -1.1965   -0.6140 C   0  0  0  0  0  0  0  0  0  0  0  0
   -5.6906   -1.1214   -0.9031 C   0  0  0  0  0  0  0  0  0  0  0  0
   -5.0225   -1.9307   -1.9132 O   0  0  0  0  0  0  0  0  0  0  0  0
   -5.7287   -2.8706   -2.6657 C   0  0  0  0  0  0  0  0  0  0  0  0
   -1.0079    3.4043    2.7233 H   0  0  0  0  0  0  0  0  0  0  0  0
   -0.2063    4.2770    1.4184 H   0  0  0  0  0  0  0  0  0  0  0  0
   -1.9317    3.6398    1.2008 H   0  0  0  0  0  0  0  0  0  0  0  0
   -0.7249    2.8626   -0.6456 H   0  0  0  0  0  0  0  0  0  0  0  0
    1.7467    2.6886    0.0732 H   0  0  0  0  0  0  0  0  0  0  0  0
    1.2446    2.4201   -1.5986 H   0  0  0  0  0  0  0  0  0  0  0  0
    3.2576   -0.5306    0.2570 H   0  0  0  0  0  0  0  0  0  0  0  0
    2.4838    0.6148    1.3951 H   0  0  0  0  0  0  0  0  0  0  0  0
    3.8167    2.5040    0.3319 H   0  0  0  0  0  0  0  0  0  0  0  0
    4.5813    1.3458   -0.7535 H   0  0  0  0  0  0  0  0  0  0  0  0
    5.9382    1.8317    1.2628 H   0  0  0  0  0  0  0  0  0  0  0  0
    4.6255    1.2496    2.3299 H   0  0  0  0  0  0  0  0  0  0  0  0
    6.6733    0.5953   -1.1599 H   0  0  0  0  0  0  0  0  0  0  0  0
    7.8777   -0.7775   -2.6846 H   0  0  0  0  0  0  0  0  0  0  0  0
    7.3916   -4.0471   -0.0369 H   0  0  0  0  0  0  0  0  0  0  0  0
    6.1530   -2.6935    1.4996 H   0  0  0  0  0  0  0  0  0  0  0  0
    0.6395   -0.3788   -1.8339 H   0  0  0  0  0  0  0  0  0  0  0  0
    1.6397   -1.3425   -0.5989 H   0  0  0  0  0  0  0  0  0  0  0  0
   -0.6716   -1.3587    0.1497 H   0  0  0  0  0  0  0  0  0  0  0  0
    0.2828   -0.1021    1.1352 H   0  0  0  0  0  0  0  0  0  0  0  0
   -1.0411    0.4787   -1.5025 H   0  0  0  0  0  0  0  0  0  0  0  0
   -2.8091    1.1730    0.9575 H   0  0  0  0  0  0  0  0  0  0  0  0
   -4.6998    1.1435    1.1235 H   0  0  0  0  0  0  0  0  0  0  0  0
   -9.4600   -0.3273   -0.1406 H   0  0  0  0  0  0  0  0  0  0  0  0
   -8.9166   -0.6950    1.6402 H   0  0  0  0  0  0  0  0  0  0  0  0
   -7.4712   -1.9336   -1.2271 H   0  0  0  0  0  0  0  0  0  0  0  0
   -6.7083   -2.5213   -3.0367 H   0  0  0  0  0  0  0  0  0  0  0  0
   -5.0731   -3.0997   -3.5458 H   0  0  0  0  0  0  0  0  0  0  0  0
   -5.8735   -3.7690   -2.0080 H   0  0  0  0  0  0  0  0  0  0  0  0
  1  2  1  0
  2  3  1  0
  3  4  1  0
  4  5  1  0
  5  6  1  0
  6  7  1  0
  7  8  1  0
  8  9  1  0
  9 10  1  0
 10 11  2  0
 11 12  1  0
 12 13  2  0
 13 14  1  0
 13 15  1  0
 15 16  2  0
  5 17  1  0
 17 18  1  0
 18 19  1  0
 19 20  1  0
 20 21  1  0
 21 22  2  0
 21 23  1  0
 23 24  2  0
 24 25  1  0
 25 26  1  0
 25 27  2  0
 27 28  1  0
 27 29  1  0
 29 30  2  0
 30 31  1  0
 31 32  1  0
 19  3  1  0
 30 23  1  0
 16 10  1  0
  1 33  1  0
  1 34  1  0
  1 35  1  0
  3 36  1  6
  4 37  1  0
  4 38  1  0
  6 39  1  0
  6 40  1  0
  7 41  1  0
  7 42  1  0
  8 43  1  0
  8 44  1  0
 11 45  1  0
 12 46  1  0
 15 47  1  0
 16 48  1  0
 17 49  1  0
 17 50  1  0
 18 51  1  0
 18 52  1  0
 19 53  1  6
 20 54  1  0
 24 55  1  0
 28 56  1  0
 28 57  1  0
 29 58  1  0
 32 59  1  0
 32 60  1  0
 32 61  1  0
M  END
$$$$
