
     RDKit          3D

 44 46  0  0  0  0  0  0  0  0999 V2000
   -1.1386    1.7196   -2.3839 C   0  0  0  0  0  0  0  0  0  0  0  0
   -0.1953    1.6046   -1.2014 C   0  0  0  0  0  0  0  0  0  0  0  0
   -0.4620    2.5909   -0.1095 C   0  0  0  0  0  0  0  0  0  0  0  0
   -0.0789    0.2059   -0.7223 C   0  0  0  0  0  0  0  0  0  0  0  0
    1.0199   -0.6078   -0.8847 C   0  0  0  0  0  0  0  0  0  0  0  0
    2.3390   -0.2675   -1.4709 C   0  0  0  0  0  0  0  0  0  0  0  0
    3.2310    0.4144   -0.5849 N   0  0  0  0  0  0  0  0  0  0  0  0
    3.4010    1.7183   -0.3910 C   0  0  0  0  0  0  0  0  0  0  0  0
    4.3789    1.9357    0.5783 C   0  0  0  0  0  0  0  0  0  0  0  0
    4.7848    0.7085    0.9538 N   0  0  0  0  0  0  0  0  0  0  0  0
    4.1068   -0.2059    0.2664 C   0  0  0  0  0  0  0  0  0  0  0  0
    0.6477   -1.8447   -0.3397 C   0  0  0  0  0  0  0  0  0  0  0  0
    1.3841   -3.0109   -0.2485 C   0  0  0  0  0  0  0  0  0  0  0  0
    0.7996   -4.1194    0.3380 C   0  0  0  0  0  0  0  0  0  0  0  0
   -0.4898   -4.0686    0.8232 C   0  0  0  0  0  0  0  0  0  0  0  0
   -1.2008   -2.8934    0.7191 C   0  0  0  0  0  0  0  0  0  0  0  0
   -0.6365   -1.7745    0.1371 C   0  0  0  0  0  0  0  0  0  0  0  0
   -1.0613   -0.5122   -0.1065 N   0  0  0  0  0  0  0  0  0  0  0  0
   -2.3914   -0.0949    0.2471 C   0  0  0  0  0  0  0  0  0  0  0  0
   -2.5506    0.4001    1.6505 C   0  0  0  0  0  0  0  0  0  0  0  0
   -3.9519    0.8146    1.9321 C   0  0  0  0  0  0  0  0  0  0  0  0
   -4.8093    0.7160    1.0220 O   0  0  0  0  0  0  0  0  0  0  0  0
   -4.3555    1.3069    3.1593 O   0  0  0  0  0  0  0  0  0  0  0  0
   -0.7099    2.2862   -3.2355 H   0  0  0  0  0  0  0  0  0  0  0  0
   -1.9905    2.3656   -2.0178 H   0  0  0  0  0  0  0  0  0  0  0  0
   -1.4854    0.7565   -2.7643 H   0  0  0  0  0  0  0  0  0  0  0  0
    0.8095    1.8905   -1.6489 H   0  0  0  0  0  0  0  0  0  0  0  0
   -1.5444    2.7776    0.0182 H   0  0  0  0  0  0  0  0  0  0  0  0
   -0.0297    2.2632    0.8587 H   0  0  0  0  0  0  0  0  0  0  0  0
    0.0547    3.5738   -0.3316 H   0  0  0  0  0  0  0  0  0  0  0  0
    2.1883    0.3486   -2.4084 H   0  0  0  0  0  0  0  0  0  0  0  0
    2.8458   -1.1975   -1.8685 H   0  0  0  0  0  0  0  0  0  0  0  0
    2.9022    2.5420   -0.8731 H   0  0  0  0  0  0  0  0  0  0  0  0
    4.6962    2.9100    0.9113 H   0  0  0  0  0  0  0  0  0  0  0  0
    4.1995   -1.2791    0.3361 H   0  0  0  0  0  0  0  0  0  0  0  0
    2.3943   -3.0293   -0.6355 H   0  0  0  0  0  0  0  0  0  0  0  0
    1.3962   -5.0440    0.4053 H   0  0  0  0  0  0  0  0  0  0  0  0
   -0.9711   -4.9176    1.2855 H   0  0  0  0  0  0  0  0  0  0  0  0
   -2.2252   -2.8244    1.0953 H   0  0  0  0  0  0  0  0  0  0  0  0
   -3.0787   -0.9658    0.0553 H   0  0  0  0  0  0  0  0  0  0  0  0
   -2.7417    0.7576   -0.4104 H   0  0  0  0  0  0  0  0  0  0  0  0
   -1.9246    1.2644    1.9194 H   0  0  0  0  0  0  0  0  0  0  0  0
   -2.2434   -0.3923    2.4036 H   0  0  0  0  0  0  0  0  0  0  0  0
   -5.3129    1.1780    3.5216 H   0  0  0  0  0  0  0  0  0  0  0  0
  1  2  1  0
  2  3  1  0
  2  4  1  0
  4  5  2  0
  5  6  1  0
  6  7  1  0
  7  8  1  0
  8  9  2  0
  9 10  1  0
 10 11  2  0
  5 12  1  0
 12 13  2  0
 13 14  1  0
 14 15  2  0
 15 16  1  0
 16 17  2  0
 17 18  1  0
 18 19  1  0
 19 20  1  0
 20 21  1  0
 21 22  2  0
 21 23  1  0
 18  4  1  0
 11  7  1  0
 17 12  1  0
  1 24  1  0
  1 25  1  0
  1 26  1  0
  2 27  1  0
  3 28  1  0
  3 29  1  0
  3 30  1  0
  6 31  1  0
  6 32  1  0
  8 33  1  0
  9 34  1  0
 11 35  1  0
 13 36  1  0
 14 37  1  0
 15 38  1  0
 16 39  1  0
 19 40  1  0
 19 41  1  0
 20 42  1  0
 20 43  1  0
 23 44  1  0
M  END
$$$$
