@<TRIPOS>MOLECULE
*****
 44 46 0 0 0
SMALL
GASTEIGER

@<TRIPOS>ATOM
      1 C          -1.1386    1.7196   -2.3839 C.3     1  UNL1       -0.0573
      2 C          -0.1953    1.6046   -1.2014 C.3     1  UNL1       -0.0059
      3 C          -0.4620    2.5909   -0.1095 C.3     1  UNL1       -0.0573
      4 C          -0.0789    0.2059   -0.7223 C.ar    1  UNL1        0.0272
      5 C           1.0199   -0.6078   -0.8847 C.ar    1  UNL1        0.0009
      6 C           2.3390   -0.2675   -1.4709 C.3     1  UNL1        0.0514
      7 N           3.2310    0.4144   -0.5849 N.ar    1  UNL1       -0.3324
      8 C           3.4010    1.7183   -0.3910 C.ar    1  UNL1        0.0244
      9 C           4.3789    1.9357    0.5783 C.ar    1  UNL1        0.0454
     10 N           4.7848    0.7085    0.9538 N.ar    1  UNL1       -0.2441
     11 C           4.1068   -0.2059    0.2664 C.ar    1  UNL1        0.0962
     12 C           0.6477   -1.8447   -0.3397 C.ar    1  UNL1        0.0050
     13 C           1.3841   -3.0109   -0.2485 C.ar    1  UNL1       -0.0523
     14 C           0.7996   -4.1194    0.3380 C.ar    1  UNL1       -0.0611
     15 C          -0.4898   -4.0686    0.8232 C.ar    1  UNL1       -0.0598
     16 C          -1.2008   -2.8934    0.7191 C.ar    1  UNL1       -0.0376
     17 C          -0.6365   -1.7745    0.1371 C.ar    1  UNL1        0.0496
     18 N          -1.0613   -0.5122   -0.1065 N.ar    1  UNL1       -0.3427
     19 C          -2.3914   -0.0949    0.2471 C.3     1  UNL1        0.0336
     20 C          -2.5506    0.4001    1.6505 C.3     1  UNL1        0.0627
     21 C          -3.9519    0.8146    1.9321 C.2     1  UNL1        0.3064
     22 O          -4.8093    0.7160    1.0220 O.2     1  UNL1       -0.2510
     23 O          -4.3555    1.3069    3.1593 O.3     1  UNL1       -0.4806
     24 H          -0.7099    2.2862   -3.2355 H       1  UNL1        0.0236
     25 H          -1.9905    2.3656   -2.0178 H       1  UNL1        0.0236
     26 H          -1.4854    0.7565   -2.7643 H       1  UNL1        0.0236
     27 H           0.8095    1.8905   -1.6489 H       1  UNL1        0.0358
     28 H          -1.5444    2.7776    0.0182 H       1  UNL1        0.0236
     29 H          -0.0297    2.2632    0.8587 H       1  UNL1        0.0236
     30 H           0.0547    3.5738   -0.3316 H       1  UNL1        0.0236
     31 H           2.1883    0.3486   -2.4084 H       1  UNL1        0.0542
     32 H           2.8458   -1.1975   -1.8685 H       1  UNL1        0.0542
     33 H           2.9022    2.5420   -0.8731 H       1  UNL1        0.0825
     34 H           4.6962    2.9100    0.9113 H       1  UNL1        0.0845
     35 H           4.1995   -1.2791    0.3361 H       1  UNL1        0.1029
     36 H           2.3943   -3.0293   -0.6355 H       1  UNL1        0.0624
     37 H           1.3962   -5.0440    0.4053 H       1  UNL1        0.0618
     38 H          -0.9711   -4.9176    1.2855 H       1  UNL1        0.0618
     39 H          -2.2252   -2.8244    1.0953 H       1  UNL1        0.0638
     40 H          -3.0787   -0.9658    0.0553 H       1  UNL1        0.0497
     41 H          -2.7417    0.7576   -0.4104 H       1  UNL1        0.0497
     42 H          -1.9246    1.2644    1.9194 H       1  UNL1        0.0395
     43 H          -2.2434   -0.3923    2.4036 H       1  UNL1        0.0395
     44 H          -5.3129    1.1780    3.5216 H       1  UNL1        0.2951
@<TRIPOS>BOND
     1     1     2    1
     2     2     3    1
     3     2     4    1
     4     4     5   ar
     5     5     6    1
     6     6     7    1
     7     7     8   ar
     8     8     9   ar
     9     9    10   ar
    10    10    11   ar
    11     5    12   ar
    12    12    13   ar
    13    13    14   ar
    14    14    15   ar
    15    15    16   ar
    16    16    17   ar
    17    17    18   ar
    18    18    19    1
    19    19    20    1
    20    20    21    1
    21    21    22    2
    22    21    23    1
    23    18     4   ar
    24    11     7   ar
    25    17    12   ar
    26     1    24    1
    27     1    25    1
    28     1    26    1
    29     2    27    1
    30     3    28    1
    31     3    29    1
    32     3    30    1
    33     6    31    1
    34     6    32    1
    35     8    33    1
    36     9    34    1
    37    11    35    1
    38    13    36    1
    39    14    37    1
    40    15    38    1
    41    16    39    1
    42    19    40    1
    43    19    41    1
    44    20    42    1
    45    20    43    1
    46    23    44    1
