@<TRIPOS>MOLECULE
*****
 39 41 0 0 0
SMALL
GASTEIGER

@<TRIPOS>ATOM
      1 C           1.1542   -0.8108   -0.4780 C.3     1  UNL1        0.0609
      2 C           1.9288   -0.6279    0.7872 C.3     1  UNL1       -0.0058
      3 C           3.3755   -0.6575    0.4375 C.ar    1  UNL1       -0.0411
      4 C           3.8088    0.0753   -0.6511 C.ar    1  UNL1       -0.0303
      5 C           2.7207    0.8227   -1.3500 C.3     1  UNL1        0.0221
      6 N           1.7030   -0.1722   -1.6381 N.3     1  UNL1       -0.3034
      7 C           5.1393    0.0634   -0.9930 C.ar    1  UNL1       -0.0571
      8 C           5.9936   -0.6960   -0.2153 C.ar    1  UNL1       -0.0614
      9 C           5.5882   -1.4371    0.8769 C.ar    1  UNL1       -0.0615
     10 C           4.2485   -1.4201    1.2145 C.ar    1  UNL1       -0.0582
     11 C          -0.2525   -0.3374   -0.2451 C.ar    1  UNL1        0.0967
     12 N          -0.8645    0.7795   -0.2560 N.ar    1  UNL1       -0.2356
     13 CA         -2.1519    0.7540    0.0123 C.ar    1  UNL1        0.1583
     14 C          -2.7127    2.0885   -0.0476 C.2     1  UNL1        0.3561
     15 O          -3.7734    2.9330    0.0539 O.3     1  UNL1       -0.4761
     16 OXT        -2.1928    3.2067   -0.2941 O.2     1  UNL1       -0.2434
     17 C          -2.8835   -0.3509    0.2991 C.ar    1  UNL1        0.0264
     18 S          -1.5770   -1.6293    0.1865 S.2     1  UNL1       -0.0744
     19 C          -4.2316   -0.6598    0.6256 C.3     1  UNL1       -0.0130
     20 C          -5.0725   -0.7837   -0.6355 C.3     1  UNL1       -0.0581
     21 C          -4.8507    0.3923    1.5103 C.3     1  UNL1       -0.0581
     22 H           1.1370   -1.9212   -0.6882 H       1  UNL1        0.0534
     23 H           1.7367    0.4042    1.1958 H       1  UNL1        0.0332
     24 H           1.6560   -1.4071    1.5101 H       1  UNL1        0.0332
     25 H           2.3119    1.6519   -0.7566 H       1  UNL1        0.0474
     26 H           3.0721    1.1709   -2.3592 H       1  UNL1        0.0474
     27 H           2.1527   -0.8518   -2.2831 H       1  UNL1        0.1229
     28 H           5.4164    0.6466   -1.8411 H       1  UNL1        0.0621
     29 H           7.0383   -0.6890   -0.5054 H       1  UNL1        0.0618
     30 H           6.2749   -2.0247    1.4718 H       1  UNL1        0.0618
     31 H           3.8374   -1.9699    2.0543 H       1  UNL1        0.0620
     32 H          -4.5964    2.9967   -0.5289 H       1  UNL1        0.2955
     33 H          -4.2779   -1.6515    1.1404 H       1  UNL1        0.0349
     34 H          -5.8409    0.0122   -0.6660 H       1  UNL1        0.0236
     35 H          -5.5358   -1.7901   -0.7310 H       1  UNL1        0.0236
     36 H          -4.4287   -0.6191   -1.5344 H       1  UNL1        0.0236
     37 H          -5.4014   -0.0788    2.3702 H       1  UNL1        0.0236
     38 H          -5.5517    1.0745    0.9564 H       1  UNL1        0.0236
     39 H          -4.0981    1.0471    1.9947 H       1  UNL1        0.0236
@<TRIPOS>BOND
     1     1     2    1
     2     2     3    1
     3     3     4   ar
     4     4     5    1
     5     5     6    1
     6     4     7   ar
     7     7     8   ar
     8     8     9   ar
     9     9    10   ar
    10     1    11    1
    11    11    12   ar
    12    12    13   ar
    13    13    14    1
    14    14    15    1
    15    14    16    2
    16    13    17   ar
    17    17    18   ar
    18    17    19    1
    19    19    20    1
    20    19    21    1
    21     6     1    1
    22    18    11   ar
    23    10     3   ar
    24     1    22    1
    25     2    23    1
    26     2    24    1
    27     5    25    1
    28     5    26    1
    29     6    27    1
    30     7    28    1
    31     8    29    1
    32     9    30    1
    33    10    31    1
    34    15    32    1
    35    19    33    1
    36    20    34    1
    37    20    35    1
    38    20    36    1
    39    21    37    1
    40    21    38    1
    41    21    39    1
