@<TRIPOS>MOLECULE
*****
 67 71 0 0 0
SMALL
GASTEIGER

@<TRIPOS>ATOM
      1 C           8.8803   -2.7004   -2.8869 C.3     1  UNL1        0.0805
      2 O           7.9574   -2.3348   -1.8786 O.3     1  UNL1       -0.4774
      3 C           8.0409   -1.1057   -1.2362 C.ar    1  UNL1        0.2552
      4 N           8.9091   -0.1002   -1.3939 N.ar    1  UNL1       -0.1317
      5 N           8.6666    0.9014   -0.6045 N.ar    1  UNL1       -0.2692
      6 C           9.4216    2.1294   -0.5333 C.3     1  UNL1        0.0304
      7 C           7.5815    0.5600    0.1263 C.ar    1  UNL1        0.0503
      8 C           7.1575   -0.7017   -0.2457 C.ar    1  UNL1        0.1152
      9 N           6.0614   -1.4253    0.3020 N.pl3   1  UNL1       -0.2782
     10 C           5.2375   -0.8452    1.3086 C.ar    1  UNL1        0.2201
     11 N           5.7377   -0.6248    2.5457 N.ar    1  UNL1       -0.2226
     12 C           5.0246   -0.1161    3.5433 C.ar    1  UNL1        0.0332
     13 C           3.6867    0.2020    3.2837 C.ar    1  UNL1       -0.0173
     14 C           3.1424   -0.0098    2.0321 C.ar    1  UNL1        0.0780
     15 C           1.7461    0.3411    1.7948 C.ar    1  UNL1        0.0256
     16 C           0.8153    0.7891    2.6999 C.ar    1  UNL1        0.0120
     17 N          -0.3707    1.0250    2.1223 N.ar    1  UNL1       -0.3586
     18 C          -0.2222    0.7265    0.7981 C.ar    1  UNL1        0.0686
     19 C          -1.1531    0.8146   -0.2161 C.ar    1  UNL1        0.0576
     20 N          -2.4761    1.2641    0.0514 N.am    1  UNL1       -0.2825
     21 C          -3.5174    0.3877    0.3667 C.2     1  UNL1        0.2342
     22 O          -3.2565   -0.8652    0.4094 O.2     1  UNL1       -0.2738
     23 C          -4.9135    0.8119    0.6539 C.3     1  UNL1        0.0848
     24 C          -5.3762    1.9675   -0.1918 C.3     1  UNL1       -0.0409
     25 N          -5.7777   -0.2966    0.7090 N.3     1  UNL1       -0.2893
     26 C          -5.9409   -1.0961   -0.4384 C.3     1  UNL1        0.0124
     27 C          -7.1690   -0.8093   -1.2699 C.3     1  UNL1        0.0114
     28 N          -8.2926   -0.6564   -0.4474 N.3     1  UNL1       -0.3029
     29 C          -9.5382   -1.1631   -0.8674 C.3     1  UNL1       -0.0127
     30 C          -8.2055    0.0820    0.7421 C.3     1  UNL1        0.0114
     31 C          -6.9388   -0.1406    1.5322 C.3     1  UNL1        0.0124
     32 C          -0.7325    0.4557   -1.4871 C.ar    1  UNL1       -0.0384
     33 C           0.5608    0.0289   -1.7298 C.ar    1  UNL1       -0.0593
     34 C           1.4771   -0.0487   -0.6881 C.ar    1  UNL1       -0.0518
     35 C           1.0762    0.3038    0.5856 C.ar    1  UNL1        0.0107
     36 N           3.9452   -0.5272    1.0911 N.ar    1  UNL1       -0.2142
     37 H           8.3202   -2.8439   -3.8565 H       1  UNL1        0.0660
     38 H           9.6706   -1.9394   -3.0123 H       1  UNL1        0.0660
     39 H           9.3031   -3.7177   -2.6642 H       1  UNL1        0.0660
     40 H           8.7478    2.9860   -0.7615 H       1  UNL1        0.0473
     41 H          10.2957    2.0822   -1.2203 H       1  UNL1        0.0473
     42 H           9.7660    2.3016    0.5279 H       1  UNL1        0.0473
     43 H           7.1081    1.1618    0.8826 H       1  UNL1        0.0846
     44 H           5.8265   -2.3901   -0.0077 H       1  UNL1        0.1552
     45 H           5.4857    0.0349    4.5064 H       1  UNL1        0.0831
     46 H           3.0688    0.6154    4.0539 H       1  UNL1        0.0654
     47 H           1.0124    0.9334    3.7496 H       1  UNL1        0.0814
     48 H          -1.2579    1.3735    2.5808 H       1  UNL1        0.1654
     49 H          -2.7185    2.2908    0.0243 H       1  UNL1        0.1549
     50 H          -4.8587    1.2328    1.7093 H       1  UNL1        0.0556
     51 H          -5.5949    1.7384   -1.2285 H       1  UNL1        0.0249
     52 H          -6.3257    2.4118    0.2270 H       1  UNL1        0.0249
     53 H          -4.6640    2.8155   -0.1773 H       1  UNL1        0.0249
     54 H          -5.0177   -1.0839   -1.0492 H       1  UNL1        0.0439
     55 H          -6.0567   -2.1675   -0.0940 H       1  UNL1        0.0439
     56 H          -7.3227   -1.7279   -1.9018 H       1  UNL1        0.0439
     57 H          -7.0309    0.0019   -2.0137 H       1  UNL1        0.0439
     58 H          -9.4998   -2.2379   -1.1857 H       1  UNL1        0.0391
     59 H         -10.3253   -1.0292   -0.1222 H       1  UNL1        0.0391
     60 H          -9.8643   -0.5749   -1.7795 H       1  UNL1        0.0391
     61 H          -8.3698    1.1899    0.5758 H       1  UNL1        0.0439
     62 H          -9.0606   -0.2041    1.4165 H       1  UNL1        0.0439
     63 H          -6.7685    0.6980    2.2295 H       1  UNL1        0.0439
     64 H          -7.0611   -1.0598    2.1405 H       1  UNL1        0.0439
     65 H          -1.4283    0.5035   -2.3261 H       1  UNL1        0.0637
     66 H           0.8746   -0.2466   -2.7245 H       1  UNL1        0.0618
     67 H           2.5006   -0.3720   -0.8087 H       1  UNL1        0.0624
@<TRIPOS>BOND
     1     1     2    1
     2     2     3    1
     3     3     4   ar
     4     4     5   ar
     5     5     6    1
     6     5     7   ar
     7     7     8   ar
     8     8     9    1
     9     9    10    1
    10    10    11   ar
    11    11    12   ar
    12    12    13   ar
    13    13    14   ar
    14    14    15    1
    15    15    16   ar
    16    16    17   ar
    17    17    18   ar
    18    18    19   ar
    19    19    20    1
    20    20    21   am
    21    21    22    2
    22    21    23    1
    23    23    24    1
    24    23    25    1
    25    25    26    1
    26    26    27    1
    27    27    28    1
    28    28    29    1
    29    28    30    1
    30    30    31    1
    31    19    32   ar
    32    32    33   ar
    33    33    34   ar
    34    34    35   ar
    35    14    36   ar
    36     8     3   ar
    37    36    10   ar
    38    35    15   ar
    39    35    18   ar
    40    31    25    1
    41     1    37    1
    42     1    38    1
    43     1    39    1
    44     6    40    1
    45     6    41    1
    46     6    42    1
    47     7    43    1
    48     9    44    1
    49    12    45    1
    50    13    46    1
    51    16    47    1
    52    17    48    1
    53    20    49    1
    54    23    50    1
    55    24    51    1
    56    24    52    1
    57    24    53    1
    58    26    54    1
    59    26    55    1
    60    27    56    1
    61    27    57    1
    62    29    58    1
    63    29    59    1
    64    29    60    1
    65    30    61    1
    66    30    62    1
    67    31    63    1
    68    31    64    1
    69    32    65    1
    70    33    66    1
    71    34    67    1
