
     RDKit          3D

 56 60  0  0  0  0  0  0  0  0999 V2000
   -1.0699   -3.7410   -1.5169 C   0  0  0  0  0  0  0  0  0  0  0  0
   -0.0907   -3.2878   -0.6055 O   0  0  0  0  0  0  0  0  0  0  0  0
   -0.3394   -2.1232    0.1142 C   0  0  0  0  0  0  0  0  0  0  0  0
   -1.5137   -1.4226   -0.0540 C   0  0  0  0  0  0  0  0  0  0  0  0
   -1.8115   -0.2680    0.6295 C   0  0  0  0  0  0  0  0  0  0  0  0
   -2.9759    0.4368    0.4699 C   0  0  0  0  0  0  0  0  0  0  0  0
   -3.9616   -0.0124   -0.4431 N   0  0  0  0  0  0  0  0  0  0  0  0
   -5.1386    0.7728   -0.5499 C   0  0  0  0  0  0  0  0  0  0  0  0
   -5.4733    1.3258   -1.7586 C   0  0  0  0  0  0  0  0  0  0  0  0
   -6.6354    2.1041   -1.8745 C   0  0  0  0  0  0  0  0  0  0  0  0
   -7.0355    2.7954   -3.4281 Cl  0  0  0  0  0  0  0  0  0  0  0  0
   -7.4344    2.3061   -0.7639 C   0  0  0  0  0  0  0  0  0  0  0  0
   -8.8862    3.2903   -0.9504 Cl  0  0  0  0  0  0  0  0  0  0  0  0
   -7.0978    1.7529    0.4414 C   0  0  0  0  0  0  0  0  0  0  0  0
   -5.9520    0.9917    0.5336 C   0  0  0  0  0  0  0  0  0  0  0  0
   -5.5677    0.4160    1.7094 F   0  0  0  0  0  0  0  0  0  0  0  0
   -3.1918    1.5770    1.1909 N   0  0  0  0  0  0  0  0  0  0  0  0
   -2.2784    2.0256    2.0607 C   0  0  0  0  0  0  0  0  0  0  0  0
   -1.1466    1.3367    2.2131 N   0  0  0  0  0  0  0  0  0  0  0  0
   -0.8644    0.2111    1.5419 C   0  0  0  0  0  0  0  0  0  0  0  0
    0.2981   -0.4935    1.7007 C   0  0  0  0  0  0  0  0  0  0  0  0
    0.6279   -1.6517    1.0322 C   0  0  0  0  0  0  0  0  0  0  0  0
    1.7374   -2.3763    1.1400 O   0  0  0  0  0  0  0  0  0  0  0  0
    2.9150   -2.4203    1.7521 C   0  0  0  0  0  0  0  0  0  0  0  0
    3.9831   -1.4244    1.5220 C   0  0  2  0  0  0  0  0  0  0  0  0
    3.6853    0.0062    1.8315 C   0  0  0  0  0  0  0  0  0  0  0  0
    4.9055    0.5936    1.3791 O   0  0  0  0  0  0  0  0  0  0  0  0
    5.0769    0.0728    0.1003 C   0  0  2  0  0  0  0  0  0  0  0  0
    4.3135    0.9209   -0.8642 C   0  0  1  0  0  0  0  0  0  0  0  0
    5.1904    1.4822   -1.7612 O   0  0  0  0  0  0  0  0  0  0  0  0
    5.1144    2.8528   -1.7484 C   0  0  0  0  0  0  0  0  0  0  0  0
    3.3642   -0.0604   -1.5055 C   0  0  0  0  0  0  0  0  0  0  0  0
    3.2477   -1.1464   -0.6781 O   0  0  0  0  0  0  0  0  0  0  0  0
    4.3944   -1.2843    0.0579 C   0  0  2  0  0  0  0  0  0  0  0  0
   -1.2644   -2.9026   -2.2283 H   0  0  0  0  0  0  0  0  0  0  0  0
   -2.0406   -3.8729   -0.9654 H   0  0  0  0  0  0  0  0  0  0  0  0
   -0.8018   -4.6770   -2.0070 H   0  0  0  0  0  0  0  0  0  0  0  0
   -2.2362   -1.8109   -0.7665 H   0  0  0  0  0  0  0  0  0  0  0  0
   -3.8606   -0.8792   -1.0289 H   0  0  0  0  0  0  0  0  0  0  0  0
   -4.8396    1.1628   -2.6298 H   0  0  0  0  0  0  0  0  0  0  0  0
   -7.7068    1.9017    1.3064 H   0  0  0  0  0  0  0  0  0  0  0  0
   -2.4948    2.9460    2.6181 H   0  0  0  0  0  0  0  0  0  0  0  0
    0.9927   -0.1005    2.4297 H   0  0  0  0  0  0  0  0  0  0  0  0
    2.7278   -2.3670    2.8961 H   0  0  0  0  0  0  0  0  0  0  0  0
    3.3945   -3.4752    1.7165 H   0  0  0  0  0  0  0  0  0  0  0  0
    4.8986   -1.7011    2.1222 H   0  0  0  0  0  0  0  0  0  0  0  0
    3.5252    0.2343    2.8814 H   0  0  0  0  0  0  0  0  0  0  0  0
    2.9283    0.4465    1.1405 H   0  0  0  0  0  0  0  0  0  0  0  0
    6.1590   -0.0058   -0.1408 H   0  0  0  0  0  0  0  0  0  0  0  0
    3.7545    1.7456   -0.3463 H   0  0  0  0  0  0  0  0  0  0  0  0
    5.3596    3.2308   -0.7419 H   0  0  0  0  0  0  0  0  0  0  0  0
    5.8443    3.2985   -2.4601 H   0  0  0  0  0  0  0  0  0  0  0  0
    4.1071    3.2307   -2.0904 H   0  0  0  0  0  0  0  0  0  0  0  0
    3.7270   -0.3076   -2.5250 H   0  0  0  0  0  0  0  0  0  0  0  0
    2.3729    0.4380   -1.5659 H   0  0  0  0  0  0  0  0  0  0  0  0
    5.0642   -2.0933   -0.2572 H   0  0  0  0  0  0  0  0  0  0  0  0
  1  2  1  0
  2  3  1  0
  3  4  2  0
  4  5  1  0
  5  6  2  0
  6  7  1  0
  7  8  1  0
  8  9  2  0
  9 10  1  0
 10 11  1  0
 10 12  2  0
 12 13  1  0
 12 14  1  0
 14 15  2  0
 15 16  1  0
  6 17  1  0
 17 18  2  0
 18 19  1  0
 19 20  2  0
 20 21  1  0
 21 22  2  0
 22 23  1  0
 23 24  1  0
 24 25  1  0
 25 26  1  0
 26 27  1  0
 27 28  1  0
 28 29  1  0
 29 30  1  0
 30 31  1  0
 29 32  1  0
 32 33  1  0
 33 34  1  0
 22  3  1  0
 34 25  1  0
 20  5  1  0
 34 28  1  0
 15  8  1  0
  1 35  1  0
  1 36  1  0
  1 37  1  0
  4 38  1  0
  7 39  1  0
  9 40  1  0
 14 41  1  0
 18 42  1  0
 21 43  1  0
 24 44  1  0
 24 45  1  0
 25 46  1  1
 26 47  1  0
 26 48  1  0
 28 49  1  6
 29 50  1  1
 31 51  1  0
 31 52  1  0
 31 53  1  0
 32 54  1  0
 32 55  1  0
 34 56  1  6
M  END
$$$$
