@<TRIPOS>MOLECULE
*****
 56 60 0 0 0
SMALL
GASTEIGER

@<TRIPOS>ATOM
      1 C          -1.0699   -3.7410   -1.5169 C.3     1  UNL1        0.0790
      2 O          -0.0907   -3.2878   -0.6055 O.3     1  UNL1       -0.4914
      3 C          -0.3394   -2.1232    0.1142 C.ar    1  UNL1        0.1623
      4 C          -1.5137   -1.4226   -0.0540 C.ar    1  UNL1       -0.0038
      5 C          -1.8115   -0.2680    0.6295 C.ar    1  UNL1        0.0441
      6 C          -2.9759    0.4368    0.4699 C.ar    1  UNL1        0.1340
      7 N          -3.9616   -0.0124   -0.4431 N.pl3   1  UNL1       -0.2966
      8 C          -5.1386    0.7728   -0.5499 C.ar    1  UNL1        0.0695
      9 C          -5.4733    1.3258   -1.7586 C.ar    1  UNL1       -0.0179
     10 C          -6.6354    2.1041   -1.8745 C.ar    1  UNL1        0.0612
     11 CL         -7.0355    2.7954   -3.4281 Cl      1  UNL1       -0.0820
     12 C          -7.4344    2.3061   -0.7639 C.ar    1  UNL1        0.0621
     13 CL         -8.8862    3.2903   -0.9504 Cl      1  UNL1       -0.0819
     14 C          -7.0978    1.7529    0.4414 C.ar    1  UNL1       -0.0048
     15 C          -5.9520    0.9917    0.5336 C.ar    1  UNL1        0.1459
     16 F          -5.5677    0.4160    1.7094 F       1  UNL1       -0.2035
     17 N          -3.1918    1.5770    1.1909 N.ar    1  UNL1       -0.2200
     18 C          -2.2784    2.0256    2.0607 C.ar    1  UNL1        0.1187
     19 N          -1.1466    1.3367    2.2131 N.ar    1  UNL1       -0.2352
     20 C          -0.8644    0.2111    1.5419 C.ar    1  UNL1        0.0797
     21 C           0.2981   -0.4935    1.7007 C.ar    1  UNL1        0.0098
     22 C           0.6279   -1.6517    1.0322 C.ar    1  UNL1        0.1640
     23 O           1.7374   -2.3763    1.1400 O.3     1  UNL1       -0.4878
     24 C           2.9150   -2.4203    1.7521 C.3     1  UNL1        0.0971
     25 C           3.9831   -1.4244    1.5220 C.3     1  UNL1        0.0453
     26 C           3.6853    0.0062    1.8315 C.3     1  UNL1        0.0566
     27 O           4.9055    0.5936    1.3791 O.3     1  UNL1       -0.3709
     28 C           5.0769    0.0728    0.1003 C.3     1  UNL1        0.1133
     29 C           4.3135    0.9209   -0.8642 C.3     1  UNL1        0.1100
     30 O           5.1904    1.4822   -1.7612 O.3     1  UNL1       -0.3748
     31 C           5.1144    2.8528   -1.7484 C.3     1  UNL1        0.0370
     32 C           3.3642   -0.0604   -1.5055 C.3     1  UNL1        0.0768
     33 O           3.2477   -1.1464   -0.6781 O.3     1  UNL1       -0.3708
     34 C           4.3944   -1.2843    0.0579 C.3     1  UNL1        0.0954
     35 H          -1.2644   -2.9026   -2.2283 H       1  UNL1        0.0660
     36 H          -2.0406   -3.8729   -0.9654 H       1  UNL1        0.0660
     37 H          -0.8018   -4.6770   -2.0070 H       1  UNL1        0.0660
     38 H          -2.2362   -1.8109   -0.7665 H       1  UNL1        0.0663
     39 H          -3.8606   -0.8792   -1.0289 H       1  UNL1        0.1537
     40 H          -4.8396    1.1628   -2.6298 H       1  UNL1        0.0652
     41 H          -7.7068    1.9017    1.3064 H       1  UNL1        0.0662
     42 H          -2.4948    2.9460    2.6181 H       1  UNL1        0.1048
     43 H           0.9927   -0.1005    2.4297 H       1  UNL1        0.0677
     44 H           2.7278   -2.3670    2.8961 H       1  UNL1        0.0701
     45 H           3.3945   -3.4752    1.7165 H       1  UNL1        0.0701
     46 H           4.8986   -1.7011    2.1222 H       1  UNL1        0.0382
     47 H           3.5252    0.2343    2.8814 H       1  UNL1        0.0565
     48 H           2.9283    0.4465    1.1405 H       1  UNL1        0.0565
     49 H           6.1590   -0.0058   -0.1408 H       1  UNL1        0.0649
     50 H           3.7545    1.7456   -0.3463 H       1  UNL1        0.0646
     51 H           5.3596    3.2308   -0.7419 H       1  UNL1        0.0524
     52 H           5.8443    3.2985   -2.4601 H       1  UNL1        0.0524
     53 H           4.1071    3.2307   -2.0904 H       1  UNL1        0.0524
     54 H           3.7270   -0.3076   -2.5250 H       1  UNL1        0.0587
     55 H           2.3729    0.4380   -1.5659 H       1  UNL1        0.0587
     56 H           5.0642   -2.0933   -0.2572 H       1  UNL1        0.0627
@<TRIPOS>BOND
     1     1     2    1
     2     2     3    1
     3     3     4   ar
     4     4     5   ar
     5     5     6   ar
     6     6     7    1
     7     7     8    1
     8     8     9   ar
     9     9    10   ar
    10    10    11    1
    11    10    12   ar
    12    12    13    1
    13    12    14   ar
    14    14    15   ar
    15    15    16    1
    16     6    17   ar
    17    17    18   ar
    18    18    19   ar
    19    19    20   ar
    20    20    21   ar
    21    21    22   ar
    22    22    23    1
    23    23    24    1
    24    24    25    1
    25    25    26    1
    26    26    27    1
    27    27    28    1
    28    28    29    1
    29    29    30    1
    30    30    31    1
    31    29    32    1
    32    32    33    1
    33    33    34    1
    34    22     3   ar
    35    34    25    1
    36    20     5   ar
    37    34    28    1
    38    15     8   ar
    39     1    35    1
    40     1    36    1
    41     1    37    1
    42     4    38    1
    43     7    39    1
    44     9    40    1
    45    14    41    1
    46    18    42    1
    47    21    43    1
    48    24    44    1
    49    24    45    1
    50    25    46    1
    51    26    47    1
    52    26    48    1
    53    28    49    1
    54    29    50    1
    55    31    51    1
    56    31    52    1
    57    31    53    1
    58    32    54    1
    59    32    55    1
    60    34    56    1
