
     RDKit          3D

 19 19  0  0  0  0  0  0  0  0999 V2000
   -4.4322    0.1497   -0.4218 C   0  0  0  0  0  0  0  0  0  0  0  0
   -2.9960   -0.2149   -0.6828 C   0  0  0  0  0  0  0  0  0  0  0  0
   -2.7628   -0.7977   -1.7760 O   0  0  0  0  0  0  0  0  0  0  0  0
   -2.0590    0.1348    0.3262 N   0  0  0  0  0  0  0  0  0  0  0  0
   -0.6360   -0.1284    0.2646 C   0  0  0  0  0  0  0  0  0  0  0  0
   -0.0013   -1.0367    0.6143 N   0  0  0  0  0  0  0  0  0  0  0  0
    1.2791   -1.2004    0.5239 N   0  0  0  0  0  0  0  0  0  0  0  0
    1.9927   -0.3372    0.0183 C   0  0  0  0  0  0  0  0  0  0  0  0
    0.7813    0.9396   -0.4312 S   0  0  0  0  0  0  0  0  0  0  0  0
    3.7550   -0.2954   -0.2334 S   0  0  0  0  0  0  0  0  0  0  0  0
    4.5526    0.4103    1.1294 N   0  0  0  0  0  0  0  0  0  0  0  0
    4.0613    0.5930   -1.4092 O   0  0  0  0  0  0  0  0  0  0  0  0
    4.1500   -1.7088   -0.4689 O   0  0  0  0  0  0  0  0  0  0  0  0
   -5.1006   -0.5609   -0.9488 H   0  0  0  0  0  0  0  0  0  0  0  0
   -4.6119    1.1481   -0.9153 H   0  0  0  0  0  0  0  0  0  0  0  0
   -4.6572    0.2315    0.6587 H   0  0  0  0  0  0  0  0  0  0  0  0
   -2.3569    0.6148    1.1919 H   0  0  0  0  0  0  0  0  0  0  0  0
    3.8066    0.9067    1.6979 H   0  0  0  0  0  0  0  0  0  0  0  0
    5.2353    1.1518    0.8622 H   0  0  0  0  0  0  0  0  0  0  0  0
  1  2  1  0
  2  3  2  0
  2  4  1  0
  4  5  1  0
  5  6  2  0
  6  7  1  0
  7  8  2  0
  8  9  1  0
  8 10  1  0
 10 11  1  0
 10 12  2  0
 10 13  2  0
  9  5  1  0
  1 14  1  0
  1 15  1  0
  1 16  1  0
  4 17  1  0
 11 18  1  0
 11 19  1  0
M  END
$$$$
