@<TRIPOS>MOLECULE
*****
 19 19 0 0 0
SMALL
GASTEIGER

@<TRIPOS>ATOM
      1 C          -4.4322    0.1497   -0.4218 C.3     1  UNL1        0.0125
      2 C          -2.9960   -0.2149   -0.6828 C.2     1  UNL1        0.2156
      3 O          -2.7628   -0.7977   -1.7760 O.2     1  UNL1       -0.2757
      4 N          -2.0590    0.1348    0.3262 N.am    1  UNL1       -0.2635
      5 C          -0.6360   -0.1284    0.2646 C.ar    1  UNL1        0.1893
      6 N          -0.0013   -1.0367    0.6143 N.ar    1  UNL1       -0.1239
      7 N           1.2791   -1.2004    0.5239 N.ar    1  UNL1       -0.1190
      8 C           1.9927   -0.3372    0.0183 C.ar    1  UNL1        0.2556
      9 S           0.7813    0.9396   -0.4312 S.2     1  UNL1       -0.0105
     10 S           3.7550   -0.2954   -0.2334 S.O2    1  UNL1        0.0815
     11 N           4.5526    0.4103    1.1294 N.3     1  UNL1       -0.2015
     12 O           4.0613    0.5930   -1.4092 O.2     1  UNL1       -0.1512
     13 O           4.1500   -1.7088   -0.4689 O.2     1  UNL1       -0.1512
     14 H          -5.1006   -0.5609   -0.9488 H       1  UNL1        0.0323
     15 H          -4.6119    1.1481   -0.9153 H       1  UNL1        0.0323
     16 H          -4.6572    0.2315    0.6587 H       1  UNL1        0.0323
     17 H          -2.3569    0.6148    1.1919 H       1  UNL1        0.1568
     18 H           3.8066    0.9067    1.6979 H       1  UNL1        0.1443
     19 H           5.2353    1.1518    0.8622 H       1  UNL1        0.1443
@<TRIPOS>BOND
     1     1     2    1
     2     2     3    2
     3     2     4   am
     4     4     5    1
     5     5     6   ar
     6     6     7   ar
     7     7     8   ar
     8     8     9   ar
     9     8    10    1
    10    10    11    1
    11    10    12    2
    12    10    13    2
    13     9     5   ar
    14     1    14    1
    15     1    15    1
    16     1    16    1
    17     4    17    1
    18    11    18    1
    19    11    19    1
