@<TRIPOS>MOLECULE
*****
 103 106 0 0 0
SMALL
GASTEIGER

@<TRIPOS>ATOM
      1 C          -1.9236   -2.2267   -4.3920 C.2     1  UNL1       -0.1026
      2 C          -1.6200   -2.6635   -3.1906 C.2     1  UNL1       -0.0889
      3 C          -0.6823   -1.9335   -2.3185 C.3     1  UNL1       -0.0080
      4 C          -1.2582   -1.6772   -0.9883 C.3     1  UNL1        0.1028
      5 N          -2.4282   -0.8658   -0.8468 N.am    1  UNL1       -0.3024
      6 C          -3.7655   -1.3036   -0.8774 C.2     1  UNL1        0.2326
      7 O          -3.9651   -2.5364   -1.1292 O.2     1  UNL1       -0.2740
      8 C          -4.9653   -0.4122   -0.6264 C.3     1  UNL1        0.1097
      9 C          -5.4853    0.1302   -1.9055 C.3     1  UNL1       -0.0021
     10 C          -4.5410    0.9578   -2.6821 C.ar    1  UNL1       -0.0454
     11 C          -3.8565    0.4694   -3.7832 C.ar    1  UNL1       -0.0585
     12 C          -2.9852    1.3335   -4.4018 C.ar    1  UNL1       -0.0615
     13 C          -2.7706    2.6431   -3.9766 C.ar    1  UNL1       -0.0617
     14 C          -3.4681    3.1013   -2.8763 C.ar    1  UNL1       -0.0615
     15 C          -4.3367    2.2603   -2.2486 C.ar    1  UNL1       -0.0585
     16 N          -4.5559    0.6280    0.3022 N.3     1  UNL1       -0.1675
     17 S          -5.2583    0.4957    1.8523 S.O2    1  UNL1        0.0978
     18 O          -4.6176    1.5545    2.7477 O.2     1  UNL1       -0.1411
     19 O          -4.8177   -0.8247    2.5089 O.2     1  UNL1       -0.1411
     20 N          -6.9461    0.6409    1.9713 N.3     1  UNL1       -0.1622
     21 C          -7.2844    1.8195    2.8302 C.3     1  UNL1        0.0450
     22 C          -8.7484    1.6140    3.1846 C.3     1  UNL1        0.0621
     23 O          -9.5118    1.5881    2.0331 O.3     1  UNL1       -0.3771
     24 C          -8.8224    1.8165    0.8673 C.3     1  UNL1        0.0621
     25 C          -7.5828    0.9674    0.6956 C.3     1  UNL1        0.0450
     26 C          -0.2256   -1.3146    0.0361 C.2     1  UNL1        0.2340
     27 O          -0.5185   -0.4035    0.8466 O.2     1  UNL1       -0.2738
     28 N           1.0412   -1.9089    0.1618 N.am    1  UNL1       -0.3080
     29 C           2.0120   -1.5245    1.1591 C.3     1  UNL1        0.0580
     30 C           2.5434   -2.6909    1.9164 C.3     1  UNL1       -0.0200
     31 C           3.5441   -2.2464    2.9696 C.3     1  UNL1       -0.0484
     32 C           3.5816   -3.2250    4.1280 C.3     1  UNL1       -0.0527
     33 C           3.3638   -4.6401    3.6474 C.3     1  UNL1       -0.0530
     34 C           2.0387   -4.8219    2.9603 C.3     1  UNL1       -0.0527
     35 C           1.4134   -3.4812    2.5627 C.3     1  UNL1       -0.0484
     36 C           3.1499   -0.7235    0.5610 C.3     1  UNL1        0.1455
     37 O           2.5803    0.4439    0.0280 O.3     1  UNL1       -0.3835
     38 C           3.9167   -1.4174   -0.5083 C.3     1  UNL1        0.3494
     39 F           3.0236   -1.7160   -1.5336 F       1  UNL1       -0.1924
     40 F           4.6145   -2.5068   -0.1010 F       1  UNL1       -0.1924
     41 C           4.9151   -0.4385   -1.0743 C.2     1  UNL1        0.2853
     42 O           6.1555   -0.6340   -0.8468 O.2     1  UNL1       -0.2692
     43 N           4.5223    0.6658   -1.8372 N.am    1  UNL1       -0.3091
     44 C           5.3836    1.6296   -2.3847 C.3     1  UNL1        0.0245
     45 C           6.1515    2.5634   -1.5621 C.3     1  UNL1        0.0146
     46 N           6.9942    1.9849   -0.5687 N.3     1  UNL1       -0.2965
     47 C           8.1910    2.8602   -0.4203 C.3     1  UNL1        0.0225
     48 C           7.7605    4.2514   -0.0604 C.3     1  UNL1        0.0604
     49 O           7.2662    4.1756    1.2582 O.3     1  UNL1       -0.3772
     50 C           6.1180    3.4306    1.2734 C.3     1  UNL1        0.0604
     51 C           6.3208    2.0619    0.7415 C.3     1  UNL1        0.0225
     52 H          -2.6328   -2.8186   -4.9983 H       1  UNL1        0.0532
     53 H          -1.5431   -1.3346   -4.8467 H       1  UNL1        0.0532
     54 H          -2.0506   -3.5855   -2.7975 H       1  UNL1        0.0567
     55 H           0.1972   -2.6143   -2.1849 H       1  UNL1        0.0330
     56 H          -0.2591   -1.0293   -2.8183 H       1  UNL1        0.0330
     57 H          -1.6189   -2.7233   -0.6462 H       1  UNL1        0.0598
     58 H          -2.2503    0.1986   -0.7355 H       1  UNL1        0.1495
     59 H          -5.7135   -1.0394   -0.1007 H       1  UNL1        0.0576
     60 H          -6.4063    0.7112   -1.8145 H       1  UNL1        0.0334
     61 H          -5.7972   -0.7550   -2.5505 H       1  UNL1        0.0334
     62 H          -4.0592   -0.5449   -4.0934 H       1  UNL1        0.0620
     63 H          -2.4261    0.9836   -5.2732 H       1  UNL1        0.0618
     64 H          -2.0918    3.3206   -4.4580 H       1  UNL1        0.0618
     65 H          -3.3198    4.1151   -2.5200 H       1  UNL1        0.0618
     66 H          -4.8717    2.6646   -1.3734 H       1  UNL1        0.0620
     67 H          -3.5370    0.5701    0.4409 H       1  UNL1        0.1500
     68 H          -6.7080    1.8062    3.7518 H       1  UNL1        0.0467
     69 H          -7.1133    2.6912    2.1928 H       1  UNL1        0.0467
     70 H          -8.8463    0.5863    3.6357 H       1  UNL1        0.0573
     71 H          -9.1230    2.3671    3.9022 H       1  UNL1        0.0573
     72 H          -9.5009    1.5794    0.0160 H       1  UNL1        0.0573
     73 H          -8.5946    2.9189    0.7469 H       1  UNL1        0.0573
     74 H          -7.7794    0.1368    0.0466 H       1  UNL1        0.0467
     75 H          -6.8335    1.6556    0.2065 H       1  UNL1        0.0467
     76 H           1.2815   -2.6769   -0.4990 H       1  UNL1        0.1491
     77 H           1.5340   -0.8195    1.8881 H       1  UNL1        0.0528
     78 H           3.0151   -3.3976    1.2034 H       1  UNL1        0.0319
     79 H           3.3035   -1.2630    3.3964 H       1  UNL1        0.0269
     80 H           4.5574   -2.1984    2.5364 H       1  UNL1        0.0269
     81 H           4.5955   -3.1819    4.5658 H       1  UNL1        0.0265
     82 H           2.7979   -2.9198    4.8437 H       1  UNL1        0.0265
     83 H           4.1856   -4.8687    2.9238 H       1  UNL1        0.0265
     84 H           3.4841   -5.3247    4.5130 H       1  UNL1        0.0265
     85 H           2.1420   -5.4201    2.0277 H       1  UNL1        0.0265
     86 H           1.3521   -5.3420    3.6476 H       1  UNL1        0.0265
     87 H           0.9517   -2.9785    3.4155 H       1  UNL1        0.0269
     88 H           0.6880   -3.7060    1.7589 H       1  UNL1        0.0269
     89 H           3.8517   -0.3978    1.3545 H       1  UNL1        0.0677
     90 H           2.2617    0.9566    0.8248 H       1  UNL1        0.2101
     91 H           3.4781    0.7556   -2.0118 H       1  UNL1        0.1489
     92 H           6.1348    1.0436   -3.0491 H       1  UNL1        0.0474
     93 H           4.8343    2.2449   -3.1719 H       1  UNL1        0.0474
     94 H           6.7786    3.1981   -2.2707 H       1  UNL1        0.0442
     95 H           5.4252    3.3067   -1.1032 H       1  UNL1        0.0442
     96 H           8.7856    2.4165    0.3785 H       1  UNL1        0.0449
     97 H           8.7356    2.8298   -1.3819 H       1  UNL1        0.0449
     98 H           6.9815    4.5972   -0.7691 H       1  UNL1        0.0572
     99 H           8.6536    4.9013   -0.0452 H       1  UNL1        0.0572
    100 H           5.2986    3.9989    0.7423 H       1  UNL1        0.0572
    101 H           5.8027    3.3161    2.3486 H       1  UNL1        0.0572
    102 H           5.3361    1.6009    0.6367 H       1  UNL1        0.0449
    103 H           6.9722    1.5173    1.4653 H       1  UNL1        0.0449
@<TRIPOS>BOND
     1     1     2    2
     2     2     3    1
     3     3     4    1
     4     4     5    1
     5     5     6   am
     6     6     7    2
     7     6     8    1
     8     8     9    1
     9     9    10    1
    10    10    11   ar
    11    11    12   ar
    12    12    13   ar
    13    13    14   ar
    14    14    15   ar
    15     8    16    1
    16    16    17    1
    17    17    18    2
    18    17    19    2
    19    17    20    1
    20    20    21    1
    21    21    22    1
    22    22    23    1
    23    23    24    1
    24    24    25    1
    25     4    26    1
    26    26    27    2
    27    26    28   am
    28    28    29    1
    29    29    30    1
    30    30    31    1
    31    31    32    1
    32    32    33    1
    33    33    34    1
    34    34    35    1
    35    29    36    1
    36    36    37    1
    37    36    38    1
    38    38    39    1
    39    38    40    1
    40    38    41    1
    41    41    42    2
    42    41    43   am
    43    43    44    1
    44    44    45    1
    45    45    46    1
    46    46    47    1
    47    47    48    1
    48    48    49    1
    49    49    50    1
    50    50    51    1
    51    15    10   ar
    52    25    20    1
    53    35    30    1
    54    51    46    1
    55     1    52    1
    56     1    53    1
    57     2    54    1
    58     3    55    1
    59     3    56    1
    60     4    57    1
    61     5    58    1
    62     8    59    1
    63     9    60    1
    64     9    61    1
    65    11    62    1
    66    12    63    1
    67    13    64    1
    68    14    65    1
    69    15    66    1
    70    16    67    1
    71    21    68    1
    72    21    69    1
    73    22    70    1
    74    22    71    1
    75    24    72    1
    76    24    73    1
    77    25    74    1
    78    25    75    1
    79    28    76    1
    80    29    77    1
    81    30    78    1
    82    31    79    1
    83    31    80    1
    84    32    81    1
    85    32    82    1
    86    33    83    1
    87    33    84    1
    88    34    85    1
    89    34    86    1
    90    35    87    1
    91    35    88    1
    92    36    89    1
    93    37    90    1
    94    43    91    1
    95    44    92    1
    96    44    93    1
    97    45    94    1
    98    45    95    1
    99    47    96    1
   100    47    97    1
   101    48    98    1
   102    48    99    1
   103    50   100    1
   104    50   101    1
   105    51   102    1
   106    51   103    1
