
     RDKit          3D

103106  0  0  0  0  0  0  0  0999 V2000
   -1.9236   -2.2267   -4.3920 C   0  0  0  0  0  0  0  0  0  0  0  0
   -1.6200   -2.6635   -3.1906 C   0  0  0  0  0  0  0  0  0  0  0  0
   -0.6823   -1.9335   -2.3185 C   0  0  0  0  0  0  0  0  0  0  0  0
   -1.2582   -1.6772   -0.9883 C   0  0  2  0  0  0  0  0  0  0  0  0
   -2.4282   -0.8658   -0.8468 N   0  0  0  0  0  0  0  0  0  0  0  0
   -3.7655   -1.3036   -0.8774 C   0  0  0  0  0  0  0  0  0  0  0  0
   -3.9651   -2.5364   -1.1292 O   0  0  0  0  0  0  0  0  0  0  0  0
   -4.9653   -0.4122   -0.6264 C   0  0  2  0  0  0  0  0  0  0  0  0
   -5.4853    0.1302   -1.9055 C   0  0  0  0  0  0  0  0  0  0  0  0
   -4.5410    0.9578   -2.6821 C   0  0  0  0  0  0  0  0  0  0  0  0
   -3.8565    0.4694   -3.7832 C   0  0  0  0  0  0  0  0  0  0  0  0
   -2.9852    1.3335   -4.4018 C   0  0  0  0  0  0  0  0  0  0  0  0
   -2.7706    2.6431   -3.9766 C   0  0  0  0  0  0  0  0  0  0  0  0
   -3.4681    3.1013   -2.8763 C   0  0  0  0  0  0  0  0  0  0  0  0
   -4.3367    2.2603   -2.2486 C   0  0  0  0  0  0  0  0  0  0  0  0
   -4.5559    0.6280    0.3022 N   0  0  0  0  0  0  0  0  0  0  0  0
   -5.2583    0.4957    1.8523 S   0  0  0  0  0  6  0  0  0  0  0  0
   -4.6176    1.5545    2.7477 O   0  0  0  0  0  0  0  0  0  0  0  0
   -4.8177   -0.8247    2.5089 O   0  0  0  0  0  0  0  0  0  0  0  0
   -6.9461    0.6409    1.9713 N   0  0  0  0  0  0  0  0  0  0  0  0
   -7.2844    1.8195    2.8302 C   0  0  0  0  0  0  0  0  0  0  0  0
   -8.7484    1.6140    3.1846 C   0  0  0  0  0  0  0  0  0  0  0  0
   -9.5118    1.5881    2.0331 O   0  0  0  0  0  0  0  0  0  0  0  0
   -8.8224    1.8165    0.8673 C   0  0  0  0  0  0  0  0  0  0  0  0
   -7.5828    0.9674    0.6956 C   0  0  0  0  0  0  0  0  0  0  0  0
   -0.2256   -1.3146    0.0361 C   0  0  0  0  0  0  0  0  0  0  0  0
   -0.5185   -0.4035    0.8466 O   0  0  0  0  0  0  0  0  0  0  0  0
    1.0412   -1.9089    0.1618 N   0  0  0  0  0  0  0  0  0  0  0  0
    2.0120   -1.5245    1.1591 C   0  0  1  0  0  0  0  0  0  0  0  0
    2.5434   -2.6909    1.9164 C   0  0  0  0  0  0  0  0  0  0  0  0
    3.5441   -2.2464    2.9696 C   0  0  0  0  0  0  0  0  0  0  0  0
    3.5816   -3.2250    4.1280 C   0  0  0  0  0  0  0  0  0  0  0  0
    3.3638   -4.6401    3.6474 C   0  0  0  0  0  0  0  0  0  0  0  0
    2.0387   -4.8219    2.9603 C   0  0  0  0  0  0  0  0  0  0  0  0
    1.4134   -3.4812    2.5627 C   0  0  0  0  0  0  0  0  0  0  0  0
    3.1499   -0.7235    0.5610 C   0  0  0  0  0  0  0  0  0  0  0  0
    2.5803    0.4439    0.0280 O   0  0  0  0  0  0  0  0  0  0  0  0
    3.9167   -1.4174   -0.5083 C   0  0  0  0  0  0  0  0  0  0  0  0
    3.0236   -1.7160   -1.5336 F   0  0  0  0  0  0  0  0  0  0  0  0
    4.6145   -2.5068   -0.1010 F   0  0  0  0  0  0  0  0  0  0  0  0
    4.9151   -0.4385   -1.0743 C   0  0  0  0  0  0  0  0  0  0  0  0
    6.1555   -0.6340   -0.8468 O   0  0  0  0  0  0  0  0  0  0  0  0
    4.5223    0.6658   -1.8372 N   0  0  0  0  0  0  0  0  0  0  0  0
    5.3836    1.6296   -2.3847 C   0  0  0  0  0  0  0  0  0  0  0  0
    6.1515    2.5634   -1.5621 C   0  0  0  0  0  0  0  0  0  0  0  0
    6.9942    1.9849   -0.5687 N   0  0  0  0  0  0  0  0  0  0  0  0
    8.1910    2.8602   -0.4203 C   0  0  0  0  0  0  0  0  0  0  0  0
    7.7605    4.2514   -0.0604 C   0  0  0  0  0  0  0  0  0  0  0  0
    7.2662    4.1756    1.2582 O   0  0  0  0  0  0  0  0  0  0  0  0
    6.1180    3.4306    1.2734 C   0  0  0  0  0  0  0  0  0  0  0  0
    6.3208    2.0619    0.7415 C   0  0  0  0  0  0  0  0  0  0  0  0
   -2.6328   -2.8186   -4.9983 H   0  0  0  0  0  0  0  0  0  0  0  0
   -1.5431   -1.3346   -4.8467 H   0  0  0  0  0  0  0  0  0  0  0  0
   -2.0506   -3.5855   -2.7975 H   0  0  0  0  0  0  0  0  0  0  0  0
    0.1972   -2.6143   -2.1849 H   0  0  0  0  0  0  0  0  0  0  0  0
   -0.2591   -1.0293   -2.8183 H   0  0  0  0  0  0  0  0  0  0  0  0
   -1.6189   -2.7233   -0.6462 H   0  0  0  0  0  0  0  0  0  0  0  0
   -2.2503    0.1986   -0.7355 H   0  0  0  0  0  0  0  0  0  0  0  0
   -5.7135   -1.0394   -0.1007 H   0  0  0  0  0  0  0  0  0  0  0  0
   -6.4063    0.7112   -1.8145 H   0  0  0  0  0  0  0  0  0  0  0  0
   -5.7972   -0.7550   -2.5505 H   0  0  0  0  0  0  0  0  0  0  0  0
   -4.0592   -0.5449   -4.0934 H   0  0  0  0  0  0  0  0  0  0  0  0
   -2.4261    0.9836   -5.2732 H   0  0  0  0  0  0  0  0  0  0  0  0
   -2.0918    3.3206   -4.4580 H   0  0  0  0  0  0  0  0  0  0  0  0
   -3.3198    4.1151   -2.5200 H   0  0  0  0  0  0  0  0  0  0  0  0
   -4.8717    2.6646   -1.3734 H   0  0  0  0  0  0  0  0  0  0  0  0
   -3.5370    0.5701    0.4409 H   0  0  0  0  0  0  0  0  0  0  0  0
   -6.7080    1.8062    3.7518 H   0  0  0  0  0  0  0  0  0  0  0  0
   -7.1133    2.6912    2.1928 H   0  0  0  0  0  0  0  0  0  0  0  0
   -8.8463    0.5863    3.6357 H   0  0  0  0  0  0  0  0  0  0  0  0
   -9.1230    2.3671    3.9022 H   0  0  0  0  0  0  0  0  0  0  0  0
   -9.5009    1.5794    0.0160 H   0  0  0  0  0  0  0  0  0  0  0  0
   -8.5946    2.9189    0.7469 H   0  0  0  0  0  0  0  0  0  0  0  0
   -7.7794    0.1368    0.0466 H   0  0  0  0  0  0  0  0  0  0  0  0
   -6.8335    1.6556    0.2065 H   0  0  0  0  0  0  0  0  0  0  0  0
    1.2815   -2.6769   -0.4990 H   0  0  0  0  0  0  0  0  0  0  0  0
    1.5340   -0.8195    1.8881 H   0  0  0  0  0  0  0  0  0  0  0  0
    3.0151   -3.3976    1.2034 H   0  0  0  0  0  0  0  0  0  0  0  0
    3.3035   -1.2630    3.3964 H   0  0  0  0  0  0  0  0  0  0  0  0
    4.5574   -2.1984    2.5364 H   0  0  0  0  0  0  0  0  0  0  0  0
    4.5955   -3.1819    4.5658 H   0  0  0  0  0  0  0  0  0  0  0  0
    2.7979   -2.9198    4.8437 H   0  0  0  0  0  0  0  0  0  0  0  0
    4.1856   -4.8687    2.9238 H   0  0  0  0  0  0  0  0  0  0  0  0
    3.4841   -5.3247    4.5130 H   0  0  0  0  0  0  0  0  0  0  0  0
    2.1420   -5.4201    2.0277 H   0  0  0  0  0  0  0  0  0  0  0  0
    1.3521   -5.3420    3.6476 H   0  0  0  0  0  0  0  0  0  0  0  0
    0.9517   -2.9785    3.4155 H   0  0  0  0  0  0  0  0  0  0  0  0
    0.6880   -3.7060    1.7589 H   0  0  0  0  0  0  0  0  0  0  0  0
    3.8517   -0.3978    1.3545 H   0  0  0  0  0  0  0  0  0  0  0  0
    2.2617    0.9566    0.8248 H   0  0  0  0  0  0  0  0  0  0  0  0
    3.4781    0.7556   -2.0118 H   0  0  0  0  0  0  0  0  0  0  0  0
    6.1348    1.0436   -3.0491 H   0  0  0  0  0  0  0  0  0  0  0  0
    4.8343    2.2449   -3.1719 H   0  0  0  0  0  0  0  0  0  0  0  0
    6.7786    3.1981   -2.2707 H   0  0  0  0  0  0  0  0  0  0  0  0
    5.4252    3.3067   -1.1032 H   0  0  0  0  0  0  0  0  0  0  0  0
    8.7856    2.4165    0.3785 H   0  0  0  0  0  0  0  0  0  0  0  0
    8.7356    2.8298   -1.3819 H   0  0  0  0  0  0  0  0  0  0  0  0
    6.9815    4.5972   -0.7691 H   0  0  0  0  0  0  0  0  0  0  0  0
    8.6536    4.9013   -0.0452 H   0  0  0  0  0  0  0  0  0  0  0  0
    5.2986    3.9989    0.7423 H   0  0  0  0  0  0  0  0  0  0  0  0
    5.8027    3.3161    2.3486 H   0  0  0  0  0  0  0  0  0  0  0  0
    5.3361    1.6009    0.6367 H   0  0  0  0  0  0  0  0  0  0  0  0
    6.9722    1.5173    1.4653 H   0  0  0  0  0  0  0  0  0  0  0  0
  1  2  2  3
  2  3  1  0
  3  4  1  0
  4  5  1  0
  5  6  1  0
  6  7  2  0
  6  8  1  0
  8  9  1  0
  9 10  1  0
 10 11  2  0
 11 12  1  0
 12 13  2  0
 13 14  1  0
 14 15  2  0
  8 16  1  0
 16 17  1  0
 17 18  2  0
 17 19  2  0
 17 20  1  0
 20 21  1  0
 21 22  1  0
 22 23  1  0
 23 24  1  0
 24 25  1  0
  4 26  1  0
 26 27  2  0
 26 28  1  0
 28 29  1  0
 29 30  1  0
 30 31  1  0
 31 32  1  0
 32 33  1  0
 33 34  1  0
 34 35  1  0
 29 36  1  0
 36 37  1  0
 36 38  1  0
 38 39  1  0
 38 40  1  0
 38 41  1  0
 41 42  2  0
 41 43  1  0
 43 44  1  0
 44 45  1  0
 45 46  1  0
 46 47  1  0
 47 48  1  0
 48 49  1  0
 49 50  1  0
 50 51  1  0
 15 10  1  0
 25 20  1  0
 35 30  1  0
 51 46  1  0
  1 52  1  0
  1 53  1  0
  2 54  1  0
  3 55  1  0
  3 56  1  0
  4 57  1  1
  5 58  1  0
  8 59  1  1
  9 60  1  0
  9 61  1  0
 11 62  1  0
 12 63  1  0
 13 64  1  0
 14 65  1  0
 15 66  1  0
 16 67  1  0
 21 68  1  0
 21 69  1  0
 22 70  1  0
 22 71  1  0
 24 72  1  0
 24 73  1  0
 25 74  1  0
 25 75  1  0
 28 76  1  0
 29 77  1  1
 30 78  1  0
 31 79  1  0
 31 80  1  0
 32 81  1  0
 32 82  1  0
 33 83  1  0
 33 84  1  0
 34 85  1  0
 34 86  1  0
 35 87  1  0
 35 88  1  0
 36 89  1  0
 37 90  1  0
 43 91  1  0
 44 92  1  0
 44 93  1  0
 45 94  1  0
 45 95  1  0
 47 96  1  0
 47 97  1  0
 48 98  1  0
 48 99  1  0
 50100  1  0
 50101  1  0
 51102  1  0
 51103  1  0
M  END
$$$$
