@<TRIPOS>MOLECULE
*****
 62 66 0 0 0
SMALL
GASTEIGER

@<TRIPOS>ATOM
      1 C          -4.0202   -3.7592    1.4584 C.3     1  UNL1       -0.0653
      2 C          -3.4403   -3.6381    0.0657 C.3     1  UNL1       -0.0556
      3 C          -1.9347   -3.5338    0.1551 C.3     1  UNL1       -0.0478
      4 C          -1.5202   -2.3262    0.9540 C.3     1  UNL1       -0.0084
      5 C          -1.9936   -1.0416    0.3876 C.ar    1  UNL1        0.0677
      6 N          -3.0385   -0.3033    0.8672 N.ar    1  UNL1       -0.1703
      7 N          -3.2203    0.7671    0.1623 N.ar    1  UNL1       -0.2252
      8 C          -4.2065    1.8062    0.3331 C.ar    1  UNL1        0.0664
      9 C          -3.8316    3.0414    0.8399 C.ar    1  UNL1       -0.0349
     10 C          -4.7371    4.0549    1.0192 C.ar    1  UNL1       -0.0414
     11 C          -6.0431    3.7964    0.6737 C.ar    1  UNL1        0.0411
     12 CL         -7.2554    5.0378    0.8737 Cl      1  UNL1       -0.0835
     13 C          -6.4599    2.5781    0.1645 C.ar    1  UNL1       -0.0414
     14 C          -5.5021    1.5764   -0.0004 C.ar    1  UNL1       -0.0349
     15 C          -2.3016    0.8058   -0.8353 C.ar    1  UNL1        0.1547
     16 C          -2.1768    1.8535   -1.8514 C.2     1  UNL1        0.3557
     17 O          -1.3512    1.8996   -2.7622 O.2     1  UNL1       -0.2434
     18 O          -3.0809    2.9394   -1.8135 O.3     1  UNL1       -0.4761
     19 C          -1.5258   -0.3316   -0.6972 C.ar    1  UNL1        0.0123
     20 C          -0.3864   -0.7045   -1.5670 C.3     1  UNL1        0.0016
     21 C           0.9443   -0.4401   -0.9699 C.ar    1  UNL1       -0.0429
     22 C           1.5348    0.8064   -0.9640 C.ar    1  UNL1       -0.0577
     23 C           2.7855    1.0119   -0.4115 C.ar    1  UNL1       -0.0537
     24 C           3.4739   -0.0377    0.1508 C.ar    1  UNL1       -0.0172
     25 C           4.7610    0.2125    0.7525 C.ar    1  UNL1       -0.0072
     26 C           4.7642    0.2562    2.1655 C.ar    1  UNL1       -0.0534
     27 C           5.9483    0.5442    2.8024 C.ar    1  UNL1       -0.0611
     28 C           7.1147    0.7882    2.1214 C.ar    1  UNL1       -0.0611
     29 C           7.0745    0.7365    0.7519 C.ar    1  UNL1       -0.0504
     30 C           5.8903    0.4448    0.0297 C.ar    1  UNL1        0.0282
     31 C           5.9487    0.3499   -1.3990 C.ar    1  UNL1        0.1799
     32 N           7.0428    0.8125   -2.0977 N.ar    1  UNL1       -0.1084
     33 N           6.8641    0.6542   -3.3872 N.ar    1  UNL1       -0.0229
     34 N           5.6837    0.1019   -3.5268 N.ar    1  UNL1       -0.0464
     35 N           5.1161   -0.0894   -2.3287 N.ar    1  UNL1       -0.2388
     36 C           2.9252   -1.3024    0.1690 C.ar    1  UNL1       -0.0537
     37 C           1.6651   -1.4665   -0.3975 C.ar    1  UNL1       -0.0577
     38 H          -3.2024   -4.1441    2.1212 H       1  UNL1        0.0230
     39 H          -4.4158   -2.7724    1.8242 H       1  UNL1        0.0230
     40 H          -4.8122   -4.5522    1.5008 H       1  UNL1        0.0230
     41 H          -3.8918   -2.8103   -0.4881 H       1  UNL1        0.0263
     42 H          -3.7231   -4.5719   -0.4731 H       1  UNL1        0.0263
     43 H          -1.5514   -4.4195    0.7408 H       1  UNL1        0.0269
     44 H          -1.5078   -3.6204   -0.8350 H       1  UNL1        0.0269
     45 H          -2.0768   -2.4548    1.9435 H       1  UNL1        0.0329
     46 H          -0.4742   -2.3482    1.2544 H       1  UNL1        0.0329
     47 H          -2.7899    3.2135    1.1035 H       1  UNL1        0.0639
     48 H          -4.4373    5.0263    1.4186 H       1  UNL1        0.0633
     49 H          -7.4953    2.3753   -0.1084 H       1  UNL1        0.0633
     50 H          -5.7818    0.6157   -0.3921 H       1  UNL1        0.0639
     51 H          -3.3643    3.4289   -2.6503 H       1  UNL1        0.2955
     52 H          -0.4639   -1.7801   -1.8949 H       1  UNL1        0.0363
     53 H          -0.4327   -0.1446   -2.5195 H       1  UNL1        0.0363
     54 H           0.9886    1.6213   -1.4062 H       1  UNL1        0.0621
     55 H           3.2048    1.9983   -0.4308 H       1  UNL1        0.0624
     56 H           3.8476    0.0638    2.6959 H       1  UNL1        0.0624
     57 H           5.9463    0.5767    3.8853 H       1  UNL1        0.0618
     58 H           8.0594    1.0179    2.5997 H       1  UNL1        0.0618
     59 H           7.9776    0.9227    0.1745 H       1  UNL1        0.0625
     60 H           4.1986   -0.5206   -2.1792 H       1  UNL1        0.1923
     61 H           3.4288   -2.1557    0.6003 H       1  UNL1        0.0624
     62 H           1.2583   -2.4671   -0.3737 H       1  UNL1        0.0621
@<TRIPOS>BOND
     1     1     2    1
     2     2     3    1
     3     3     4    1
     4     4     5    1
     5     5     6   ar
     6     6     7   ar
     7     7     8    1
     8     8     9   ar
     9     9    10   ar
    10    10    11   ar
    11    11    12    1
    12    11    13   ar
    13    13    14   ar
    14     7    15   ar
    15    15    16    1
    16    16    17    2
    17    16    18    1
    18    15    19   ar
    19    19    20    1
    20    20    21    1
    21    21    22   ar
    22    22    23   ar
    23    23    24   ar
    24    24    25    1
    25    25    26   ar
    26    26    27   ar
    27    27    28   ar
    28    28    29   ar
    29    29    30   ar
    30    30    31    1
    31    31    32   ar
    32    32    33   ar
    33    33    34   ar
    34    34    35   ar
    35    24    36   ar
    36    36    37   ar
    37    19     5   ar
    38    37    21   ar
    39    14     8   ar
    40    30    25   ar
    41    35    31   ar
    42     1    38    1
    43     1    39    1
    44     1    40    1
    45     2    41    1
    46     2    42    1
    47     3    43    1
    48     3    44    1
    49     4    45    1
    50     4    46    1
    51     9    47    1
    52    10    48    1
    53    13    49    1
    54    14    50    1
    55    18    51    1
    56    20    52    1
    57    20    53    1
    58    22    54    1
    59    23    55    1
    60    26    56    1
    61    27    57    1
    62    28    58    1
    63    29    59    1
    64    35    60    1
    65    36    61    1
    66    37    62    1
