
     RDKit          3D

 62 66  0  0  0  0  0  0  0  0999 V2000
   -4.0202   -3.7592    1.4584 C   0  0  0  0  0  0  0  0  0  0  0  0
   -3.4403   -3.6381    0.0657 C   0  0  0  0  0  0  0  0  0  0  0  0
   -1.9347   -3.5338    0.1551 C   0  0  0  0  0  0  0  0  0  0  0  0
   -1.5202   -2.3262    0.9540 C   0  0  0  0  0  0  0  0  0  0  0  0
   -1.9936   -1.0416    0.3876 C   0  0  0  0  0  0  0  0  0  0  0  0
   -3.0385   -0.3033    0.8672 N   0  0  0  0  0  0  0  0  0  0  0  0
   -3.2203    0.7671    0.1623 N   0  0  0  0  0  0  0  0  0  0  0  0
   -4.2065    1.8062    0.3331 C   0  0  0  0  0  0  0  0  0  0  0  0
   -3.8316    3.0414    0.8399 C   0  0  0  0  0  0  0  0  0  0  0  0
   -4.7371    4.0549    1.0192 C   0  0  0  0  0  0  0  0  0  0  0  0
   -6.0431    3.7964    0.6737 C   0  0  0  0  0  0  0  0  0  0  0  0
   -7.2554    5.0378    0.8737 Cl  0  0  0  0  0  0  0  0  0  0  0  0
   -6.4599    2.5781    0.1645 C   0  0  0  0  0  0  0  0  0  0  0  0
   -5.5021    1.5764   -0.0004 C   0  0  0  0  0  0  0  0  0  0  0  0
   -2.3016    0.8058   -0.8353 C   0  0  0  0  0  0  0  0  0  0  0  0
   -2.1768    1.8535   -1.8514 C   0  0  0  0  0  0  0  0  0  0  0  0
   -1.3512    1.8996   -2.7622 O   0  0  0  0  0  0  0  0  0  0  0  0
   -3.0809    2.9394   -1.8135 O   0  0  0  0  0  0  0  0  0  0  0  0
   -1.5258   -0.3316   -0.6972 C   0  0  0  0  0  0  0  0  0  0  0  0
   -0.3864   -0.7045   -1.5670 C   0  0  0  0  0  0  0  0  0  0  0  0
    0.9443   -0.4401   -0.9699 C   0  0  0  0  0  0  0  0  0  0  0  0
    1.5348    0.8064   -0.9640 C   0  0  0  0  0  0  0  0  0  0  0  0
    2.7855    1.0119   -0.4115 C   0  0  0  0  0  0  0  0  0  0  0  0
    3.4739   -0.0377    0.1508 C   0  0  0  0  0  0  0  0  0  0  0  0
    4.7610    0.2125    0.7525 C   0  0  0  0  0  0  0  0  0  0  0  0
    4.7642    0.2562    2.1655 C   0  0  0  0  0  0  0  0  0  0  0  0
    5.9483    0.5442    2.8024 C   0  0  0  0  0  0  0  0  0  0  0  0
    7.1147    0.7882    2.1214 C   0  0  0  0  0  0  0  0  0  0  0  0
    7.0745    0.7365    0.7519 C   0  0  0  0  0  0  0  0  0  0  0  0
    5.8903    0.4448    0.0297 C   0  0  0  0  0  0  0  0  0  0  0  0
    5.9487    0.3499   -1.3990 C   0  0  0  0  0  0  0  0  0  0  0  0
    7.0428    0.8125   -2.0977 N   0  0  0  0  0  0  0  0  0  0  0  0
    6.8641    0.6542   -3.3872 N   0  0  0  0  0  0  0  0  0  0  0  0
    5.6837    0.1019   -3.5268 N   0  0  0  0  0  0  0  0  0  0  0  0
    5.1161   -0.0894   -2.3287 N   0  0  0  0  0  0  0  0  0  0  0  0
    2.9252   -1.3024    0.1690 C   0  0  0  0  0  0  0  0  0  0  0  0
    1.6651   -1.4665   -0.3975 C   0  0  0  0  0  0  0  0  0  0  0  0
   -3.2024   -4.1441    2.1212 H   0  0  0  0  0  0  0  0  0  0  0  0
   -4.4158   -2.7724    1.8242 H   0  0  0  0  0  0  0  0  0  0  0  0
   -4.8122   -4.5522    1.5008 H   0  0  0  0  0  0  0  0  0  0  0  0
   -3.8918   -2.8103   -0.4881 H   0  0  0  0  0  0  0  0  0  0  0  0
   -3.7231   -4.5719   -0.4731 H   0  0  0  0  0  0  0  0  0  0  0  0
   -1.5514   -4.4195    0.7408 H   0  0  0  0  0  0  0  0  0  0  0  0
   -1.5078   -3.6204   -0.8350 H   0  0  0  0  0  0  0  0  0  0  0  0
   -2.0768   -2.4548    1.9435 H   0  0  0  0  0  0  0  0  0  0  0  0
   -0.4742   -2.3482    1.2544 H   0  0  0  0  0  0  0  0  0  0  0  0
   -2.7899    3.2135    1.1035 H   0  0  0  0  0  0  0  0  0  0  0  0
   -4.4373    5.0263    1.4186 H   0  0  0  0  0  0  0  0  0  0  0  0
   -7.4953    2.3753   -0.1084 H   0  0  0  0  0  0  0  0  0  0  0  0
   -5.7818    0.6157   -0.3921 H   0  0  0  0  0  0  0  0  0  0  0  0
   -3.3643    3.4289   -2.6503 H   0  0  0  0  0  0  0  0  0  0  0  0
   -0.4639   -1.7801   -1.8949 H   0  0  0  0  0  0  0  0  0  0  0  0
   -0.4327   -0.1446   -2.5195 H   0  0  0  0  0  0  0  0  0  0  0  0
    0.9886    1.6213   -1.4062 H   0  0  0  0  0  0  0  0  0  0  0  0
    3.2048    1.9983   -0.4308 H   0  0  0  0  0  0  0  0  0  0  0  0
    3.8476    0.0638    2.6959 H   0  0  0  0  0  0  0  0  0  0  0  0
    5.9463    0.5767    3.8853 H   0  0  0  0  0  0  0  0  0  0  0  0
    8.0594    1.0179    2.5997 H   0  0  0  0  0  0  0  0  0  0  0  0
    7.9776    0.9227    0.1745 H   0  0  0  0  0  0  0  0  0  0  0  0
    4.1986   -0.5206   -2.1792 H   0  0  0  0  0  0  0  0  0  0  0  0
    3.4288   -2.1557    0.6003 H   0  0  0  0  0  0  0  0  0  0  0  0
    1.2583   -2.4671   -0.3737 H   0  0  0  0  0  0  0  0  0  0  0  0
  1  2  1  0
  2  3  1  0
  3  4  1  0
  4  5  1  0
  5  6  2  0
  6  7  1  0
  7  8  1  0
  8  9  2  0
  9 10  1  0
 10 11  2  0
 11 12  1  0
 11 13  1  0
 13 14  2  0
  7 15  1  0
 15 16  1  0
 16 17  2  0
 16 18  1  0
 15 19  2  0
 19 20  1  0
 20 21  1  0
 21 22  2  0
 22 23  1  0
 23 24  2  0
 24 25  1  0
 25 26  2  0
 26 27  1  0
 27 28  2  0
 28 29  1  0
 29 30  2  0
 30 31  1  0
 31 32  2  0
 32 33  1  0
 33 34  2  0
 34 35  1  0
 24 36  1  0
 36 37  2  0
 19  5  1  0
 37 21  1  0
 14  8  1  0
 30 25  1  0
 35 31  1  0
  1 38  1  0
  1 39  1  0
  1 40  1  0
  2 41  1  0
  2 42  1  0
  3 43  1  0
  3 44  1  0
  4 45  1  0
  4 46  1  0
  9 47  1  0
 10 48  1  0
 13 49  1  0
 14 50  1  0
 18 51  1  0
 20 52  1  0
 20 53  1  0
 22 54  1  0
 23 55  1  0
 26 56  1  0
 27 57  1  0
 28 58  1  0
 29 59  1  0
 35 60  1  0
 36 61  1  0
 37 62  1  0
M  END
$$$$
