
     RDKit          3D

 19 20  0  0  0  0  0  0  0  0999 V2000
   -0.5221    2.3136   -0.4515 O   0  0  0  0  0  0  0  0  0  0  0  0
   -0.9704    1.0250   -0.2312 C   0  0  0  0  0  0  0  0  0  0  0  0
   -2.3273    0.7684   -0.2487 C   0  0  0  0  0  0  0  0  0  0  0  0
   -2.8147   -0.5055   -0.0330 C   0  0  0  0  0  0  0  0  0  0  0  0
   -1.9005   -1.5118    0.2003 C   0  0  0  0  0  0  0  0  0  0  0  0
   -2.4846   -3.1390    0.4777 Cl  0  0  0  0  0  0  0  0  0  0  0  0
   -0.5476   -1.2374    0.2143 C   0  0  0  0  0  0  0  0  0  0  0  0
   -0.0437    0.0297    0.0007 C   0  0  0  0  0  0  0  0  0  0  0  0
    1.3941    0.3021    0.0192 C   0  0  0  0  0  0  0  0  0  0  0  0
    2.4008   -0.6108    0.2395 C   0  0  0  0  0  0  0  0  0  0  0  0
    3.6049    0.0277    0.1778 N   0  0  0  0  0  0  0  0  0  0  0  0
    3.3334    1.3027   -0.0749 N   0  0  0  0  0  0  0  0  0  0  0  0
    2.0156    1.4760   -0.1713 N   0  0  0  0  0  0  0  0  0  0  0  0
   -1.1603    3.0363   -0.7776 H   0  0  0  0  0  0  0  0  0  0  0  0
   -3.0747    1.5424   -0.4303 H   0  0  0  0  0  0  0  0  0  0  0  0
   -3.8790   -0.7296   -0.0425 H   0  0  0  0  0  0  0  0  0  0  0  0
    0.1818   -2.0376    0.4000 H   0  0  0  0  0  0  0  0  0  0  0  0
    2.2410   -1.6730    0.4313 H   0  0  0  0  0  0  0  0  0  0  0  0
    4.5534   -0.3792    0.3002 H   0  0  0  0  0  0  0  0  0  0  0  0
  1  2  1  0
  2  3  2  0
  3  4  1  0
  4  5  2  0
  5  6  1  0
  5  7  1  0
  7  8  2  0
  8  9  1  0
  9 10  2  0
 10 11  1  0
 11 12  1  0
 12 13  2  0
  8  2  1  0
 13  9  1  0
  1 14  1  0
  3 15  1  0
  4 16  1  0
  7 17  1  0
 10 18  1  0
 11 19  1  0
M  END
$$$$
