@<TRIPOS>MOLECULE
*****
 19 20 0 0 0
SMALL
GASTEIGER

@<TRIPOS>ATOM
      1 O          -0.5221    2.3136   -0.4515 O.3     1  UNL1       -0.5061
      2 C          -0.9704    1.0250   -0.2312 C.ar    1  UNL1        0.1262
      3 C          -2.3273    0.7684   -0.2487 C.ar    1  UNL1       -0.0181
      4 C          -2.8147   -0.5055   -0.0330 C.ar    1  UNL1       -0.0399
      5 C          -1.9005   -1.5118    0.2003 C.ar    1  UNL1        0.0418
      6 CL         -2.4846   -3.1390    0.4777 Cl      1  UNL1       -0.0835
      7 C          -0.5476   -1.2374    0.2143 C.ar    1  UNL1       -0.0306
      8 C          -0.0437    0.0297    0.0007 C.ar    1  UNL1        0.0464
      9 C           1.3941    0.3021    0.0192 C.ar    1  UNL1        0.1158
     10 C           2.4008   -0.6108    0.2395 C.ar    1  UNL1        0.0503
     11 N           3.6049    0.0277    0.1778 N.ar    1  UNL1       -0.2643
     12 N           3.3334    1.3027   -0.0749 N.ar    1  UNL1       -0.0678
     13 N           2.0156    1.4760   -0.1713 N.ar    1  UNL1       -0.1296
     14 H          -1.1603    3.0363   -0.7776 H       1  UNL1        0.2922
     15 H          -3.0747    1.5424   -0.4303 H       1  UNL1        0.0655
     16 H          -3.8790   -0.7296   -0.0425 H       1  UNL1        0.0633
     17 H           0.1818   -2.0376    0.4000 H       1  UNL1        0.0640
     18 H           2.2410   -1.6730    0.4313 H       1  UNL1        0.0846
     19 H           4.5534   -0.3792    0.3002 H       1  UNL1        0.1900
@<TRIPOS>BOND
     1     1     2    1
     2     2     3   ar
     3     3     4   ar
     4     4     5   ar
     5     5     6    1
     6     5     7   ar
     7     7     8   ar
     8     8     9    1
     9     9    10   ar
    10    10    11   ar
    11    11    12   ar
    12    12    13   ar
    13     8     2   ar
    14    13     9   ar
    15     1    14    1
    16     3    15    1
    17     4    16    1
    18     7    17    1
    19    10    18    1
    20    11    19    1
