@<TRIPOS>MOLECULE
*****
 36 39 0 0 0
SMALL
GASTEIGER

@<TRIPOS>ATOM
      1 N           0.0654    4.5961    5.2818 N.1     1  UNL1       -0.1909
      2 C          -0.0529    3.7566    4.3972 C.1     1  UNL1        0.0992
      3 C          -0.2114    2.7916    3.3917 C.ar    1  UNL1        0.0545
      4 C          -0.9021    3.1126    2.2107 C.ar    1  UNL1       -0.0436
      5 C          -1.0862    2.1849    1.2154 C.ar    1  UNL1       -0.0485
      6 C          -0.5901    0.8816    1.3401 C.ar    1  UNL1        0.0380
      7 C          -0.8920    0.0032    0.2530 C.ar    1  UNL1        0.1080
      8 C          -0.0760   -0.7301   -0.5766 C.ar    1  UNL1        0.1537
      9 C           1.3789   -0.7828   -0.5894 C.2     1  UNL1        0.2648
     10 O           2.0412   -0.2146    0.2847 O.2     1  UNL1       -0.2684
     11 N           2.0831   -1.4753   -1.6008 N.am    1  UNL1       -0.3072
     12 C           3.5344   -1.5537   -1.6566 C.3     1  UNL1        0.0236
     13 C           4.0864   -2.3559   -2.8242 C.3     1  UNL1       -0.0328
     14 C           4.2097   -0.8503   -2.7986 C.3     1  UNL1       -0.0328
     15 N          -0.8674   -1.4243   -1.4617 N.ar    1  UNL1       -0.2211
     16 C          -2.1371   -1.1361   -1.1986 C.ar    1  UNL1        0.1556
     17 C          -3.3515   -1.5328   -1.7613 C.ar    1  UNL1       -0.0159
     18 C          -4.5202   -1.0513   -1.2613 C.ar    1  UNL1       -0.0384
     19 C          -4.5090   -0.1838   -0.2147 C.ar    1  UNL1        0.0485
     20 N          -3.3104    0.1858    0.3121 N.ar    1  UNL1       -0.1729
     21 N          -2.1765   -0.2836   -0.1763 N.ar    1  UNL1       -0.2118
     22 C           0.0739    0.5750    2.4798 C.ar    1  UNL1        0.1338
     23 F           0.5549   -0.6682    2.7227 F       1  UNL1       -0.2048
     24 C           0.2701    1.5027    3.4982 C.ar    1  UNL1       -0.0084
     25 H          -1.2770    4.1341    2.1389 H       1  UNL1        0.0631
     26 H          -1.6360    2.5113    0.3284 H       1  UNL1        0.0625
     27 H           1.5409   -1.9559   -2.3438 H       1  UNL1        0.1493
     28 H           4.0843   -1.4699   -0.7068 H       1  UNL1        0.0498
     29 H           3.3452   -2.7801   -3.5449 H       1  UNL1        0.0284
     30 H           4.9790   -2.9940   -2.6389 H       1  UNL1        0.0284
     31 H           3.5806   -0.2857   -3.5294 H       1  UNL1        0.0284
     32 H           5.1967   -0.4386   -2.6553 H       1  UNL1        0.0284
     33 H          -3.3347   -2.2098   -2.5793 H       1  UNL1        0.0655
     34 H          -5.4962   -1.3179   -1.6604 H       1  UNL1        0.0634
     35 H          -5.4050    0.2489    0.2451 H       1  UNL1        0.0847
     36 H           0.8069    1.2103    4.3771 H       1  UNL1        0.0659
@<TRIPOS>BOND
     1     1     2    3
     2     2     3    1
     3     3     4   ar
     4     4     5   ar
     5     5     6   ar
     6     6     7    1
     7     7     8   ar
     8     8     9    1
     9     9    10    2
    10     9    11   am
    11    11    12    1
    12    12    13    1
    13    13    14    1
    14     8    15   ar
    15    15    16   ar
    16    16    17   ar
    17    17    18   ar
    18    18    19   ar
    19    19    20   ar
    20    20    21   ar
    21     6    22   ar
    22    22    23    1
    23    22    24   ar
    24    24     3   ar
    25    21     7   ar
    26    14    12    1
    27    21    16   ar
    28     4    25    1
    29     5    26    1
    30    11    27    1
    31    12    28    1
    32    13    29    1
    33    13    30    1
    34    14    31    1
    35    14    32    1
    36    17    33    1
    37    18    34    1
    38    19    35    1
    39    24    36    1
