
     RDKit          3D

 36 39  0  0  0  0  0  0  0  0999 V2000
    0.0654    4.5961    5.2818 N   0  0  0  0  0  0  0  0  0  0  0  0
   -0.0529    3.7566    4.3972 C   0  0  0  0  0  0  0  0  0  0  0  0
   -0.2114    2.7916    3.3917 C   0  0  0  0  0  0  0  0  0  0  0  0
   -0.9021    3.1126    2.2107 C   0  0  0  0  0  0  0  0  0  0  0  0
   -1.0862    2.1849    1.2154 C   0  0  0  0  0  0  0  0  0  0  0  0
   -0.5901    0.8816    1.3401 C   0  0  0  0  0  0  0  0  0  0  0  0
   -0.8920    0.0032    0.2530 C   0  0  0  0  0  0  0  0  0  0  0  0
   -0.0760   -0.7301   -0.5766 C   0  0  0  0  0  0  0  0  0  0  0  0
    1.3789   -0.7828   -0.5894 C   0  0  0  0  0  0  0  0  0  0  0  0
    2.0412   -0.2146    0.2847 O   0  0  0  0  0  0  0  0  0  0  0  0
    2.0831   -1.4753   -1.6008 N   0  0  0  0  0  0  0  0  0  0  0  0
    3.5344   -1.5537   -1.6566 C   0  0  0  0  0  0  0  0  0  0  0  0
    4.0864   -2.3559   -2.8242 C   0  0  0  0  0  0  0  0  0  0  0  0
    4.2097   -0.8503   -2.7986 C   0  0  0  0  0  0  0  0  0  0  0  0
   -0.8674   -1.4243   -1.4617 N   0  0  0  0  0  0  0  0  0  0  0  0
   -2.1371   -1.1361   -1.1986 C   0  0  0  0  0  0  0  0  0  0  0  0
   -3.3515   -1.5328   -1.7613 C   0  0  0  0  0  0  0  0  0  0  0  0
   -4.5202   -1.0513   -1.2613 C   0  0  0  0  0  0  0  0  0  0  0  0
   -4.5090   -0.1838   -0.2147 C   0  0  0  0  0  0  0  0  0  0  0  0
   -3.3104    0.1858    0.3121 N   0  0  0  0  0  0  0  0  0  0  0  0
   -2.1765   -0.2836   -0.1763 N   0  0  0  0  0  0  0  0  0  0  0  0
    0.0739    0.5750    2.4798 C   0  0  0  0  0  0  0  0  0  0  0  0
    0.5549   -0.6682    2.7227 F   0  0  0  0  0  0  0  0  0  0  0  0
    0.2701    1.5027    3.4982 C   0  0  0  0  0  0  0  0  0  0  0  0
   -1.2770    4.1341    2.1389 H   0  0  0  0  0  0  0  0  0  0  0  0
   -1.6360    2.5113    0.3284 H   0  0  0  0  0  0  0  0  0  0  0  0
    1.5409   -1.9559   -2.3438 H   0  0  0  0  0  0  0  0  0  0  0  0
    4.0843   -1.4699   -0.7068 H   0  0  0  0  0  0  0  0  0  0  0  0
    3.3452   -2.7801   -3.5449 H   0  0  0  0  0  0  0  0  0  0  0  0
    4.9790   -2.9940   -2.6389 H   0  0  0  0  0  0  0  0  0  0  0  0
    3.5806   -0.2857   -3.5294 H   0  0  0  0  0  0  0  0  0  0  0  0
    5.1967   -0.4386   -2.6553 H   0  0  0  0  0  0  0  0  0  0  0  0
   -3.3347   -2.2098   -2.5793 H   0  0  0  0  0  0  0  0  0  0  0  0
   -5.4962   -1.3179   -1.6604 H   0  0  0  0  0  0  0  0  0  0  0  0
   -5.4050    0.2489    0.2451 H   0  0  0  0  0  0  0  0  0  0  0  0
    0.8069    1.2103    4.3771 H   0  0  0  0  0  0  0  0  0  0  0  0
  1  2  3  0
  2  3  1  0
  3  4  2  0
  4  5  1  0
  5  6  2  0
  6  7  1  0
  7  8  2  0
  8  9  1  0
  9 10  2  0
  9 11  1  0
 11 12  1  0
 12 13  1  0
 13 14  1  0
  8 15  1  0
 15 16  2  0
 16 17  1  0
 17 18  2  0
 18 19  1  0
 19 20  2  0
 20 21  1  0
  6 22  1  0
 22 23  1  0
 22 24  2  0
 24  3  1  0
 21  7  1  0
 14 12  1  0
 21 16  1  0
  4 25  1  0
  5 26  1  0
 11 27  1  0
 12 28  1  0
 13 29  1  0
 13 30  1  0
 14 31  1  0
 14 32  1  0
 17 33  1  0
 18 34  1  0
 19 35  1  0
 24 36  1  0
M  END
$$$$
