
     RDKit          3D

 46 49  0  0  0  0  0  0  0  0999 V2000
   -2.3743   -0.8183   -2.5146 C   0  0  0  0  0  0  0  0  0  0  0  0
   -1.7979   -0.9487   -1.0909 C   0  0  1  0  0  0  0  0  0  0  0  0
   -1.4022    0.3186   -0.7110 O   0  0  0  0  0  0  0  0  0  0  0  0
   -0.1193    0.6383   -0.3747 C   0  0  0  0  0  0  0  0  0  0  0  0
    0.9749   -0.1830   -0.3457 C   0  0  0  0  0  0  0  0  0  0  0  0
    2.2473    0.2595    0.0174 C   0  0  0  0  0  0  0  0  0  0  0  0
    3.3671   -0.6711    0.0259 C   0  0  0  0  0  0  0  0  0  0  0  0
    4.6701   -0.3199   -0.2415 C   0  0  0  0  0  0  0  0  0  0  0  0
    5.4580   -1.4130   -0.1513 N   0  0  0  0  0  0  0  0  0  0  0  0
    4.6758   -2.4542    0.1695 N   0  0  0  0  0  0  0  0  0  0  0  0
    5.2029   -3.7847    0.3452 C   0  0  0  0  0  0  0  0  0  0  0  0
    6.4827   -3.6950    0.8679 F   0  0  0  0  0  0  0  0  0  0  0  0
    4.3961   -4.5675    1.1266 F   0  0  0  0  0  0  0  0  0  0  0  0
    3.3917   -2.0251    0.2834 C   0  0  0  0  0  0  0  0  0  0  0  0
    2.3832    1.5812    0.3565 C   0  0  0  0  0  0  0  0  0  0  0  0
    1.3265    2.4636    0.3494 C   0  0  0  0  0  0  0  0  0  0  0  0
    1.1791    3.7732    0.6278 N   0  0  0  0  0  0  0  0  0  0  0  0
   -0.0692    4.1706    0.4672 N   0  0  0  0  0  0  0  0  0  0  0  0
   -0.6068    5.5043    0.6717 C   0  0  0  0  0  0  0  0  0  0  0  0
   -0.7582    3.0614    0.0659 C   0  0  0  0  0  0  0  0  0  0  0  0
    0.0904    1.9810   -0.0158 C   0  0  0  0  0  0  0  0  0  0  0  0
   -2.9350   -1.5024   -0.2565 C   0  0  1  0  0  0  0  0  0  0  0  0
   -2.5591   -1.6988    1.1743 C   0  0  0  0  0  0  0  0  0  0  0  0
   -3.5815   -1.0184    1.9226 N   0  0  0  0  0  0  0  0  0  0  0  0
   -4.6617   -0.6646    1.0704 C   0  0  0  0  0  0  0  0  0  0  0  0
   -5.8715   -0.4220    1.3847 O   0  0  0  0  0  0  0  0  0  0  0  0
   -4.1375   -0.6197   -0.3038 C   0  0  0  0  0  0  0  0  0  0  0  0
   -1.9984   -1.6858   -3.1216 H   0  0  0  0  0  0  0  0  0  0  0  0
   -3.4782   -0.8706   -2.5176 H   0  0  0  0  0  0  0  0  0  0  0  0
   -2.0971    0.1406   -2.9738 H   0  0  0  0  0  0  0  0  0  0  0  0
   -0.9737   -1.6483   -1.0965 H   0  0  0  0  0  0  0  0  0  0  0  0
    0.8399   -1.2169   -0.6165 H   0  0  0  0  0  0  0  0  0  0  0  0
    5.0671    0.6551   -0.4904 H   0  0  0  0  0  0  0  0  0  0  0  0
    5.3364   -4.2063   -0.6929 H   0  0  0  0  0  0  0  0  0  0  0  0
    2.5469   -2.6508    0.5338 H   0  0  0  0  0  0  0  0  0  0  0  0
    3.3559    1.9600    0.6436 H   0  0  0  0  0  0  0  0  0  0  0  0
   -1.6968    5.4995    0.6458 H   0  0  0  0  0  0  0  0  0  0  0  0
   -0.2067    6.1414   -0.1487 H   0  0  0  0  0  0  0  0  0  0  0  0
   -0.2169    5.9551    1.6233 H   0  0  0  0  0  0  0  0  0  0  0  0
   -1.8168    3.0265   -0.1581 H   0  0  0  0  0  0  0  0  0  0  0  0
   -3.2059   -2.4844   -0.7113 H   0  0  0  0  0  0  0  0  0  0  0  0
   -1.5381   -1.3568    1.4254 H   0  0  0  0  0  0  0  0  0  0  0  0
   -2.6015   -2.7767    1.4847 H   0  0  0  0  0  0  0  0  0  0  0  0
   -3.5342   -0.8170    2.9365 H   0  0  0  0  0  0  0  0  0  0  0  0
   -4.8855   -1.0092   -1.0435 H   0  0  0  0  0  0  0  0  0  0  0  0
   -3.8679    0.3994   -0.6428 H   0  0  0  0  0  0  0  0  0  0  0  0
  1  2  1  0
  2  3  1  0
  3  4  1  0
  4  5  2  0
  5  6  1  0
  6  7  1  0
  7  8  1  0
  8  9  2  0
  9 10  1  0
 10 11  1  0
 11 12  1  0
 11 13  1  0
 10 14  1  0
  6 15  2  0
 15 16  1  0
 16 17  2  0
 17 18  1  0
 18 19  1  0
 18 20  1  0
 20 21  2  0
  2 22  1  0
 22 23  1  0
 23 24  1  0
 24 25  1  0
 25 26  2  0
 25 27  1  0
 21  4  1  0
 27 22  1  0
 14  7  2  0
 21 16  1  0
  1 28  1  0
  1 29  1  0
  1 30  1  0
  2 31  1  6
  5 32  1  0
  8 33  1  0
 11 34  1  0
 14 35  1  0
 15 36  1  0
 19 37  1  0
 19 38  1  0
 19 39  1  0
 20 40  1  0
 22 41  1  6
 23 42  1  0
 23 43  1  0
 24 44  1  0
 27 45  1  0
 27 46  1  0
M  END
$$$$
