@<TRIPOS>MOLECULE
*****
 46 49 0 0 0
SMALL
GASTEIGER

@<TRIPOS>ATOM
      1 C          -2.3743   -0.8183   -2.5146 C.3     1  UNL1       -0.0275
      2 C          -1.7979   -0.9487   -1.0909 C.3     1  UNL1        0.1021
      3 O          -1.4022    0.3186   -0.7110 O.3     1  UNL1       -0.4880
      4 C          -0.1193    0.6383   -0.3747 C.ar    1  UNL1        0.1321
      5 C           0.9749   -0.1830   -0.3457 C.ar    1  UNL1       -0.0113
      6 C           2.2473    0.2595    0.0174 C.ar    1  UNL1       -0.0094
      7 C           3.3671   -0.6711    0.0259 C.ar    1  UNL1        0.0199
      8 C           4.6701   -0.3199   -0.2415 C.ar    1  UNL1        0.0573
      9 N           5.4580   -1.4130   -0.1513 N.ar    1  UNL1       -0.1744
     10 N           4.6758   -2.4542    0.1695 N.ar    1  UNL1       -0.2107
     11 C           5.2029   -3.7847    0.3452 C.3     1  UNL1        0.3342
     12 F           6.4827   -3.6950    0.8679 F       1  UNL1       -0.1832
     13 F           4.3961   -4.5675    1.1266 F       1  UNL1       -0.1832
     14 C           3.3917   -2.0251    0.2834 C.ar    1  UNL1        0.0389
     15 C           2.3832    1.5812    0.3565 C.ar    1  UNL1       -0.0259
     16 C           1.3265    2.4636    0.3494 C.ar    1  UNL1        0.0968
     17 N           1.1791    3.7732    0.6278 N.ar    1  UNL1       -0.1713
     18 N          -0.0692    4.1706    0.4672 N.ar    1  UNL1       -0.2732
     19 C          -0.6068    5.5043    0.6717 C.3     1  UNL1        0.0302
     20 C          -0.7582    3.0614    0.0659 C.ar    1  UNL1        0.0364
     21 C           0.0904    1.9810   -0.0158 C.ar    1  UNL1        0.0614
     22 C          -2.9350   -1.5024   -0.2565 C.3     1  UNL1        0.0195
     23 C          -2.5591   -1.6988    1.1743 C.3     1  UNL1        0.0182
     24 N          -3.5815   -1.0184    1.9226 N.am    1  UNL1       -0.3149
     25 C          -4.6617   -0.6646    1.0704 C.2     1  UNL1        0.2135
     26 O          -5.8715   -0.4220    1.3847 O.2     1  UNL1       -0.2758
     27 C          -4.1375   -0.6197   -0.3038 C.3     1  UNL1        0.0315
     28 H          -1.9984   -1.6858   -3.1216 H       1  UNL1        0.0265
     29 H          -3.4782   -0.8706   -2.5176 H       1  UNL1        0.0265
     30 H          -2.0971    0.1406   -2.9738 H       1  UNL1        0.0265
     31 H          -0.9737   -1.6483   -1.0965 H       1  UNL1        0.0733
     32 H           0.8399   -1.2169   -0.6165 H       1  UNL1        0.0660
     33 H           5.0671    0.6551   -0.4904 H       1  UNL1        0.0854
     34 H           5.3364   -4.2063   -0.6929 H       1  UNL1        0.1295
     35 H           2.5469   -2.6508    0.5338 H       1  UNL1        0.0834
     36 H           3.3559    1.9600    0.6436 H       1  UNL1        0.0646
     37 H          -1.6968    5.4995    0.6458 H       1  UNL1        0.0473
     38 H          -0.2067    6.1414   -0.1487 H       1  UNL1        0.0473
     39 H          -0.2169    5.9551    1.6233 H       1  UNL1        0.0473
     40 H          -1.8168    3.0265   -0.1581 H       1  UNL1        0.0833
     41 H          -3.2059   -2.4844   -0.7113 H       1  UNL1        0.0356
     42 H          -1.5381   -1.3568    1.4254 H       1  UNL1        0.0466
     43 H          -2.6015   -2.7767    1.4847 H       1  UNL1        0.0466
     44 H          -3.5342   -0.8170    2.9365 H       1  UNL1        0.1487
     45 H          -4.8855   -1.0092   -1.0435 H       1  UNL1        0.0363
     46 H          -3.8679    0.3994   -0.6428 H       1  UNL1        0.0363
@<TRIPOS>BOND
     1     1     2    1
     2     2     3    1
     3     3     4    1
     4     4     5   ar
     5     5     6   ar
     6     6     7    1
     7     7     8   ar
     8     8     9   ar
     9     9    10   ar
    10    10    11    1
    11    11    12    1
    12    11    13    1
    13    10    14   ar
    14     6    15   ar
    15    15    16   ar
    16    16    17   ar
    17    17    18   ar
    18    18    19    1
    19    18    20   ar
    20    20    21   ar
    21     2    22    1
    22    22    23    1
    23    23    24    1
    24    24    25   am
    25    25    26    2
    26    25    27    1
    27    21     4   ar
    28    27    22    1
    29    14     7   ar
    30    21    16   ar
    31     1    28    1
    32     1    29    1
    33     1    30    1
    34     2    31    1
    35     5    32    1
    36     8    33    1
    37    11    34    1
    38    14    35    1
    39    15    36    1
    40    19    37    1
    41    19    38    1
    42    19    39    1
    43    20    40    1
    44    22    41    1
    45    23    42    1
    46    23    43    1
    47    24    44    1
    48    27    45    1
    49    27    46    1
