
     RDKit          3D

 81 83  0  0  0  0  0  0  0  0999 V2000
   -1.2758   -1.3613   -1.0638 C   0  0  0  0  0  0  0  0  0  0  0  0
   -0.6449   -2.3547   -0.5176 C   0  0  0  0  0  0  0  0  0  0  0  0
   -0.7158   -3.2035    0.6841 C   0  0  1  0  0  0  0  0  0  0  0  0
   -1.6298   -4.2613    0.5726 O   0  0  0  0  0  0  0  0  0  0  0  0
   -2.5230   -4.2722    1.6258 C   0  0  0  0  0  0  0  0  0  0  0  0
    0.6564   -3.8936    0.8032 C   0  0  2  0  0  0  0  0  0  0  0  0
    1.7392   -2.8474    0.8851 C   0  0  0  0  0  0  0  0  0  0  0  0
    1.7351   -2.0479    2.1370 C   0  0  0  0  0  0  0  0  0  0  0  0
    2.5842   -0.7614    1.8663 C   0  0  0  0  0  0  0  0  0  0  0  0
    1.8143    0.0809    0.9128 C   0  0  0  0  0  0  0  0  0  0  0  0
    2.4273    1.3820    0.4615 C   0  0  2  0  0  0  0  0  0  0  0  0
    1.4066    1.9602   -0.3747 O   0  0  0  0  0  0  0  0  0  0  0  0
    0.8489    3.1801   -0.2497 C   0  0  0  0  0  0  0  0  0  0  0  0
    1.0500    4.1439    0.5653 O   0  0  0  0  0  0  0  0  0  0  0  0
   -0.1707    3.2304   -1.3462 C   0  0  1  0  0  0  0  0  0  0  0  0
    0.4239    2.8692   -2.6765 C   0  0  0  0  0  0  0  0  0  0  0  0
   -1.3705    2.3752   -1.0750 C   0  0  1  0  0  0  0  0  0  0  0  0
   -2.0859    2.1343   -2.2561 O   0  0  0  0  0  0  0  0  0  0  0  0
   -1.0878    1.0994   -0.5644 O   0  0  0  0  0  0  0  0  0  0  0  0
   -2.3081    0.6162   -0.1148 C   0  0  2  0  0  0  0  0  0  0  0  0
   -2.5874    1.1357    1.2427 C   0  0  1  0  0  0  0  0  0  0  0  0
   -2.0587    0.3568    2.3932 C   0  0  0  0  0  0  0  0  0  0  0  0
   -2.0604    2.5821    1.2560 C   0  0  2  0  0  0  0  0  0  0  0  0
   -2.7308    3.2365    2.2582 O   0  0  0  0  0  0  0  0  0  0  0  0
   -2.3201    3.1197   -0.1130 C   0  0  1  0  0  0  0  0  0  0  0  0
   -2.0070    4.4678   -0.2451 O   0  0  0  0  0  0  0  0  0  0  0  0
   -3.0406    5.2485   -0.7022 C   0  0  0  0  0  0  0  0  0  0  0  0
   -2.4365   -0.8773   -0.2950 C   0  0  1  0  0  0  0  0  0  0  0  0
   -3.6506   -1.1642   -1.2018 C   0  0  0  0  0  0  0  0  0  0  0  0
    3.5626    1.0796   -0.4540 C   0  0  0  0  0  0  0  0  0  0  0  0
    3.2552    0.4635   -1.6665 C   0  0  0  0  0  0  0  0  0  0  0  0
    4.2563    0.1507   -2.5706 C   0  0  0  0  0  0  0  0  0  0  0  0
    5.5819    0.4513   -2.2721 C   0  0  0  0  0  0  0  0  0  0  0  0
    5.9080    1.0677   -1.0637 C   0  0  0  0  0  0  0  0  0  0  0  0
    4.8856    1.3624   -0.1922 C   0  0  0  0  0  0  0  0  0  0  0  0
    0.8485   -4.6382   -0.3427 O   0  0  0  0  0  0  0  0  0  0  0  0
    0.9756   -5.9976   -0.0908 C   0  0  0  0  0  0  0  0  0  0  0  0
   -1.1675   -0.7838   -1.9582 H   0  0  0  0  0  0  0  0  0  0  0  0
    0.1411   -2.5240   -1.2520 H   0  0  0  0  0  0  0  0  0  0  0  0
   -0.9490   -2.6206    1.5577 H   0  0  0  0  0  0  0  0  0  0  0  0
   -3.1224   -3.3745    1.7063 H   0  0  0  0  0  0  0  0  0  0  0  0
   -1.9407   -4.3548    2.5867 H   0  0  0  0  0  0  0  0  0  0  0  0
   -3.1142   -5.2111    1.5846 H   0  0  0  0  0  0  0  0  0  0  0  0
    0.6482   -4.5555    1.6727 H   0  0  0  0  0  0  0  0  0  0  0  0
    1.7807   -2.3429   -0.0648 H   0  0  0  0  0  0  0  0  0  0  0  0
    2.7023   -3.4638    0.9237 H   0  0  0  0  0  0  0  0  0  0  0  0
    2.2870   -2.5438    2.9626 H   0  0  0  0  0  0  0  0  0  0  0  0
    0.7615   -1.7462    2.5255 H   0  0  0  0  0  0  0  0  0  0  0  0
    2.8273   -0.2496    2.7929 H   0  0  0  0  0  0  0  0  0  0  0  0
    3.5095   -1.1343    1.3940 H   0  0  0  0  0  0  0  0  0  0  0  0
    0.8084    0.3821    1.3500 H   0  0  0  0  0  0  0  0  0  0  0  0
    1.5520   -0.4578   -0.0451 H   0  0  0  0  0  0  0  0  0  0  0  0
    2.6777    2.0759    1.2511 H   0  0  0  0  0  0  0  0  0  0  0  0
   -0.4673    4.3156   -1.4378 H   0  0  0  0  0  0  0  0  0  0  0  0
   -0.1947    3.3337   -3.4672 H   0  0  0  0  0  0  0  0  0  0  0  0
    1.4712    3.2468   -2.7393 H   0  0  0  0  0  0  0  0  0  0  0  0
    0.3903    1.7437   -2.7621 H   0  0  0  0  0  0  0  0  0  0  0  0
   -2.1365    2.9714   -2.7755 H   0  0  0  0  0  0  0  0  0  0  0  0
   -3.1166    1.0708   -0.7874 H   0  0  0  0  0  0  0  0  0  0  0  0
   -3.7106    1.2591    1.3475 H   0  0  0  0  0  0  0  0  0  0  0  0
   -1.2756   -0.3650    2.1903 H   0  0  0  0  0  0  0  0  0  0  0  0
   -1.6300    1.0978    3.1312 H   0  0  0  0  0  0  0  0  0  0  0  0
   -2.9202   -0.0881    2.9692 H   0  0  0  0  0  0  0  0  0  0  0  0
   -0.9831    2.5017    1.4193 H   0  0  0  0  0  0  0  0  0  0  0  0
   -2.2461    3.0689    3.1110 H   0  0  0  0  0  0  0  0  0  0  0  0
   -3.3756    3.0260   -0.4289 H   0  0  0  0  0  0  0  0  0  0  0  0
   -2.6459    6.3057   -0.7600 H   0  0  0  0  0  0  0  0  0  0  0  0
   -3.9115    5.2988   -0.0180 H   0  0  0  0  0  0  0  0  0  0  0  0
   -3.3238    5.0104   -1.7609 H   0  0  0  0  0  0  0  0  0  0  0  0
   -2.5969   -1.3274    0.6792 H   0  0  0  0  0  0  0  0  0  0  0  0
   -3.6968   -0.4283   -2.0290 H   0  0  0  0  0  0  0  0  0  0  0  0
   -4.5863   -1.2156   -0.5986 H   0  0  0  0  0  0  0  0  0  0  0  0
   -3.5254   -2.1635   -1.6671 H   0  0  0  0  0  0  0  0  0  0  0  0
    2.2632    0.1898   -1.9920 H   0  0  0  0  0  0  0  0  0  0  0  0
    4.0313   -0.3346   -3.5297 H   0  0  0  0  0  0  0  0  0  0  0  0
    6.3400    0.1856   -3.0171 H   0  0  0  0  0  0  0  0  0  0  0  0
    6.9407    1.2985   -0.8385 H   0  0  0  0  0  0  0  0  0  0  0  0
    5.1095    1.8451    0.7618 H   0  0  0  0  0  0  0  0  0  0  0  0
    0.0855   -6.4290    0.4018 H   0  0  0  0  0  0  0  0  0  0  0  0
    1.1360   -6.4922   -1.0818 H   0  0  0  0  0  0  0  0  0  0  0  0
    1.9180   -6.1346    0.4768 H   0  0  0  0  0  0  0  0  0  0  0  0
  1  2  2  0
  2  3  1  0
  3  4  1  0
  4  5  1  0
  3  6  1  0
  6  7  1  0
  7  8  1  0
  8  9  1  0
  9 10  1  0
 10 11  1  0
 11 12  1  0
 12 13  1  0
 13 14  2  0
 13 15  1  0
 15 16  1  0
 15 17  1  0
 17 18  1  6
 17 19  1  0
 19 20  1  0
 20 21  1  0
 21 22  1  0
 21 23  1  0
 23 24  1  0
 23 25  1  0
 25 26  1  0
 26 27  1  0
 20 28  1  0
 28 29  1  0
 11 30  1  0
 30 31  2  0
 31 32  1  0
 32 33  2  0
 33 34  1  0
 34 35  2  0
  6 36  1  0
 36 37  1  0
 28  1  1  0
 35 30  1  0
 25 17  1  0
  1 38  1  0
  2 39  1  0
  3 40  1  1
  5 41  1  0
  5 42  1  0
  5 43  1  0
  6 44  1  1
  7 45  1  0
  7 46  1  0
  8 47  1  0
  8 48  1  0
  9 49  1  0
  9 50  1  0
 10 51  1  0
 10 52  1  0
 11 53  1  1
 15 54  1  6
 16 55  1  0
 16 56  1  0
 16 57  1  0
 18 58  1  0
 20 59  1  6
 21 60  1  1
 22 61  1  0
 22 62  1  0
 22 63  1  0
 23 64  1  1
 24 65  1  0
 25 66  1  6
 27 67  1  0
 27 68  1  0
 27 69  1  0
 28 70  1  1
 29 71  1  0
 29 72  1  0
 29 73  1  0
 31 74  1  0
 32 75  1  0
 33 76  1  0
 34 77  1  0
 35 78  1  0
 37 79  1  0
 37 80  1  0
 37 81  1  0
M  END
$$$$
