@<TRIPOS>MOLECULE
*****
 62 67 0 0 0
SMALL
GASTEIGER

@<TRIPOS>ATOM
      1 C           4.3568    1.0232   -3.1763 C.3     1  UNL1       -0.0025
      2 C           3.8874    1.3236   -1.8184 C.1     1  UNL1       -0.1027
      3 C           3.4926    1.5722   -0.7182 C.1     1  UNL1       -0.0673
      4 C           3.0155    1.8777    0.6205 C.3     1  UNL1        0.1320
      5 O           3.0069    3.2136    0.9402 O.3     1  UNL1       -0.3760
      6 C           3.8273    1.0790    1.6533 C.3     1  UNL1       -0.0118
      7 C           3.2197   -0.3286    1.5826 C.3     1  UNL1       -0.0455
      8 C           2.0805   -0.2345    0.6272 C.3     1  UNL1       -0.0254
      9 C           0.8478   -1.0290    1.0418 C.3     1  UNL1       -0.0150
     10 C           1.2996   -2.3901    1.3309 C.3     1  UNL1       -0.0422
     11 C           0.3179   -3.4999    1.2771 C.3     1  UNL1       -0.0268
     12 C          -0.7138   -3.1440    0.2719 C.2     1  UNL1       -0.0409
     13 C          -1.5277   -4.1630    0.0403 C.2     1  UNL1       -0.0158
     14 C          -2.6129   -3.9549   -0.9459 C.2     1  UNL1        0.1567
     15 O          -3.7396   -4.5007   -0.8289 O.2     1  UNL1       -0.2927
     16 C          -2.2951   -3.0577   -2.0920 C.3     1  UNL1        0.0139
     17 C          -1.8958   -1.7058   -1.5071 C.3     1  UNL1       -0.0204
     18 C          -0.9037   -1.8648   -0.4298 C.2     1  UNL1       -0.0436
     19 C          -0.1475   -0.8623   -0.0384 C.2     1  UNL1       -0.0553
     20 C          -0.2795    0.4543   -0.6606 C.3     1  UNL1        0.0068
     21 C           0.6792    1.5094   -0.2647 C.3     1  UNL1       -0.0332
     22 C           1.6634    1.2071    0.7913 C.3     1  UNL1        0.0122
     23 C           1.2718    1.5415    2.1969 C.3     1  UNL1       -0.0557
     24 C          -1.6437    1.0525   -0.5859 C.ar    1  UNL1       -0.0366
     25 C          -2.3526    1.4884   -1.7138 C.ar    1  UNL1       -0.0543
     26 C          -3.6134    2.0409   -1.6695 C.ar    1  UNL1       -0.0159
     27 C          -4.2322    2.1830   -0.4587 C.ar    1  UNL1        0.1662
     28 O          -5.4784    2.6982   -0.1307 O.3     1  UNL1       -0.4526
     29 C          -5.6549    2.5986    1.2700 C.3     1  UNL1        0.2332
     30 O          -4.4450    2.0386    1.7360 O.3     1  UNL1       -0.4526
     31 C          -3.5941    1.7768    0.6835 C.ar    1  UNL1        0.1665
     32 C          -2.3326    1.2311    0.5729 C.ar    1  UNL1       -0.0124
     33 H           5.3361    1.4946   -3.4108 H       1  UNL1        0.0362
     34 H           4.5336   -0.0707   -3.3131 H       1  UNL1        0.0362
     35 H           3.6355    1.4351   -3.9072 H       1  UNL1        0.0362
     36 H           3.7782    3.6231    0.4438 H       1  UNL1        0.2114
     37 H           3.7888    1.5140    2.6506 H       1  UNL1        0.0303
     38 H           4.8686    1.1018    1.2910 H       1  UNL1        0.0303
     39 H           3.0043   -0.7569    2.5617 H       1  UNL1        0.0269
     40 H           4.0062   -0.9653    1.0780 H       1  UNL1        0.0269
     41 H           2.3425   -0.4398   -0.4126 H       1  UNL1        0.0313
     42 H           0.4471   -0.5485    1.9512 H       1  UNL1        0.0349
     43 H           2.1607   -2.7039    0.6678 H       1  UNL1        0.0274
     44 H           1.7652   -2.4435    2.3591 H       1  UNL1        0.0274
     45 H           0.7935   -4.4735    0.9754 H       1  UNL1        0.0313
     46 H          -0.1621   -3.6435    2.2682 H       1  UNL1        0.0313
     47 H          -1.4830   -5.1491    0.5062 H       1  UNL1        0.0655
     48 H          -1.4869   -3.4948   -2.7139 H       1  UNL1        0.0348
     49 H          -3.2336   -2.9214   -2.6666 H       1  UNL1        0.0348
     50 H          -1.4837   -1.1644   -2.3877 H       1  UNL1        0.0317
     51 H          -2.8632   -1.3023   -1.1429 H       1  UNL1        0.0317
     52 H          -0.1315    0.2966   -1.7740 H       1  UNL1        0.0394
     53 H           0.1633    2.4678    0.0531 H       1  UNL1        0.0281
     54 H           1.2973    1.8815   -1.1408 H       1  UNL1        0.0281
     55 H           1.5402    2.6208    2.3833 H       1  UNL1        0.0236
     56 H           0.2375    1.4100    2.4731 H       1  UNL1        0.0236
     57 H           1.8619    0.8925    2.8795 H       1  UNL1        0.0236
     58 H          -1.8709    1.3824   -2.6986 H       1  UNL1        0.0622
     59 H          -4.0925    2.3520   -2.5844 H       1  UNL1        0.0655
     60 H          -5.8592    3.5867    1.7285 H       1  UNL1        0.1166
     61 H          -6.5035    1.9112    1.5417 H       1  UNL1        0.1166
     62 H          -1.8940    0.9328    1.5148 H       1  UNL1        0.0658
@<TRIPOS>BOND
     1     1     2    1
     2     2     3    3
     3     4     3    1
     4     4     5    1
     5     4     6    1
     6     6     7    1
     7     7     8    1
     8     8     9    1
     9     9    10    1
    10    10    11    1
    11    11    12    1
    12    12    13    2
    13    13    14    1
    14    14    15    2
    15    14    16    1
    16    16    17    1
    17    17    18    1
    18    18    19    2
    19    19    20    1
    20    20    21    1
    21    21    22    1
    22    22    23    1
    23    20    24    1
    24    24    25   ar
    25    25    26   ar
    26    26    27   ar
    27    27    28    1
    28    28    29    1
    29    29    30    1
    30    30    31    1
    31    31    32   ar
    32    22     4    1
    33    32    24   ar
    34    22     8    1
    35    31    27   ar
    36    19     9    1
    37    18    12    1
    38     1    33    1
    39     1    34    1
    40     1    35    1
    41     5    36    1
    42     6    37    1
    43     6    38    1
    44     7    39    1
    45     7    40    1
    46     8    41    1
    47     9    42    1
    48    10    43    1
    49    10    44    1
    50    11    45    1
    51    11    46    1
    52    13    47    1
    53    16    48    1
    54    16    49    1
    55    17    50    1
    56    17    51    1
    57    20    52    1
    58    21    53    1
    59    21    54    1
    60    23    55    1
    61    23    56    1
    62    23    57    1
    63    25    58    1
    64    26    59    1
    65    29    60    1
    66    29    61    1
    67    32    62    1
