
     RDKit          3D

 62 67  0  0  0  0  0  0  0  0999 V2000
    4.3568    1.0232   -3.1763 C   0  0  0  0  0  0  0  0  0  0  0  0
    3.8874    1.3236   -1.8184 C   0  0  0  0  0  0  0  0  0  0  0  0
    3.4926    1.5722   -0.7182 C   0  0  0  0  0  0  0  0  0  0  0  0
    3.0155    1.8777    0.6205 C   0  0  2  0  0  0  0  0  0  0  0  0
    3.0069    3.2136    0.9402 O   0  0  0  0  0  0  0  0  0  0  0  0
    3.8273    1.0790    1.6533 C   0  0  0  0  0  0  0  0  0  0  0  0
    3.2197   -0.3286    1.5826 C   0  0  0  0  0  0  0  0  0  0  0  0
    2.0805   -0.2345    0.6272 C   0  0  1  0  0  0  0  0  0  0  0  0
    0.8478   -1.0290    1.0418 C   0  0  2  0  0  0  0  0  0  0  0  0
    1.2996   -2.3901    1.3309 C   0  0  0  0  0  0  0  0  0  0  0  0
    0.3179   -3.4999    1.2771 C   0  0  0  0  0  0  0  0  0  0  0  0
   -0.7138   -3.1440    0.2719 C   0  0  0  0  0  0  0  0  0  0  0  0
   -1.5277   -4.1630    0.0403 C   0  0  0  0  0  0  0  0  0  0  0  0
   -2.6129   -3.9549   -0.9459 C   0  0  0  0  0  0  0  0  0  0  0  0
   -3.7396   -4.5007   -0.8289 O   0  0  0  0  0  0  0  0  0  0  0  0
   -2.2951   -3.0577   -2.0920 C   0  0  0  0  0  0  0  0  0  0  0  0
   -1.8958   -1.7058   -1.5071 C   0  0  0  0  0  0  0  0  0  0  0  0
   -0.9037   -1.8648   -0.4298 C   0  0  0  0  0  0  0  0  0  0  0  0
   -0.1475   -0.8623   -0.0384 C   0  0  0  0  0  0  0  0  0  0  0  0
   -0.2795    0.4543   -0.6606 C   0  0  2  0  0  0  0  0  0  0  0  0
    0.6792    1.5094   -0.2647 C   0  0  0  0  0  0  0  0  0  0  0  0
    1.6634    1.2071    0.7913 C   0  0  2  0  0  0  0  0  0  0  0  0
    1.2718    1.5415    2.1969 C   0  0  0  0  0  0  0  0  0  0  0  0
   -1.6437    1.0525   -0.5859 C   0  0  0  0  0  0  0  0  0  0  0  0
   -2.3526    1.4884   -1.7138 C   0  0  0  0  0  0  0  0  0  0  0  0
   -3.6134    2.0409   -1.6695 C   0  0  0  0  0  0  0  0  0  0  0  0
   -4.2322    2.1830   -0.4587 C   0  0  0  0  0  0  0  0  0  0  0  0
   -5.4784    2.6982   -0.1307 O   0  0  0  0  0  0  0  0  0  0  0  0
   -5.6549    2.5986    1.2700 C   0  0  0  0  0  0  0  0  0  0  0  0
   -4.4450    2.0386    1.7360 O   0  0  0  0  0  0  0  0  0  0  0  0
   -3.5941    1.7768    0.6835 C   0  0  0  0  0  0  0  0  0  0  0  0
   -2.3326    1.2311    0.5729 C   0  0  0  0  0  0  0  0  0  0  0  0
    5.3361    1.4946   -3.4108 H   0  0  0  0  0  0  0  0  0  0  0  0
    4.5336   -0.0707   -3.3131 H   0  0  0  0  0  0  0  0  0  0  0  0
    3.6355    1.4351   -3.9072 H   0  0  0  0  0  0  0  0  0  0  0  0
    3.7782    3.6231    0.4438 H   0  0  0  0  0  0  0  0  0  0  0  0
    3.7888    1.5140    2.6506 H   0  0  0  0  0  0  0  0  0  0  0  0
    4.8686    1.1018    1.2910 H   0  0  0  0  0  0  0  0  0  0  0  0
    3.0043   -0.7569    2.5617 H   0  0  0  0  0  0  0  0  0  0  0  0
    4.0062   -0.9653    1.0780 H   0  0  0  0  0  0  0  0  0  0  0  0
    2.3425   -0.4398   -0.4126 H   0  0  0  0  0  0  0  0  0  0  0  0
    0.4471   -0.5485    1.9512 H   0  0  0  0  0  0  0  0  0  0  0  0
    2.1607   -2.7039    0.6678 H   0  0  0  0  0  0  0  0  0  0  0  0
    1.7652   -2.4435    2.3591 H   0  0  0  0  0  0  0  0  0  0  0  0
    0.7935   -4.4735    0.9754 H   0  0  0  0  0  0  0  0  0  0  0  0
   -0.1621   -3.6435    2.2682 H   0  0  0  0  0  0  0  0  0  0  0  0
   -1.4830   -5.1491    0.5062 H   0  0  0  0  0  0  0  0  0  0  0  0
   -1.4869   -3.4948   -2.7139 H   0  0  0  0  0  0  0  0  0  0  0  0
   -3.2336   -2.9214   -2.6666 H   0  0  0  0  0  0  0  0  0  0  0  0
   -1.4837   -1.1644   -2.3877 H   0  0  0  0  0  0  0  0  0  0  0  0
   -2.8632   -1.3023   -1.1429 H   0  0  0  0  0  0  0  0  0  0  0  0
   -0.1315    0.2966   -1.7740 H   0  0  0  0  0  0  0  0  0  0  0  0
    0.1633    2.4678    0.0531 H   0  0  0  0  0  0  0  0  0  0  0  0
    1.2973    1.8815   -1.1408 H   0  0  0  0  0  0  0  0  0  0  0  0
    1.5402    2.6208    2.3833 H   0  0  0  0  0  0  0  0  0  0  0  0
    0.2375    1.4100    2.4731 H   0  0  0  0  0  0  0  0  0  0  0  0
    1.8619    0.8925    2.8795 H   0  0  0  0  0  0  0  0  0  0  0  0
   -1.8709    1.3824   -2.6986 H   0  0  0  0  0  0  0  0  0  0  0  0
   -4.0925    2.3520   -2.5844 H   0  0  0  0  0  0  0  0  0  0  0  0
   -5.8592    3.5867    1.7285 H   0  0  0  0  0  0  0  0  0  0  0  0
   -6.5035    1.9112    1.5417 H   0  0  0  0  0  0  0  0  0  0  0  0
   -1.8940    0.9328    1.5148 H   0  0  0  0  0  0  0  0  0  0  0  0
  1  2  1  0
  2  3  3  0
  4  3  1  6
  4  5  1  0
  4  6  1  0
  6  7  1  0
  7  8  1  0
  8  9  1  0
  9 10  1  0
 10 11  1  0
 11 12  1  0
 12 13  2  0
 13 14  1  0
 14 15  2  0
 14 16  1  0
 16 17  1  0
 17 18  1  0
 18 19  2  0
 19 20  1  0
 20 21  1  0
 21 22  1  0
 22 23  1  1
 20 24  1  0
 24 25  2  0
 25 26  1  0
 26 27  2  0
 27 28  1  0
 28 29  1  0
 29 30  1  0
 30 31  1  0
 31 32  2  0
 22  4  1  0
 32 24  1  0
 22  8  1  0
 31 27  1  0
 19  9  1  0
 18 12  1  0
  1 33  1  0
  1 34  1  0
  1 35  1  0
  5 36  1  0
  6 37  1  0
  6 38  1  0
  7 39  1  0
  7 40  1  0
  8 41  1  6
  9 42  1  1
 10 43  1  0
 10 44  1  0
 11 45  1  0
 11 46  1  0
 13 47  1  0
 16 48  1  0
 16 49  1  0
 17 50  1  0
 17 51  1  0
 20 52  1  6
 21 53  1  0
 21 54  1  0
 23 55  1  0
 23 56  1  0
 23 57  1  0
 25 58  1  0
 26 59  1  0
 29 60  1  0
 29 61  1  0
 32 62  1  0
M  END
$$$$
