
     RDKit          3D

 59 65  0  0  0  0  0  0  0  0999 V2000
    4.1950   -3.8018    1.1948 C   0  0  0  0  0  0  0  0  0  0  0  0
    3.7702   -2.4721    0.7214 C   0  0  0  0  0  0  0  0  0  0  0  0
    2.4294   -2.1954    0.5984 C   0  0  0  0  0  0  0  0  0  0  0  0
    1.9532   -0.9804    0.1645 C   0  0  0  0  0  0  0  0  0  0  0  0
    0.5479   -0.6823    0.0239 N   0  0  0  0  0  0  0  0  0  0  0  0
   -0.5555   -1.5444    0.2431 C   0  0  0  0  0  0  0  0  0  0  0  0
   -0.5076   -2.7417    0.6297 O   0  0  0  0  0  0  0  0  0  0  0  0
   -1.8287   -0.8727   -0.0385 C   0  0  0  0  0  0  0  0  0  0  0  0
   -1.4694    0.3924   -0.4227 C   0  0  0  0  0  0  0  0  0  0  0  0
   -2.6467    1.0525   -0.7101 C   0  0  0  0  0  0  0  0  0  0  0  0
   -2.7935    2.4569   -1.1714 C   0  0  0  0  0  0  0  0  0  0  0  0
   -2.7799    2.7708   -2.6222 C   0  0  0  0  0  0  0  0  0  0  0  0
   -4.0819    2.7446   -1.8909 C   0  0  0  0  0  0  0  0  0  0  0  0
   -3.6556    0.1989   -0.4989 N   0  0  0  0  0  0  0  0  0  0  0  0
   -3.1702   -0.9696   -0.0917 N   0  0  0  0  0  0  0  0  0  0  0  0
   -3.8725   -2.1530    0.2456 C   0  0  0  0  0  0  0  0  0  0  0  0
   -4.1789   -2.5731    1.5213 C   0  0  0  0  0  0  0  0  0  0  0  0
   -4.8590   -3.7600    1.3720 C   0  0  0  0  0  0  0  0  0  0  0  0
   -4.9377   -4.0088    0.0518 N   0  0  0  0  0  0  0  0  0  0  0  0
   -4.3459   -3.0464   -0.6418 N   0  0  0  0  0  0  0  0  0  0  0  0
   -4.2105   -2.9362   -2.0911 C   0  0  0  0  0  0  0  0  0  0  0  0
   -0.0154    0.5895   -0.3771 C   0  0  0  0  0  0  0  0  0  0  0  0
    0.3226    1.7026    0.5495 C   0  0  0  0  0  0  0  0  0  0  0  0
    0.3198    1.5513    1.9186 C   0  0  0  0  0  0  0  0  0  0  0  0
    0.6256    2.6141    2.7429 C   0  0  0  0  0  0  0  0  0  0  0  0
    0.9445    3.8616    2.2517 C   0  0  0  0  0  0  0  0  0  0  0  0
    1.3321    5.2072    3.3164 Cl  0  0  0  0  0  0  0  0  0  0  0  0
    0.9444    4.0025    0.8815 C   0  0  0  0  0  0  0  0  0  0  0  0
    0.6404    2.9469    0.0498 C   0  0  0  0  0  0  0  0  0  0  0  0
    2.8914   -0.0315   -0.1488 C   0  0  0  0  0  0  0  0  0  0  0  0
    4.2289   -0.2731   -0.0381 N   0  0  0  0  0  0  0  0  0  0  0  0
    5.2851    0.5146   -0.2925 C   0  0  0  0  0  0  0  0  0  0  0  0
    5.2367    1.9153   -0.7829 C   0  0  0  0  0  0  0  0  0  0  0  0
    6.3685   -0.2273   -0.0120 N   0  0  0  0  0  0  0  0  0  0  0  0
    5.9985   -1.4300    0.4010 N   0  0  0  0  0  0  0  0  0  0  0  0
    4.6653   -1.4843    0.3937 C   0  0  0  0  0  0  0  0  0  0  0  0
    5.2818   -3.8695    1.3628 H   0  0  0  0  0  0  0  0  0  0  0  0
    3.7280   -4.0398    2.1953 H   0  0  0  0  0  0  0  0  0  0  0  0
    3.8822   -4.6180    0.4805 H   0  0  0  0  0  0  0  0  0  0  0  0
    1.7319   -2.9758    0.8581 H   0  0  0  0  0  0  0  0  0  0  0  0
   -2.4051    3.2596   -0.4934 H   0  0  0  0  0  0  0  0  0  0  0  0
   -2.3381    3.7642   -2.9267 H   0  0  0  0  0  0  0  0  0  0  0  0
   -2.6500    2.0072   -3.3958 H   0  0  0  0  0  0  0  0  0  0  0  0
   -4.5669    3.7163   -1.6631 H   0  0  0  0  0  0  0  0  0  0  0  0
   -4.8088    1.9323   -2.0904 H   0  0  0  0  0  0  0  0  0  0  0  0
   -3.9398   -2.0808    2.4477 H   0  0  0  0  0  0  0  0  0  0  0  0
   -5.2752   -4.4147    2.1190 H   0  0  0  0  0  0  0  0  0  0  0  0
   -3.2496   -3.3950   -2.4198 H   0  0  0  0  0  0  0  0  0  0  0  0
   -5.0378   -3.5440   -2.5503 H   0  0  0  0  0  0  0  0  0  0  0  0
   -4.3562   -1.9117   -2.4453 H   0  0  0  0  0  0  0  0  0  0  0  0
    0.4194    0.8345   -1.3630 H   0  0  0  0  0  0  0  0  0  0  0  0
    0.0737    0.5827    2.3529 H   0  0  0  0  0  0  0  0  0  0  0  0
    0.6253    2.5002    3.8379 H   0  0  0  0  0  0  0  0  0  0  0  0
    1.1916    4.9720    0.4722 H   0  0  0  0  0  0  0  0  0  0  0  0
    0.6677    3.1586   -1.0104 H   0  0  0  0  0  0  0  0  0  0  0  0
    2.5652    0.9208   -0.4931 H   0  0  0  0  0  0  0  0  0  0  0  0
    4.2100    2.3247   -0.6340 H   0  0  0  0  0  0  0  0  0  0  0  0
    5.9275    2.5825   -0.2289 H   0  0  0  0  0  0  0  0  0  0  0  0
    5.5328    1.9562   -1.8534 H   0  0  0  0  0  0  0  0  0  0  0  0
  1  2  1  0
  2  3  2  0
  3  4  1  0
  4  5  1  0
  5  6  1  0
  6  7  2  0
  6  8  1  0
  8  9  2  0
  9 10  1  0
 10 11  1  0
 11 12  1  0
 12 13  1  0
 10 14  2  0
 14 15  1  0
 15 16  1  0
 16 17  2  0
 17 18  1  0
 18 19  2  0
 19 20  1  0
 20 21  1  0
  9 22  1  0
 22 23  1  0
 23 24  2  0
 24 25  1  0
 25 26  2  0
 26 27  1  0
 26 28  1  0
 28 29  2  0
  4 30  2  0
 30 31  1  0
 31 32  1  0
 32 33  1  0
 32 34  2  0
 34 35  1  0
 35 36  2  0
 36  2  1  0
 22  5  1  0
 29 23  1  0
 36 31  1  0
 15  8  1  0
 20 16  1  0
 13 11  1  0
  1 37  1  0
  1 38  1  0
  1 39  1  0
  3 40  1  0
 11 41  1  0
 12 42  1  0
 12 43  1  0
 13 44  1  0
 13 45  1  0
 17 46  1  0
 18 47  1  0
 21 48  1  0
 21 49  1  0
 21 50  1  0
 22 51  1  0
 24 52  1  0
 25 53  1  0
 28 54  1  0
 29 55  1  0
 30 56  1  0
 33 57  1  0
 33 58  1  0
 33 59  1  0
M  END
$$$$
