@<TRIPOS>MOLECULE
*****
 59 65 0 0 0
SMALL
GASTEIGER

@<TRIPOS>ATOM
      1 C           4.1950   -3.8018    1.1948 C.3     1  UNL1       -0.0361
      2 C           3.7702   -2.4721    0.7214 C.ar    1  UNL1       -0.0041
      3 C           2.4294   -2.1954    0.5984 C.ar    1  UNL1       -0.0324
      4 C           1.9532   -0.9804    0.1645 C.ar    1  UNL1        0.0545
      5 N           0.5479   -0.6823    0.0239 N.am    1  UNL1       -0.2531
      6 C          -0.5555   -1.5444    0.2431 C.2     1  UNL1        0.2705
      7 O          -0.5076   -2.7417    0.6297 O.2     1  UNL1       -0.2679
      8 C          -1.8287   -0.8727   -0.0385 C.ar    1  UNL1        0.1367
      9 C          -1.4694    0.3924   -0.4227 C.ar    1  UNL1        0.0315
     10 C          -2.6467    1.0525   -0.7101 C.ar    1  UNL1        0.0726
     11 C          -2.7935    2.4569   -1.1714 C.3     1  UNL1        0.0035
     12 C          -2.7799    2.7708   -2.6222 C.3     1  UNL1       -0.0441
     13 C          -4.0819    2.7446   -1.8909 C.3     1  UNL1       -0.0441
     14 N          -3.6556    0.1989   -0.4989 N.ar    1  UNL1       -0.1687
     15 N          -3.1702   -0.9696   -0.0917 N.ar    1  UNL1       -0.2092
     16 C          -3.8725   -2.1530    0.2456 C.ar    1  UNL1        0.1530
     17 C          -4.1789   -2.5731    1.5213 C.ar    1  UNL1        0.0020
     18 C          -4.8590   -3.7600    1.3720 C.ar    1  UNL1        0.0515
     19 N          -4.9377   -4.0088    0.0518 N.ar    1  UNL1       -0.1780
     20 N          -4.3459   -3.0464   -0.6418 N.ar    1  UNL1       -0.2500
     21 C          -4.2105   -2.9362   -2.0911 C.3     1  UNL1        0.0324
     22 C          -0.0154    0.5895   -0.3771 C.3     1  UNL1        0.0855
     23 C           0.3226    1.7026    0.5495 C.ar    1  UNL1       -0.0221
     24 C           0.3198    1.5513    1.9186 C.ar    1  UNL1       -0.0551
     25 C           0.6256    2.6141    2.7429 C.ar    1  UNL1       -0.0431
     26 C           0.9445    3.8616    2.2517 C.ar    1  UNL1        0.0410
     27 CL          1.3321    5.2072    3.3164 Cl      1  UNL1       -0.0835
     28 C           0.9444    4.0025    0.8815 C.ar    1  UNL1       -0.0431
     29 C           0.6404    2.9469    0.0498 C.ar    1  UNL1       -0.0551
     30 C           2.8914   -0.0315   -0.1488 C.ar    1  UNL1        0.0344
     31 N           4.2289   -0.2731   -0.0381 N.ar    1  UNL1       -0.2846
     32 C           5.2851    0.5146   -0.2925 C.ar    1  UNL1        0.1347
     33 C           5.2367    1.9153   -0.7829 C.3     1  UNL1       -0.0041
     34 N           6.3685   -0.2273   -0.0120 N.ar    1  UNL1       -0.1340
     35 N           5.9985   -1.4300    0.4010 N.ar    1  UNL1       -0.1292
     36 C           4.6653   -1.4843    0.3937 C.ar    1  UNL1        0.1641
     37 H           5.2818   -3.8695    1.3628 H       1  UNL1        0.0279
     38 H           3.7280   -4.0398    2.1953 H       1  UNL1        0.0279
     39 H           3.8822   -4.6180    0.4805 H       1  UNL1        0.0279
     40 H           1.7319   -2.9758    0.8581 H       1  UNL1        0.0640
     41 H          -2.4051    3.2596   -0.4934 H       1  UNL1        0.0365
     42 H          -2.3381    3.7642   -2.9267 H       1  UNL1        0.0272
     43 H          -2.6500    2.0072   -3.3958 H       1  UNL1        0.0272
     44 H          -4.5669    3.7163   -1.6631 H       1  UNL1        0.0272
     45 H          -4.8088    1.9323   -2.0904 H       1  UNL1        0.0272
     46 H          -3.9398   -2.0808    2.4477 H       1  UNL1        0.0670
     47 H          -5.2752   -4.4147    2.1190 H       1  UNL1        0.0848
     48 H          -3.2496   -3.3950   -2.4198 H       1  UNL1        0.0473
     49 H          -5.0378   -3.5440   -2.5503 H       1  UNL1        0.0473
     50 H          -4.3562   -1.9117   -2.4453 H       1  UNL1        0.0473
     51 H           0.4194    0.8345   -1.3630 H       1  UNL1        0.0606
     52 H           0.0737    0.5827    2.3529 H       1  UNL1        0.0621
     53 H           0.6253    2.5002    3.8379 H       1  UNL1        0.0632
     54 H           1.1916    4.9720    0.4722 H       1  UNL1        0.0632
     55 H           0.6677    3.1586   -1.0104 H       1  UNL1        0.0621
     56 H           2.5652    0.9208   -0.4931 H       1  UNL1        0.0833
     57 H           4.2100    2.3247   -0.6340 H       1  UNL1        0.0308
     58 H           5.9275    2.5825   -0.2289 H       1  UNL1        0.0308
     59 H           5.5328    1.9562   -1.8534 H       1  UNL1        0.0308
@<TRIPOS>BOND
     1     1     2    1
     2     2     3   ar
     3     3     4   ar
     4     4     5    1
     5     5     6   am
     6     6     7    2
     7     6     8    1
     8     8     9   ar
     9     9    10   ar
    10    10    11    1
    11    11    12    1
    12    12    13    1
    13    10    14   ar
    14    14    15   ar
    15    15    16    1
    16    16    17   ar
    17    17    18   ar
    18    18    19   ar
    19    19    20   ar
    20    20    21    1
    21     9    22    1
    22    22    23    1
    23    23    24   ar
    24    24    25   ar
    25    25    26   ar
    26    26    27    1
    27    26    28   ar
    28    28    29   ar
    29     4    30   ar
    30    30    31   ar
    31    31    32   ar
    32    32    33    1
    33    32    34   ar
    34    34    35   ar
    35    35    36   ar
    36    36     2   ar
    37    22     5    1
    38    29    23   ar
    39    36    31   ar
    40    15     8   ar
    41    20    16   ar
    42    13    11    1
    43     1    37    1
    44     1    38    1
    45     1    39    1
    46     3    40    1
    47    11    41    1
    48    12    42    1
    49    12    43    1
    50    13    44    1
    51    13    45    1
    52    17    46    1
    53    18    47    1
    54    21    48    1
    55    21    49    1
    56    21    50    1
    57    22    51    1
    58    24    52    1
    59    25    53    1
    60    28    54    1
    61    29    55    1
    62    30    56    1
    63    33    57    1
    64    33    58    1
    65    33    59    1
