@<TRIPOS>MOLECULE
*****
 45 48 0 0 0
SMALL
GASTEIGER

@<TRIPOS>ATOM
      1 C           6.6911    1.5331    1.6903 C.3     1  UNL1        0.0152
      2 N           5.9546    1.8156    0.4737 N.ar    1  UNL1       -0.3114
      3 C           6.4063    2.7262   -0.4040 C.ar    1  UNL1        0.1202
      4 N           5.5032    2.7446   -1.4044 N.ar    1  UNL1       -0.1370
      5 N           4.5455    1.8791   -1.1395 N.ar    1  UNL1       -0.1224
      6 C           4.8109    1.2916    0.0267 C.ar    1  UNL1        0.1972
      7 S           3.9040    0.0427    0.9208 S.3     1  UNL1       -0.0302
      8 C           2.4229   -0.4300    0.0336 C.ar    1  UNL1        0.1052
      9 N           1.2503    0.1994    0.2278 N.ar    1  UNL1       -0.2343
     10 C           0.2065   -0.2198   -0.4742 C.ar    1  UNL1        0.1406
     11 C          -1.0858    0.4115   -0.3159 C.2     1  UNL1        0.2691
     12 O          -2.1207    0.0616   -0.9533 O.2     1  UNL1       -0.2681
     13 N          -1.2536    1.4941    0.5986 N.am    1  UNL1       -0.2594
     14 C          -2.4440    2.1975    0.8535 C.ar    1  UNL1        0.1648
     15 N          -3.0453    3.1508    0.4653 N.ar    1  UNL1       -0.2298
     16 C          -4.2091    3.5545    0.9600 C.ar    1  UNL1        0.0475
     17 C          -4.8226    4.7843    0.3416 C.3     1  UNL1       -0.0218
     18 C          -4.8337    2.8389    2.0316 C.ar    1  UNL1       -0.0001
     19 S          -3.5186    1.4845    2.2491 S.2     1  UNL1       -0.0602
     20 C           0.2951   -1.2559   -1.3719 C.ar    1  UNL1        0.0433
     21 S          -1.0739   -1.8708   -2.3508 S.3     1  UNL1       -0.0871
     22 C          -1.8965   -3.1673   -1.4300 C.ar    1  UNL1        0.0130
     23 C          -2.9852   -3.7917   -1.9879 C.ar    1  UNL1       -0.0453
     24 C          -3.6370   -4.8025   -1.2850 C.ar    1  UNL1       -0.0254
     25 C          -3.2187   -5.1992   -0.0342 C.ar    1  UNL1        0.1235
     26 F          -3.8490   -6.1922    0.6706 F       1  UNL1       -0.2055
     27 C          -2.1289   -4.5721    0.5209 C.ar    1  UNL1       -0.0254
     28 C          -1.4856   -3.5703   -0.1796 C.ar    1  UNL1       -0.0453
     29 C           1.4963   -1.9040   -1.5738 C.ar    1  UNL1       -0.0433
     30 C           2.5919   -1.4821   -0.8530 C.ar    1  UNL1       -0.0283
     31 H           7.7005    1.1136    1.4617 H       1  UNL1        0.0457
     32 H           6.7511    2.4036    2.3725 H       1  UNL1        0.0457
     33 H           6.1012    0.7556    2.2556 H       1  UNL1        0.0457
     34 H           7.2919    3.3595   -0.3989 H       1  UNL1        0.1048
     35 H          -0.4644    1.8622    1.1752 H       1  UNL1        0.1571
     36 H          -4.1215    5.6506    0.3731 H       1  UNL1        0.0293
     37 H          -5.7531    5.0500    0.8597 H       1  UNL1        0.0293
     38 H          -5.1192    4.5102   -0.7035 H       1  UNL1        0.0293
     39 H          -5.7055    3.0895    2.4469 H       1  UNL1        0.0712
     40 H          -3.3542   -3.5221   -2.9604 H       1  UNL1        0.0629
     41 H          -4.5036   -5.3242   -1.6891 H       1  UNL1        0.0646
     42 H          -1.8032   -4.8828    1.4976 H       1  UNL1        0.0646
     43 H          -0.6442   -3.1053    0.2801 H       1  UNL1        0.0629
     44 H           1.6165   -2.7289   -2.2729 H       1  UNL1        0.0630
     45 H           3.5377   -1.9837   -1.0043 H       1  UNL1        0.0644
@<TRIPOS>BOND
     1     1     2    1
     2     2     3   ar
     3     3     4   ar
     4     4     5   ar
     5     5     6   ar
     6     6     7    1
     7     7     8    1
     8     8     9   ar
     9     9    10   ar
    10    10    11    1
    11    11    12    2
    12    11    13   am
    13    13    14    1
    14    14    15   ar
    15    15    16   ar
    16    16    17    1
    17    16    18   ar
    18    18    19   ar
    19    10    20   ar
    20    20    21    1
    21    21    22    1
    22    22    23   ar
    23    23    24   ar
    24    24    25   ar
    25    25    26    1
    26    25    27   ar
    27    27    28   ar
    28    20    29   ar
    29    29    30   ar
    30     6     2   ar
    31    30     8   ar
    32    19    14   ar
    33    28    22   ar
    34     1    31    1
    35     1    32    1
    36     1    33    1
    37     3    34    1
    38    13    35    1
    39    17    36    1
    40    17    37    1
    41    17    38    1
    42    18    39    1
    43    23    40    1
    44    24    41    1
    45    27    42    1
    46    28    43    1
    47    29    44    1
    48    30    45    1
