@<TRIPOS>MOLECULE
*****
 67 69 0 0 0
SMALL
GASTEIGER

@<TRIPOS>ATOM
      1 C          -0.0571    1.5928   -0.6122 C.3     1  UNL1       -0.0494
      2 C           0.4996    0.1958   -0.7044 C.3     1  UNL1        0.0089
      3 C          -0.4533   -0.7428   -1.3054 C.3     1  UNL1       -0.0124
      4 C          -1.7734   -0.9491   -0.7135 C.ar    1  UNL1       -0.0448
      5 C          -2.7695   -0.0923   -1.2152 C.ar    1  UNL1       -0.0535
      6 C          -4.0952   -0.1401   -0.8468 C.ar    1  UNL1       -0.0239
      7 C          -4.4643   -1.0879    0.0635 C.ar    1  UNL1        0.0452
      8 N          -5.8538   -0.9744    0.2141 N.pl3   1  UNL1       -0.3287
      9 C          -6.8509   -1.8669    0.7331 C.3     1  UNL1        0.0143
     10 C          -7.5966   -1.3810    1.9245 C.3     1  UNL1       -0.0139
     11 C          -6.7372   -1.1075    3.1004 C.3     1  UNL1        0.0456
     12 O          -5.7383   -0.1582    2.8729 O.3     1  UNL1       -0.3950
     13 C          -6.3358    0.2886   -0.3394 C.3     1  UNL1        0.0162
     14 C          -5.2458    0.6914   -1.2938 C.3     1  UNL1       -0.0101
     15 C          -3.5195   -1.9347    0.5675 C.ar    1  UNL1        0.0580
     16 C          -2.1928   -1.8830    0.2010 C.ar    1  UNL1       -0.0446
     17 C          -3.8851   -2.9365    1.5220 C.2     1  UNL1        0.2433
     18 N          -2.9050   -3.8694    1.9545 N.am    1  UNL1       -0.3253
     19 O          -4.6029   -3.5716    2.2925 O.2     1  UNL1       -0.2704
     20 N           1.2380   -0.1911    0.4657 N.3     1  UNL1       -0.3100
     21 C           2.6751   -0.1132    0.1887 C.3     1  UNL1        0.0304
     22 C           3.1827    1.2762   -0.0415 C.3     1  UNL1        0.1022
     23 O           4.5118    1.3579   -0.3346 O.3     1  UNL1       -0.4870
     24 C           5.6664    1.0669    0.3184 C.ar    1  UNL1        0.1620
     25 C           5.8612    0.5884    1.6043 C.ar    1  UNL1       -0.0163
     26 C           7.1508    0.3387    2.0958 C.ar    1  UNL1       -0.0581
     27 C           8.2517    0.5685    1.2976 C.ar    1  UNL1       -0.0581
     28 C           8.0540    1.0431    0.0206 C.ar    1  UNL1       -0.0163
     29 C           6.7924    1.3016   -0.4953 C.ar    1  UNL1        0.1623
     30 O           6.6901    1.7496   -1.7051 O.3     1  UNL1       -0.4794
     31 C           7.1940    2.1338   -2.8780 C.3     1  UNL1        0.1843
     32 C           8.1663    3.2933   -2.9069 C.3     1  UNL1        0.4236
     33 F           7.6285    4.4478   -2.4096 F       1  UNL1       -0.1671
     34 F           9.3754    3.0564   -2.3322 F       1  UNL1       -0.1671
     35 F           8.4057    3.5602   -4.2740 F       1  UNL1       -0.1671
     36 H           0.4440    2.1623    0.2305 H       1  UNL1        0.0245
     37 H          -1.1322    1.5563   -0.2804 H       1  UNL1        0.0245
     38 H           0.0523    2.1873   -1.5386 H       1  UNL1        0.0245
     39 H           1.3535    0.2630   -1.5246 H       1  UNL1        0.0461
     40 H          -0.6016   -0.4909   -2.4017 H       1  UNL1        0.0328
     41 H           0.0544   -1.7637   -1.3941 H       1  UNL1        0.0328
     42 H          -2.5235    0.6710   -1.9552 H       1  UNL1        0.0624
     43 H          -7.6578   -1.9552   -0.1127 H       1  UNL1        0.0464
     44 H          -6.4909   -2.8978    0.7944 H       1  UNL1        0.0464
     45 H          -8.3559   -2.1421    2.2253 H       1  UNL1        0.0302
     46 H          -8.2185   -0.4771    1.6922 H       1  UNL1        0.0302
     47 H          -6.2780   -1.9966    3.5345 H       1  UNL1        0.0557
     48 H          -7.4479   -0.7015    3.9112 H       1  UNL1        0.0557
     49 H          -6.0713    0.7343    3.1652 H       1  UNL1        0.2094
     50 H          -7.2554    0.1318   -0.9510 H       1  UNL1        0.0467
     51 H          -6.4870    1.0576    0.4427 H       1  UNL1        0.0467
     52 H          -5.5279    0.4614   -2.3450 H       1  UNL1        0.0329
     53 H          -4.9832    1.7795   -1.1817 H       1  UNL1        0.0329
     54 H          -1.4340   -2.5204    0.5653 H       1  UNL1        0.0628
     55 H          -2.6019   -4.8782    1.8905 H       1  UNL1        0.1453
     56 H          -2.1386   -3.5146    2.5778 H       1  UNL1        0.1453
     57 H           1.0665   -1.2276    0.6302 H       1  UNL1        0.1223
     58 H           2.9268   -0.7331   -0.7163 H       1  UNL1        0.0457
     59 H           3.2284   -0.5720    1.0269 H       1  UNL1        0.0457
     60 H           3.0096    1.8172    0.9387 H       1  UNL1        0.0709
     61 H           2.5349    1.8486   -0.7550 H       1  UNL1        0.0709
     62 H           4.9686    0.4366    2.1898 H       1  UNL1        0.0655
     63 H           7.1143   -0.0354    3.1167 H       1  UNL1        0.0619
     64 H           9.1280    0.3185    1.8629 H       1  UNL1        0.0619
     65 H           9.0192    1.1673   -0.4673 H       1  UNL1        0.0655
     66 H           6.3457    2.4475   -3.5703 H       1  UNL1        0.0788
     67 H           7.6921    1.3148   -3.4803 H       1  UNL1        0.0788
@<TRIPOS>BOND
     1     1     2    1
     2     2     3    1
     3     3     4    1
     4     4     5   ar
     5     5     6   ar
     6     6     7   ar
     7     7     8    1
     8     8     9    1
     9     9    10    1
    10    10    11    1
    11    11    12    1
    12     8    13    1
    13    13    14    1
    14     7    15   ar
    15    15    16   ar
    16    15    17    1
    17    17    18   am
    18    17    19    2
    19     2    20    1
    20    20    21    1
    21    21    22    1
    22    22    23    1
    23    23    24    1
    24    24    25   ar
    25    25    26   ar
    26    26    27   ar
    27    27    28   ar
    28    28    29   ar
    29    29    30    1
    30    30    31    1
    31    31    32    1
    32    32    33    1
    33    32    34    1
    34    32    35    1
    35    16     4   ar
    36    29    24   ar
    37    14     6    1
    38     1    36    1
    39     1    37    1
    40     1    38    1
    41     2    39    1
    42     3    40    1
    43     3    41    1
    44     5    42    1
    45     9    43    1
    46     9    44    1
    47    10    45    1
    48    10    46    1
    49    11    47    1
    50    11    48    1
    51    12    49    1
    52    13    50    1
    53    13    51    1
    54    14    52    1
    55    14    53    1
    56    16    54    1
    57    18    55    1
    58    18    56    1
    59    20    57    1
    60    21    58    1
    61    21    59    1
    62    22    60    1
    63    22    61    1
    64    25    62    1
    65    26    63    1
    66    27    64    1
    67    28    65    1
    68    31    66    1
    69    31    67    1
