
     RDKit          3D

 65 68  0  0  0  0  0  0  0  0999 V2000
   -6.0513   -1.4933   -3.4511 C   0  0  0  0  0  0  0  0  0  0  0  0
   -5.9702   -0.4917   -2.6029 O   0  0  0  0  0  0  0  0  0  0  0  0
   -5.8283    0.4143   -1.7237 C   0  0  0  0  0  0  0  0  0  0  0  0
   -5.0514    0.2429   -0.5721 C   0  0  0  0  0  0  0  0  0  0  0  0
   -4.9299    1.2516    0.3483 C   0  0  0  0  0  0  0  0  0  0  0  0
   -4.1720    1.1760    1.5370 N   0  0  0  0  0  0  0  0  0  0  0  0
   -3.3636    0.2519    2.1940 C   0  0  0  0  0  0  0  0  0  0  0  0
   -3.8714   -0.6638    3.0949 C   0  0  0  0  0  0  0  0  0  0  0  0
   -3.0816   -1.5722    3.7515 C   0  0  0  0  0  0  0  0  0  0  0  0
   -1.7540   -1.5849    3.5194 N   0  0  0  0  0  0  0  0  0  0  0  0
   -1.2239   -0.7085    2.6492 C   0  0  0  0  0  0  0  0  0  0  0  0
    0.1268   -0.7232    2.4174 C   0  0  0  0  0  0  0  0  0  0  0  0
    0.7922    0.1137    1.5588 C   0  0  0  0  0  0  0  0  0  0  0  0
    2.0971    0.2514    1.1994 O   0  0  0  0  0  0  0  0  0  0  0  0
    3.2010   -0.4596    1.6109 C   0  0  0  0  0  0  0  0  0  0  0  0
    3.1984   -1.9299    1.2968 C   0  0  0  0  0  0  0  0  0  0  0  0
    3.1010   -2.1298   -0.2057 C   0  0  0  0  0  0  0  0  0  0  0  0
    4.2024   -1.5133   -0.8158 N   0  0  0  0  0  0  0  0  0  0  0  0
    5.4976   -2.0462   -0.6413 C   0  0  0  0  0  0  0  0  0  0  0  0
    6.4470   -0.8722   -0.6737 C   0  0  0  0  0  0  0  0  0  0  0  0
    6.2296    0.0483   -1.7232 N   0  0  0  0  0  0  0  0  0  0  0  0
    6.6631    1.3597   -1.2668 C   0  0  0  0  0  0  0  0  0  0  0  0
    4.9292    0.1803   -2.2665 C   0  0  0  0  0  0  0  0  0  0  0  0
    4.0669   -1.0493   -2.1542 C   0  0  0  0  0  0  0  0  0  0  0  0
   -0.0010    1.0485    0.8793 C   0  0  0  0  0  0  0  0  0  0  0  0
    0.4983    1.9912   -0.0416 O   0  0  0  0  0  0  0  0  0  0  0  0
   -0.4225    2.8697   -0.6524 C   0  0  0  0  0  0  0  0  0  0  0  0
   -1.3838    1.0866    1.0968 C   0  0  0  0  0  0  0  0  0  0  0  0
   -2.0010    0.2109    1.9803 C   0  0  0  0  0  0  0  0  0  0  0  0
   -5.2780   -0.6274    3.3230 C   0  0  0  0  0  0  0  0  0  0  0  0
   -6.4232   -0.5919    3.4975 N   0  0  0  0  0  0  0  0  0  0  0  0
   -5.5837    2.4322    0.1194 C   0  0  0  0  0  0  0  0  0  0  0  0
   -5.4732    3.7588    1.2489 Cl  0  0  0  0  0  0  0  0  0  0  0  0
   -6.3621    2.6809   -0.9799 C   0  0  0  0  0  0  0  0  0  0  0  0
   -6.4677    1.6308   -1.9034 C   0  0  0  0  0  0  0  0  0  0  0  0
   -7.4543    1.8894   -3.3365 Cl  0  0  0  0  0  0  0  0  0  0  0  0
   -6.0239   -2.5222   -2.9724 H   0  0  0  0  0  0  0  0  0  0  0  0
   -5.2130   -1.5634   -4.2123 H   0  0  0  0  0  0  0  0  0  0  0  0
   -7.0023   -1.5536   -4.0704 H   0  0  0  0  0  0  0  0  0  0  0  0
   -4.5331   -0.6833   -0.3820 H   0  0  0  0  0  0  0  0  0  0  0  0
   -4.0957    1.9512    2.2249 H   0  0  0  0  0  0  0  0  0  0  0  0
   -3.4971   -2.2736    4.4466 H   0  0  0  0  0  0  0  0  0  0  0  0
    0.7687   -1.4188    2.9278 H   0  0  0  0  0  0  0  0  0  0  0  0
    4.1317    0.0230    1.2060 H   0  0  0  0  0  0  0  0  0  0  0  0
    3.3330   -0.3598    2.7294 H   0  0  0  0  0  0  0  0  0  0  0  0
    4.2247   -2.2934    1.6139 H   0  0  0  0  0  0  0  0  0  0  0  0
    2.4927   -2.5391    1.8513 H   0  0  0  0  0  0  0  0  0  0  0  0
    2.1277   -1.7339   -0.5857 H   0  0  0  0  0  0  0  0  0  0  0  0
    3.0275   -3.2342   -0.3816 H   0  0  0  0  0  0  0  0  0  0  0  0
    5.6923   -2.5791    0.3012 H   0  0  0  0  0  0  0  0  0  0  0  0
    5.7747   -2.7046   -1.4982 H   0  0  0  0  0  0  0  0  0  0  0  0
    6.4193   -0.3998    0.3292 H   0  0  0  0  0  0  0  0  0  0  0  0
    7.4966   -1.2691   -0.7870 H   0  0  0  0  0  0  0  0  0  0  0  0
    5.7485    1.8211   -0.8335 H   0  0  0  0  0  0  0  0  0  0  0  0
    6.9877    2.0265   -2.0839 H   0  0  0  0  0  0  0  0  0  0  0  0
    7.3931    1.2775   -0.4378 H   0  0  0  0  0  0  0  0  0  0  0  0
    4.3559    1.0083   -1.7876 H   0  0  0  0  0  0  0  0  0  0  0  0
    4.9925    0.4532   -3.3398 H   0  0  0  0  0  0  0  0  0  0  0  0
    4.4412   -1.7848   -2.8958 H   0  0  0  0  0  0  0  0  0  0  0  0
    3.0232   -0.7372   -2.3434 H   0  0  0  0  0  0  0  0  0  0  0  0
    0.0998    3.5603   -1.3343 H   0  0  0  0  0  0  0  0  0  0  0  0
   -1.1706    2.2205   -1.1797 H   0  0  0  0  0  0  0  0  0  0  0  0
   -0.9621    3.4819    0.1097 H   0  0  0  0  0  0  0  0  0  0  0  0
   -2.0584    1.7789    0.6093 H   0  0  0  0  0  0  0  0  0  0  0  0
   -6.8772    3.6154   -1.1562 H   0  0  0  0  0  0  0  0  0  0  0  0
  1  2  1  0
  2  3  1  0
  3  4  2  0
  4  5  1  0
  5  6  1  0
  6  7  1  0
  7  8  2  0
  8  9  1  0
  9 10  2  0
 10 11  1  0
 11 12  2  0
 12 13  1  0
 13 14  1  0
 14 15  1  0
 15 16  1  0
 16 17  1  0
 17 18  1  0
 18 19  1  0
 19 20  1  0
 20 21  1  0
 21 22  1  0
 21 23  1  0
 23 24  1  0
 13 25  2  0
 25 26  1  0
 26 27  1  0
 25 28  1  0
 28 29  2  0
  8 30  1  0
 30 31  3  0
  5 32  2  0
 32 33  1  0
 32 34  1  0
 34 35  2  0
 35 36  1  0
 35  3  1  0
 29  7  1  0
 29 11  1  0
 24 18  1  0
  1 37  1  0
  1 38  1  0
  1 39  1  0
  4 40  1  0
  6 41  1  0
  9 42  1  0
 12 43  1  0
 15 44  1  0
 15 45  1  0
 16 46  1  0
 16 47  1  0
 17 48  1  0
 17 49  1  0
 19 50  1  0
 19 51  1  0
 20 52  1  0
 20 53  1  0
 22 54  1  0
 22 55  1  0
 22 56  1  0
 23 57  1  0
 23 58  1  0
 24 59  1  0
 24 60  1  0
 27 61  1  0
 27 62  1  0
 27 63  1  0
 28 64  1  0
 34 65  1  0
M  END
$$$$
