@<TRIPOS>MOLECULE
*****
 68 72 0 0 0
SMALL
GASTEIGER

@<TRIPOS>ATOM
      1 O           4.1226   -1.4213   -3.0862 O.2     1  UNL1       -0.2706
      2 C           4.2204   -0.5572   -2.0734 C.2     1  UNL1        0.2394
      3 C           5.4813   -0.6358   -1.4251 C.2     1  UNL1        0.0009
      4 C           5.8862    0.0175   -0.3925 C.2     1  UNL1       -0.0495
      5 C           7.2258   -0.1635    0.1712 C.ar    1  UNL1       -0.0195
      6 C           8.1227   -1.0296   -0.3592 C.ar    1  UNL1       -0.0191
      7 C           9.4070   -1.1906    0.1989 C.ar    1  UNL1        0.1267
      8 F          10.2727   -2.0725   -0.3702 F       1  UNL1       -0.2054
      9 C           9.7781   -0.4651    1.3030 C.ar    1  UNL1        0.0088
     10 C           8.8467    0.4041    1.8168 C.ar    1  UNL1        0.1267
     11 F           9.1616    1.1538    2.9177 F       1  UNL1       -0.2054
     12 C           7.6038    0.5722    1.2916 C.ar    1  UNL1       -0.0191
     13 N           3.0971    0.1906   -1.8977 N.am    1  UNL1       -0.2980
     14 C           2.8681    1.2859   -1.0094 C.3     1  UNL1        0.0153
     15 C           2.1804    0.6422    0.1628 C.3     1  UNL1       -0.0328
     16 C           0.8675   -0.0358   -0.2673 C.3     1  UNL1       -0.0204
     17 C          -0.2555    0.5856    0.5339 C.3     1  UNL1        0.0364
     18 C          -0.4622    2.0321    0.3283 C.3     1  UNL1        0.0600
     19 O          -1.2711    2.3953   -0.7225 O.3     1  UNL1       -0.3935
     20 N          -1.3838   -0.2341    0.7915 N.3     1  UNL1       -0.2969
     21 C          -2.3440    0.3509    1.6977 C.3     1  UNL1       -0.0002
     22 C          -3.6393    0.6917    1.0515 C.3     1  UNL1       -0.0332
     23 C          -4.3005   -0.6299    0.6970 C.3     1  UNL1       -0.0115
     24 C          -5.5632   -0.4144   -0.0179 C.ar    1  UNL1       -0.0176
     25 C          -5.7985   -0.3174   -1.3672 C.ar    1  UNL1        0.0076
     26 N          -7.1145   -0.1185   -1.5872 N.ar    1  UNL1       -0.3456
     27 C          -7.7549   -0.0833   -0.3832 C.ar    1  UNL1        0.1383
     28 N          -9.0481    0.0865   -0.0610 N.ar    1  UNL1       -0.2375
     29 C          -9.4823    0.0886    1.2126 C.ar    1  UNL1        0.0299
     30 C          -8.5665   -0.0897    2.2157 C.ar    1  UNL1       -0.0429
     31 C          -7.2425   -0.2646    1.9062 C.ar    1  UNL1       -0.0494
     32 C          -6.7882   -0.2675    0.5897 C.ar    1  UNL1        0.0221
     33 C          -3.3358   -1.5009    0.0146 C.3     1  UNL1       -0.0332
     34 C          -1.9650   -0.9602   -0.2655 C.3     1  UNL1       -0.0002
     35 C           0.6684   -0.1488   -1.7115 C.3     1  UNL1       -0.0328
     36 C           1.8565   -0.1370   -2.6349 C.3     1  UNL1        0.0153
     37 H           6.2125   -1.3611   -1.8762 H       1  UNL1        0.0670
     38 H           5.2350    0.7135    0.1202 H       1  UNL1        0.0625
     39 H           7.9027   -1.6414   -1.2364 H       1  UNL1        0.0652
     40 H          10.7609   -0.5636    1.7605 H       1  UNL1        0.0675
     41 H           6.8682    1.2577    1.6961 H       1  UNL1        0.0652
     42 H           2.1119    2.0086   -1.4851 H       1  UNL1        0.0465
     43 H           3.7245    1.8362   -0.7064 H       1  UNL1        0.0465
     44 H           2.9048   -0.0878    0.5852 H       1  UNL1        0.0284
     45 H           1.9417    1.3913    0.9199 H       1  UNL1        0.0284
     46 H           0.9619   -1.0503    0.1708 H       1  UNL1        0.0318
     47 H           0.2530    0.5927    1.5856 H       1  UNL1        0.0488
     48 H           0.5013    2.5775    0.1747 H       1  UNL1        0.0573
     49 H          -0.8822    2.4787    1.2452 H       1  UNL1        0.0573
     50 H          -1.9498    3.0548   -0.5105 H       1  UNL1        0.2095
     51 H          -1.9784    1.2106    2.2758 H       1  UNL1        0.0427
     52 H          -2.5728   -0.4672    2.4430 H       1  UNL1        0.0427
     53 H          -4.2521    1.2500    1.7960 H       1  UNL1        0.0283
     54 H          -3.6051    1.2812    0.1417 H       1  UNL1        0.0283
     55 H          -4.5565   -1.0814    1.7037 H       1  UNL1        0.0350
     56 H          -5.0762   -0.3834   -2.1645 H       1  UNL1        0.0810
     57 H          -7.5961   -0.0062   -2.5062 H       1  UNL1        0.1668
     58 H         -10.5346    0.2273    1.4664 H       1  UNL1        0.0830
     59 H          -8.8792   -0.0931    3.2401 H       1  UNL1        0.0633
     60 H          -6.4654   -0.4116    2.6644 H       1  UNL1        0.0625
     61 H          -3.7578   -1.7755   -1.0008 H       1  UNL1        0.0283
     62 H          -3.2916   -2.4891    0.5381 H       1  UNL1        0.0283
     63 H          -1.9523   -0.3676   -1.1959 H       1  UNL1        0.0427
     64 H          -1.3416   -1.8920   -0.4002 H       1  UNL1        0.0427
     65 H          -0.0246    0.6355   -2.1447 H       1  UNL1        0.0284
     66 H           0.1377   -1.1088   -2.0002 H       1  UNL1        0.0284
     67 H           1.7988    0.6185   -3.4431 H       1  UNL1        0.0465
     68 H           2.0506   -1.1066   -3.1259 H       1  UNL1        0.0465
@<TRIPOS>BOND
     1     1     2    2
     2     2     3    1
     3     3     4    2
     4     4     5    1
     5     5     6   ar
     6     6     7   ar
     7     7     8    1
     8     7     9   ar
     9     9    10   ar
    10    10    11    1
    11    10    12   ar
    12     2    13   am
    13    13    14    1
    14    14    15    1
    15    15    16    1
    16    16    17    1
    17    17    18    1
    18    18    19    1
    19    17    20    1
    20    20    21    1
    21    21    22    1
    22    22    23    1
    23    23    24    1
    24    24    25   ar
    25    25    26   ar
    26    26    27   ar
    27    27    28   ar
    28    28    29   ar
    29    29    30   ar
    30    30    31   ar
    31    31    32   ar
    32    23    33    1
    33    33    34    1
    34    16    35    1
    35    35    36    1
    36    12     5   ar
    37    36    13    1
    38    34    20    1
    39    32    24   ar
    40    32    27   ar
    41     3    37    1
    42     4    38    1
    43     6    39    1
    44     9    40    1
    45    12    41    1
    46    14    42    1
    47    14    43    1
    48    15    44    1
    49    15    45    1
    50    16    46    1
    51    17    47    1
    52    18    48    1
    53    18    49    1
    54    19    50    1
    55    21    51    1
    56    21    52    1
    57    22    53    1
    58    22    54    1
    59    23    55    1
    60    25    56    1
    61    26    57    1
    62    29    58    1
    63    30    59    1
    64    31    60    1
    65    33    61    1
    66    33    62    1
    67    34    63    1
    68    34    64    1
    69    35    65    1
    70    35    66    1
    71    36    67    1
    72    36    68    1
