
     RDKit          3D

 68 72  0  0  0  0  0  0  0  0999 V2000
    4.1226   -1.4213   -3.0862 O   0  0  0  0  0  0  0  0  0  0  0  0
    4.2204   -0.5572   -2.0734 C   0  0  0  0  0  0  0  0  0  0  0  0
    5.4813   -0.6358   -1.4251 C   0  0  0  0  0  0  0  0  0  0  0  0
    5.8862    0.0175   -0.3925 C   0  0  0  0  0  0  0  0  0  0  0  0
    7.2258   -0.1635    0.1712 C   0  0  0  0  0  0  0  0  0  0  0  0
    8.1227   -1.0296   -0.3592 C   0  0  0  0  0  0  0  0  0  0  0  0
    9.4070   -1.1906    0.1989 C   0  0  0  0  0  0  0  0  0  0  0  0
   10.2727   -2.0725   -0.3702 F   0  0  0  0  0  0  0  0  0  0  0  0
    9.7781   -0.4651    1.3030 C   0  0  0  0  0  0  0  0  0  0  0  0
    8.8467    0.4041    1.8168 C   0  0  0  0  0  0  0  0  0  0  0  0
    9.1616    1.1538    2.9177 F   0  0  0  0  0  0  0  0  0  0  0  0
    7.6038    0.5722    1.2916 C   0  0  0  0  0  0  0  0  0  0  0  0
    3.0971    0.1906   -1.8977 N   0  0  0  0  0  0  0  0  0  0  0  0
    2.8681    1.2859   -1.0094 C   0  0  0  0  0  0  0  0  0  0  0  0
    2.1804    0.6422    0.1628 C   0  0  0  0  0  0  0  0  0  0  0  0
    0.8675   -0.0358   -0.2673 C   0  0  0  0  0  0  0  0  0  0  0  0
   -0.2555    0.5856    0.5339 C   0  0  1  0  0  0  0  0  0  0  0  0
   -0.4622    2.0321    0.3283 C   0  0  0  0  0  0  0  0  0  0  0  0
   -1.2711    2.3953   -0.7225 O   0  0  0  0  0  0  0  0  0  0  0  0
   -1.3838   -0.2341    0.7915 N   0  0  0  0  0  0  0  0  0  0  0  0
   -2.3440    0.3509    1.6977 C   0  0  0  0  0  0  0  0  0  0  0  0
   -3.6393    0.6917    1.0515 C   0  0  0  0  0  0  0  0  0  0  0  0
   -4.3005   -0.6299    0.6970 C   0  0  0  0  0  0  0  0  0  0  0  0
   -5.5632   -0.4144   -0.0179 C   0  0  0  0  0  0  0  0  0  0  0  0
   -5.7985   -0.3174   -1.3672 C   0  0  0  0  0  0  0  0  0  0  0  0
   -7.1145   -0.1185   -1.5872 N   0  0  0  0  0  0  0  0  0  0  0  0
   -7.7549   -0.0833   -0.3832 C   0  0  0  0  0  0  0  0  0  0  0  0
   -9.0481    0.0865   -0.0610 N   0  0  0  0  0  0  0  0  0  0  0  0
   -9.4823    0.0886    1.2126 C   0  0  0  0  0  0  0  0  0  0  0  0
   -8.5665   -0.0897    2.2157 C   0  0  0  0  0  0  0  0  0  0  0  0
   -7.2425   -0.2646    1.9062 C   0  0  0  0  0  0  0  0  0  0  0  0
   -6.7882   -0.2675    0.5897 C   0  0  0  0  0  0  0  0  0  0  0  0
   -3.3358   -1.5009    0.0146 C   0  0  0  0  0  0  0  0  0  0  0  0
   -1.9650   -0.9602   -0.2655 C   0  0  0  0  0  0  0  0  0  0  0  0
    0.6684   -0.1488   -1.7115 C   0  0  0  0  0  0  0  0  0  0  0  0
    1.8565   -0.1370   -2.6349 C   0  0  0  0  0  0  0  0  0  0  0  0
    6.2125   -1.3611   -1.8762 H   0  0  0  0  0  0  0  0  0  0  0  0
    5.2350    0.7135    0.1202 H   0  0  0  0  0  0  0  0  0  0  0  0
    7.9027   -1.6414   -1.2364 H   0  0  0  0  0  0  0  0  0  0  0  0
   10.7609   -0.5636    1.7605 H   0  0  0  0  0  0  0  0  0  0  0  0
    6.8682    1.2577    1.6961 H   0  0  0  0  0  0  0  0  0  0  0  0
    2.1119    2.0086   -1.4851 H   0  0  0  0  0  0  0  0  0  0  0  0
    3.7245    1.8362   -0.7064 H   0  0  0  0  0  0  0  0  0  0  0  0
    2.9048   -0.0878    0.5852 H   0  0  0  0  0  0  0  0  0  0  0  0
    1.9417    1.3913    0.9199 H   0  0  0  0  0  0  0  0  0  0  0  0
    0.9619   -1.0503    0.1708 H   0  0  0  0  0  0  0  0  0  0  0  0
    0.2530    0.5927    1.5856 H   0  0  0  0  0  0  0  0  0  0  0  0
    0.5013    2.5775    0.1747 H   0  0  0  0  0  0  0  0  0  0  0  0
   -0.8822    2.4787    1.2452 H   0  0  0  0  0  0  0  0  0  0  0  0
   -1.9498    3.0548   -0.5105 H   0  0  0  0  0  0  0  0  0  0  0  0
   -1.9784    1.2106    2.2758 H   0  0  0  0  0  0  0  0  0  0  0  0
   -2.5728   -0.4672    2.4430 H   0  0  0  0  0  0  0  0  0  0  0  0
   -4.2521    1.2500    1.7960 H   0  0  0  0  0  0  0  0  0  0  0  0
   -3.6051    1.2812    0.1417 H   0  0  0  0  0  0  0  0  0  0  0  0
   -4.5565   -1.0814    1.7037 H   0  0  0  0  0  0  0  0  0  0  0  0
   -5.0762   -0.3834   -2.1645 H   0  0  0  0  0  0  0  0  0  0  0  0
   -7.5961   -0.0062   -2.5062 H   0  0  0  0  0  0  0  0  0  0  0  0
  -10.5346    0.2273    1.4664 H   0  0  0  0  0  0  0  0  0  0  0  0
   -8.8792   -0.0931    3.2401 H   0  0  0  0  0  0  0  0  0  0  0  0
   -6.4654   -0.4116    2.6644 H   0  0  0  0  0  0  0  0  0  0  0  0
   -3.7578   -1.7755   -1.0008 H   0  0  0  0  0  0  0  0  0  0  0  0
   -3.2916   -2.4891    0.5381 H   0  0  0  0  0  0  0  0  0  0  0  0
   -1.9523   -0.3676   -1.1959 H   0  0  0  0  0  0  0  0  0  0  0  0
   -1.3416   -1.8920   -0.4002 H   0  0  0  0  0  0  0  0  0  0  0  0
   -0.0246    0.6355   -2.1447 H   0  0  0  0  0  0  0  0  0  0  0  0
    0.1377   -1.1088   -2.0002 H   0  0  0  0  0  0  0  0  0  0  0  0
    1.7988    0.6185   -3.4431 H   0  0  0  0  0  0  0  0  0  0  0  0
    2.0506   -1.1066   -3.1259 H   0  0  0  0  0  0  0  0  0  0  0  0
  1  2  2  0
  2  3  1  0
  3  4  2  3
  4  5  1  0
  5  6  2  0
  6  7  1  0
  7  8  1  0
  7  9  2  0
  9 10  1  0
 10 11  1  0
 10 12  2  0
  2 13  1  0
 13 14  1  0
 14 15  1  0
 15 16  1  0
 16 17  1  0
 17 18  1  0
 18 19  1  0
 17 20  1  0
 20 21  1  0
 21 22  1  0
 22 23  1  0
 23 24  1  0
 24 25  2  0
 25 26  1  0
 26 27  1  0
 27 28  2  0
 28 29  1  0
 29 30  2  0
 30 31  1  0
 31 32  2  0
 23 33  1  0
 33 34  1  0
 16 35  1  0
 35 36  1  0
 12  5  1  0
 36 13  1  0
 34 20  1  0
 32 24  1  0
 32 27  1  0
  3 37  1  0
  4 38  1  0
  6 39  1  0
  9 40  1  0
 12 41  1  0
 14 42  1  0
 14 43  1  0
 15 44  1  0
 15 45  1  0
 16 46  1  0
 17 47  1  1
 18 48  1  0
 18 49  1  0
 19 50  1  0
 21 51  1  0
 21 52  1  0
 22 53  1  0
 22 54  1  0
 23 55  1  0
 25 56  1  0
 26 57  1  0
 29 58  1  0
 30 59  1  0
 31 60  1  0
 33 61  1  0
 33 62  1  0
 34 63  1  0
 34 64  1  0
 35 65  1  0
 35 66  1  0
 36 67  1  0
 36 68  1  0
M  END
$$$$
