@<TRIPOS>MOLECULE
*****
 22 22 0 0 0
SMALL
GASTEIGER

@<TRIPOS>ATOM
      1 C          -3.0064    0.9962   -0.5852 C.3     1  UNL1       -0.0158
      2 N          -1.8321    0.1308   -0.6475 N.3     1  UNL1       -0.3186
      3 C          -1.5572   -0.3130    0.7236 C.3     1  UNL1        0.0010
      4 C          -0.3732   -1.2078    0.7988 C.3     1  UNL1        0.0021
      5 C           0.8850   -0.6123    0.3318 C.ar    1  UNL1        0.0425
      6 C           1.0599    0.6593   -0.1536 C.ar    1  UNL1       -0.0403
      7 C           2.2872    1.1483   -0.5766 C.ar    1  UNL1       -0.0586
      8 C           3.3413    0.2584   -0.4767 C.ar    1  UNL1       -0.0436
      9 C           3.1873   -1.0248    0.0084 C.ar    1  UNL1        0.0279
     10 N           1.9582   -1.4519    0.4099 N.ar    1  UNL1       -0.2598
     11 H          -2.7171    2.0629   -0.4625 H       1  UNL1        0.0388
     12 H          -3.5864    0.9110   -1.5106 H       1  UNL1        0.0388
     13 H          -3.6292    0.6911    0.2708 H       1  UNL1        0.0388
     14 H          -2.1235   -0.6719   -1.2481 H       1  UNL1        0.1216
     15 H          -2.4474   -0.9397    0.9963 H       1  UNL1        0.0428
     16 H          -1.5722    0.5354    1.4264 H       1  UNL1        0.0428
     17 H          -0.5751   -2.0828    0.1504 H       1  UNL1        0.0341
     18 H          -0.2400   -1.5176    1.8464 H       1  UNL1        0.0341
     19 H           0.2001    1.2853   -0.1997 H       1  UNL1        0.0635
     20 H           2.3571    2.1529   -0.9461 H       1  UNL1        0.0619
     21 H           4.3096    0.6137   -0.7997 H       1  UNL1        0.0633
     22 H           4.0744   -1.6236    0.0394 H       1  UNL1        0.0829
@<TRIPOS>BOND
     1     1     2    1
     2     2     3    1
     3     3     4    1
     4     4     5    1
     5     5     6   ar
     6     6     7   ar
     7     7     8   ar
     8     8     9   ar
     9     9    10   ar
    10    10     5   ar
    11     1    11    1
    12     1    12    1
    13     1    13    1
    14     2    14    1
    15     3    15    1
    16     3    16    1
    17     4    17    1
    18     4    18    1
    19     6    19    1
    20     7    20    1
    21     8    21    1
    22     9    22    1
