@<TRIPOS>MOLECULE
*****
 48 52 0 0 0
SMALL
GASTEIGER

@<TRIPOS>ATOM
      1 N          -3.2583    2.3959   -2.8599 N.1     1  UNL1       -0.1946
      2 C          -3.4567    1.4391   -2.2160 C.1     1  UNL1        0.0851
      3 C          -3.7175    0.2729   -1.4085 C.3     1  UNL1        0.1135
      4 C          -4.9036    0.4728   -0.4608 C.3     1  UNL1       -0.0164
      5 C          -4.6673   -0.6604    0.5359 C.3     1  UNL1       -0.0180
      6 C          -3.8346   -0.4691    1.7249 C.3     1  UNL1       -0.0294
      7 C          -3.1973   -0.9120    0.4753 C.3     1  UNL1        0.0306
      8 N          -2.6493    0.1029   -0.3837 N.am    1  UNL1       -0.2810
      9 C          -1.4326    0.7766   -0.3178 C.2     1  UNL1        0.2342
     10 O          -1.2461    1.6511   -1.2590 O.2     1  UNL1       -0.2738
     11 C          -0.4233    0.5635    0.6882 C.3     1  UNL1        0.0883
     12 N          -0.6809   -0.3527    1.7057 N.3     1  UNL1       -0.3195
     13 C           0.9597    0.2707    0.1122 C.3     1  UNL1       -0.0025
     14 C           1.4980    1.3632   -0.7447 C.3     1  UNL1       -0.0425
     15 C           2.9521    1.0474   -1.0605 C.3     1  UNL1       -0.0376
     16 C           3.0616   -0.2502   -1.8208 C.3     1  UNL1       -0.0471
     17 C           2.4393   -1.3461   -1.0033 C.3     1  UNL1       -0.0376
     18 C           3.2662   -1.5181    0.2490 C.3     1  UNL1       -0.0211
     19 C           3.2628   -0.2130    0.9939 C.3     1  UNL1        0.0672
     20 O           3.9882   -0.3191    2.1678 O.3     1  UNL1       -0.3885
     21 C           3.7995    0.9385    0.1757 C.3     1  UNL1       -0.0211
     22 C           1.8495    0.1187    1.3543 C.3     1  UNL1       -0.0164
     23 C           0.9862   -1.0123   -0.6778 C.3     1  UNL1       -0.0425
     24 H          -3.8027   -0.6607   -1.9746 H       1  UNL1        0.0659
     25 H          -5.8615    0.3288   -0.9600 H       1  UNL1        0.0296
     26 H          -4.7773    1.4139    0.0754 H       1  UNL1        0.0296
     27 H          -5.3246   -1.5471    0.4450 H       1  UNL1        0.0320
     28 H          -3.5998    0.5593    2.1040 H       1  UNL1        0.0286
     29 H          -3.9589   -1.2145    2.5327 H       1  UNL1        0.0286
     30 H          -2.9032   -1.9780    0.2973 H       1  UNL1        0.0504
     31 H          -0.2576    1.5803    1.2015 H       1  UNL1        0.0560
     32 H          -1.1685    0.0362    2.5059 H       1  UNL1        0.1189
     33 H          -0.9787   -1.2638    1.4045 H       1  UNL1        0.1189
     34 H           0.9871    1.3161   -1.7531 H       1  UNL1        0.0274
     35 H           1.4189    2.3646   -0.3266 H       1  UNL1        0.0274
     36 H           3.3836    1.8629   -1.6999 H       1  UNL1        0.0302
     37 H           2.6762   -0.1886   -2.8532 H       1  UNL1        0.0271
     38 H           4.1515   -0.4874   -1.9018 H       1  UNL1        0.0271
     39 H           2.4535   -2.2996   -1.5698 H       1  UNL1        0.0302
     40 H           4.2548   -1.8691   -0.0458 H       1  UNL1        0.0296
     41 H           2.7336   -2.2561    0.8829 H       1  UNL1        0.0296
     42 H           3.3729   -0.5164    2.9378 H       1  UNL1        0.2102
     43 H           4.8441    0.8362   -0.1099 H       1  UNL1        0.0296
     44 H           3.6013    1.8635    0.7795 H       1  UNL1        0.0296
     45 H           1.3646   -0.6446    1.9933 H       1  UNL1        0.0299
     46 H           1.7786    1.0924    1.8829 H       1  UNL1        0.0299
     47 H           0.5137   -1.8515   -0.1543 H       1  UNL1        0.0274
     48 H           0.5030   -0.8373   -1.6641 H       1  UNL1        0.0274
@<TRIPOS>BOND
     1     1     2    3
     2     2     3    1
     3     3     4    1
     4     4     5    1
     5     5     6    1
     6     6     7    1
     7     7     8    1
     8     8     9   am
     9     9    10    2
    10     9    11    1
    11    11    12    1
    12    11    13    1
    13    13    14    1
    14    14    15    1
    15    15    16    1
    16    16    17    1
    17    17    18    1
    18    18    19    1
    19    19    20    1
    20    19    21    1
    21    19    22    1
    22    17    23    1
    23     8     3    1
    24    22    13    1
    25     7     5    1
    26    23    13    1
    27    21    15    1
    28     3    24    1
    29     4    25    1
    30     4    26    1
    31     5    27    1
    32     6    28    1
    33     6    29    1
    34     7    30    1
    35    11    31    1
    36    12    32    1
    37    12    33    1
    38    14    34    1
    39    14    35    1
    40    15    36    1
    41    16    37    1
    42    16    38    1
    43    17    39    1
    44    18    40    1
    45    18    41    1
    46    20    42    1
    47    21    43    1
    48    21    44    1
    49    22    45    1
    50    22    46    1
    51    23    47    1
    52    23    48    1
