
     RDKit          3D

 48 52  0  0  0  0  0  0  0  0999 V2000
   -3.2583    2.3959   -2.8599 N   0  0  0  0  0  0  0  0  0  0  0  0
   -3.4567    1.4391   -2.2160 C   0  0  0  0  0  0  0  0  0  0  0  0
   -3.7175    0.2729   -1.4085 C   0  0  2  0  0  0  0  0  0  0  0  0
   -4.9036    0.4728   -0.4608 C   0  0  0  0  0  0  0  0  0  0  0  0
   -4.6673   -0.6604    0.5359 C   0  0  2  0  0  0  0  0  0  0  0  0
   -3.8346   -0.4691    1.7249 C   0  0  0  0  0  0  0  0  0  0  0  0
   -3.1973   -0.9120    0.4753 C   0  0  2  0  0  0  0  0  0  0  0  0
   -2.6493    0.1029   -0.3837 N   0  0  0  0  0  0  0  0  0  0  0  0
   -1.4326    0.7766   -0.3178 C   0  0  0  0  0  0  0  0  0  0  0  0
   -1.2461    1.6511   -1.2590 O   0  0  0  0  0  0  0  0  0  0  0  0
   -0.4233    0.5635    0.6882 C   0  0  1  0  0  0  0  0  0  0  0  0
   -0.6809   -0.3527    1.7057 N   0  0  0  0  0  0  0  0  0  0  0  0
    0.9597    0.2707    0.1122 C   0  0  0  0  0  0  0  0  0  0  0  0
    1.4980    1.3632   -0.7447 C   0  0  0  0  0  0  0  0  0  0  0  0
    2.9521    1.0474   -1.0605 C   0  0  0  0  0  0  0  0  0  0  0  0
    3.0616   -0.2502   -1.8208 C   0  0  0  0  0  0  0  0  0  0  0  0
    2.4393   -1.3461   -1.0033 C   0  0  0  0  0  0  0  0  0  0  0  0
    3.2662   -1.5181    0.2490 C   0  0  0  0  0  0  0  0  0  0  0  0
    3.2628   -0.2130    0.9939 C   0  0  0  0  0  0  0  0  0  0  0  0
    3.9882   -0.3191    2.1678 O   0  0  0  0  0  0  0  0  0  0  0  0
    3.7995    0.9385    0.1757 C   0  0  0  0  0  0  0  0  0  0  0  0
    1.8495    0.1187    1.3543 C   0  0  0  0  0  0  0  0  0  0  0  0
    0.9862   -1.0123   -0.6778 C   0  0  0  0  0  0  0  0  0  0  0  0
   -3.8027   -0.6607   -1.9746 H   0  0  0  0  0  0  0  0  0  0  0  0
   -5.8615    0.3288   -0.9600 H   0  0  0  0  0  0  0  0  0  0  0  0
   -4.7773    1.4139    0.0754 H   0  0  0  0  0  0  0  0  0  0  0  0
   -5.3246   -1.5471    0.4450 H   0  0  0  0  0  0  0  0  0  0  0  0
   -3.5998    0.5593    2.1040 H   0  0  0  0  0  0  0  0  0  0  0  0
   -3.9589   -1.2145    2.5327 H   0  0  0  0  0  0  0  0  0  0  0  0
   -2.9032   -1.9780    0.2973 H   0  0  0  0  0  0  0  0  0  0  0  0
   -0.2576    1.5803    1.2015 H   0  0  0  0  0  0  0  0  0  0  0  0
   -1.1685    0.0362    2.5059 H   0  0  0  0  0  0  0  0  0  0  0  0
   -0.9787   -1.2638    1.4045 H   0  0  0  0  0  0  0  0  0  0  0  0
    0.9871    1.3161   -1.7531 H   0  0  0  0  0  0  0  0  0  0  0  0
    1.4189    2.3646   -0.3266 H   0  0  0  0  0  0  0  0  0  0  0  0
    3.3836    1.8629   -1.6999 H   0  0  0  0  0  0  0  0  0  0  0  0
    2.6762   -0.1886   -2.8532 H   0  0  0  0  0  0  0  0  0  0  0  0
    4.1515   -0.4874   -1.9018 H   0  0  0  0  0  0  0  0  0  0  0  0
    2.4535   -2.2996   -1.5698 H   0  0  0  0  0  0  0  0  0  0  0  0
    4.2548   -1.8691   -0.0458 H   0  0  0  0  0  0  0  0  0  0  0  0
    2.7336   -2.2561    0.8829 H   0  0  0  0  0  0  0  0  0  0  0  0
    3.3729   -0.5164    2.9378 H   0  0  0  0  0  0  0  0  0  0  0  0
    4.8441    0.8362   -0.1099 H   0  0  0  0  0  0  0  0  0  0  0  0
    3.6013    1.8635    0.7795 H   0  0  0  0  0  0  0  0  0  0  0  0
    1.3646   -0.6446    1.9933 H   0  0  0  0  0  0  0  0  0  0  0  0
    1.7786    1.0924    1.8829 H   0  0  0  0  0  0  0  0  0  0  0  0
    0.5137   -1.8515   -0.1543 H   0  0  0  0  0  0  0  0  0  0  0  0
    0.5030   -0.8373   -1.6641 H   0  0  0  0  0  0  0  0  0  0  0  0
  1  2  3  0
  2  3  1  0
  3  4  1  0
  4  5  1  0
  5  6  1  0
  6  7  1  0
  7  8  1  0
  8  9  1  0
  9 10  2  0
  9 11  1  0
 11 12  1  0
 11 13  1  0
 13 14  1  0
 14 15  1  0
 15 16  1  0
 16 17  1  0
 17 18  1  0
 18 19  1  0
 19 20  1  0
 19 21  1  0
 19 22  1  0
 17 23  1  0
  8  3  1  0
 22 13  1  0
  7  5  1  0
 23 13  1  0
 21 15  1  0
  3 24  1  6
  4 25  1  0
  4 26  1  0
  5 27  1  1
  6 28  1  0
  6 29  1  0
  7 30  1  1
 11 31  1  1
 12 32  1  0
 12 33  1  0
 14 34  1  0
 14 35  1  0
 15 36  1  0
 16 37  1  0
 16 38  1  0
 17 39  1  0
 18 40  1  0
 18 41  1  0
 20 42  1  0
 21 43  1  0
 21 44  1  0
 22 45  1  0
 22 46  1  0
 23 47  1  0
 23 48  1  0
M  END
$$$$
