
     RDKit          3D

 41 44  0  0  0  0  0  0  0  0999 V2000
    2.7888    2.0389   -1.1768 N   0  0  0  0  0  0  0  0  0  0  0  0
    1.4870    1.4696   -1.1114 C   0  0  0  0  0  0  0  0  0  0  0  0
    0.4926    2.1048   -1.7639 N   0  0  0  0  0  0  0  0  0  0  0  0
   -0.7763    1.7372   -1.7943 C   0  0  0  0  0  0  0  0  0  0  0  0
   -1.0803    0.5839   -1.0760 C   0  0  0  0  0  0  0  0  0  0  0  0
   -2.4230    0.0712   -1.0232 C   0  0  0  0  0  0  0  0  0  0  0  0
   -3.1593    0.0008   -2.1821 C   0  0  0  0  0  0  0  0  0  0  0  0
   -4.4457   -0.4851   -2.1610 C   0  0  0  0  0  0  0  0  0  0  0  0
   -5.0401   -0.9150   -0.9933 C   0  0  0  0  0  0  0  0  0  0  0  0
   -4.2988   -0.8458    0.1827 C   0  0  0  0  0  0  0  0  0  0  0  0
   -5.0703   -1.3939    1.6423 S   0  0  0  0  0  6  0  0  0  0  0  0
   -5.8803   -0.0776    2.3800 N   0  0  0  0  0  0  0  0  0  0  0  0
   -6.1092   -2.4325    1.2978 O   0  0  0  0  0  0  0  0  0  0  0  0
   -4.0927   -2.0514    2.5725 O   0  0  0  0  0  0  0  0  0  0  0  0
   -3.0056   -0.3561    0.1541 C   0  0  0  0  0  0  0  0  0  0  0  0
   -0.0572   -0.0866   -0.3935 C   0  0  0  0  0  0  0  0  0  0  0  0
   -0.1795   -1.5771    0.6174 S   0  0  0  0  0  0  0  0  0  0  0  0
    1.5939   -1.5363    0.9865 C   0  0  0  0  0  0  0  0  0  0  0  0
    2.0938   -0.4479    0.3395 C   0  0  0  0  0  0  0  0  0  0  0  0
    3.5447   -0.2262    0.4428 C   0  0  0  0  0  0  0  0  0  0  0  0
    4.2735   -0.2495   -0.7207 C   0  0  0  0  0  0  0  0  0  0  0  0
    5.6560   -0.0336   -0.6914 C   0  0  0  0  0  0  0  0  0  0  0  0
    6.2770    0.2017    0.5146 C   0  0  0  0  0  0  0  0  0  0  0  0
    7.6302    0.4098    0.5150 F   0  0  0  0  0  0  0  0  0  0  0  0
    5.5533    0.2257    1.6816 C   0  0  0  0  0  0  0  0  0  0  0  0
    6.3514    0.5242    3.2008 Cl  0  0  0  0  0  0  0  0  0  0  0  0
    4.1953    0.0112    1.6300 C   0  0  0  0  0  0  0  0  0  0  0  0
    1.2201    0.2956   -0.3724 C   0  0  0  0  0  0  0  0  0  0  0  0
    3.2764    2.0848   -2.0790 H   0  0  0  0  0  0  0  0  0  0  0  0
    3.2212    2.4000   -0.3171 H   0  0  0  0  0  0  0  0  0  0  0  0
   -1.5686    2.2382   -2.3110 H   0  0  0  0  0  0  0  0  0  0  0  0
   -2.7466    0.3269   -3.1478 H   0  0  0  0  0  0  0  0  0  0  0  0
   -5.0102   -0.5298   -3.1013 H   0  0  0  0  0  0  0  0  0  0  0  0
   -6.0581   -1.2936   -1.0100 H   0  0  0  0  0  0  0  0  0  0  0  0
   -5.2211    0.6957    2.6026 H   0  0  0  0  0  0  0  0  0  0  0  0
   -6.6946    0.1963    1.8175 H   0  0  0  0  0  0  0  0  0  0  0  0
   -2.4712   -0.3219    1.0904 H   0  0  0  0  0  0  0  0  0  0  0  0
    2.0870   -2.2816    1.6170 H   0  0  0  0  0  0  0  0  0  0  0  0
    3.8408   -0.4409   -1.7060 H   0  0  0  0  0  0  0  0  0  0  0  0
    6.2124   -0.0574   -1.6351 H   0  0  0  0  0  0  0  0  0  0  0  0
    3.5933    0.0236    2.5359 H   0  0  0  0  0  0  0  0  0  0  0  0
  1  2  1  0
  2  3  2  0
  3  4  1  0
  4  5  2  0
  5  6  1  0
  6  7  2  0
  7  8  1  0
  8  9  2  0
  9 10  1  0
 10 11  1  0
 11 12  1  0
 11 13  2  0
 11 14  2  0
 10 15  2  0
  5 16  1  0
 16 17  1  0
 17 18  1  0
 18 19  2  0
 19 20  1  0
 20 21  2  0
 21 22  1  0
 22 23  2  0
 23 24  1  0
 23 25  1  0
 25 26  1  0
 25 27  2  0
 19 28  1  0
 28  2  1  0
 15  6  1  0
 28 16  2  0
 27 20  1  0
  1 29  1  0
  1 30  1  0
  4 31  1  0
  7 32  1  0
  8 33  1  0
  9 34  1  0
 12 35  1  0
 12 36  1  0
 15 37  1  0
 18 38  1  0
 21 39  1  0
 22 40  1  0
 27 41  1  0
M  END
$$$$
