@<TRIPOS>MOLECULE
*****
 41 44 0 0 0
SMALL
GASTEIGER

@<TRIPOS>ATOM
      1 N           2.7888    2.0389   -1.1768 N.pl3   1  UNL1       -0.3426
      2 C           1.4870    1.4696   -1.1114 C.ar    1  UNL1        0.1250
      3 N           0.4926    2.1048   -1.7639 N.ar    1  UNL1       -0.2394
      4 C          -0.7763    1.7372   -1.7943 C.ar    1  UNL1        0.0385
      5 C          -1.0803    0.5839   -1.0760 C.ar    1  UNL1        0.0147
      6 C          -2.4230    0.0712   -1.0232 C.ar    1  UNL1       -0.0135
      7 C          -3.1593    0.0008   -2.1821 C.ar    1  UNL1       -0.0538
      8 C          -4.4457   -0.4851   -2.1610 C.ar    1  UNL1       -0.0593
      9 C          -5.0401   -0.9150   -0.9933 C.ar    1  UNL1       -0.0353
     10 C          -4.2988   -0.8458    0.1827 C.ar    1  UNL1        0.1056
     11 S          -5.0703   -1.3939    1.6423 S.O2    1  UNL1        0.0560
     12 N          -5.8803   -0.0776    2.3800 N.3     1  UNL1       -0.2035
     13 O          -6.1092   -2.4325    1.2978 O.2     1  UNL1       -0.1533
     14 O          -4.0927   -2.0514    2.5725 O.2     1  UNL1       -0.1533
     15 C          -3.0056   -0.3561    0.1541 C.ar    1  UNL1       -0.0276
     16 C          -0.0572   -0.0866   -0.3935 C.ar    1  UNL1        0.0323
     17 S          -0.1795   -1.5771    0.6174 S.2     1  UNL1       -0.0953
     18 C           1.5939   -1.5363    0.9865 C.ar    1  UNL1       -0.0153
     19 C           2.0938   -0.4479    0.3395 C.ar    1  UNL1        0.0002
     20 C           3.5447   -0.2262    0.4428 C.ar    1  UNL1       -0.0151
     21 C           4.2735   -0.2495   -0.7207 C.ar    1  UNL1       -0.0512
     22 C           5.6560   -0.0336   -0.6914 C.ar    1  UNL1       -0.0244
     23 C           6.2770    0.2017    0.5146 C.ar    1  UNL1        0.1417
     24 F           7.6302    0.4098    0.5150 F       1  UNL1       -0.2040
     25 C           5.5533    0.2257    1.6816 C.ar    1  UNL1        0.0767
     26 CL          6.3514    0.5242    3.2008 Cl      1  UNL1       -0.0806
     27 C           4.1953    0.0112    1.6300 C.ar    1  UNL1       -0.0328
     28 C           1.2201    0.2956   -0.3724 C.ar    1  UNL1        0.0370
     29 H           3.2764    2.0848   -2.0790 H       1  UNL1        0.1437
     30 H           3.2212    2.4000   -0.3171 H       1  UNL1        0.1437
     31 H          -1.5686    2.2382   -2.3110 H       1  UNL1        0.0837
     32 H          -2.7466    0.3269   -3.1478 H       1  UNL1        0.0624
     33 H          -5.0102   -0.5298   -3.1013 H       1  UNL1        0.0618
     34 H          -6.0581   -1.2936   -1.0100 H       1  UNL1        0.0637
     35 H          -5.2211    0.6957    2.6026 H       1  UNL1        0.1442
     36 H          -6.6946    0.1963    1.8175 H       1  UNL1        0.1442
     37 H          -2.4712   -0.3219    1.0904 H       1  UNL1        0.0643
     38 H           2.0870   -2.2816    1.6170 H       1  UNL1        0.0700
     39 H           3.8408   -0.4409   -1.7060 H       1  UNL1        0.0624
     40 H           6.2124   -0.0574   -1.6351 H       1  UNL1        0.0647
     41 H           3.5933    0.0236    2.5359 H       1  UNL1        0.0639
@<TRIPOS>BOND
     1     1     2    1
     2     2     3   ar
     3     3     4   ar
     4     4     5   ar
     5     5     6    1
     6     6     7   ar
     7     7     8   ar
     8     8     9   ar
     9     9    10   ar
    10    10    11    1
    11    11    12    1
    12    11    13    2
    13    11    14    2
    14    10    15   ar
    15     5    16   ar
    16    16    17   ar
    17    17    18   ar
    18    18    19   ar
    19    19    20    1
    20    20    21   ar
    21    21    22   ar
    22    22    23   ar
    23    23    24    1
    24    23    25   ar
    25    25    26    1
    26    25    27   ar
    27    19    28   ar
    28    28     2   ar
    29    15     6   ar
    30    28    16   ar
    31    27    20   ar
    32     1    29    1
    33     1    30    1
    34     4    31    1
    35     7    32    1
    36     8    33    1
    37     9    34    1
    38    12    35    1
    39    12    36    1
    40    15    37    1
    41    18    38    1
    42    21    39    1
    43    22    40    1
    44    27    41    1
