
     RDKit          3D

 51 55  0  0  0  0  0  0  0  0999 V2000
   -4.4157   -2.9130    1.6265 C   0  0  0  0  0  0  0  0  0  0  0  0
   -3.9297   -3.2261    0.2286 C   0  0  0  0  0  0  0  0  0  0  0  0
   -3.4157   -2.0272   -0.4115 N   0  0  0  0  0  0  0  0  0  0  0  0
   -4.1199   -1.1806   -1.1372 N   0  0  0  0  0  0  0  0  0  0  0  0
   -3.3755   -0.1656   -1.5995 C   0  0  0  0  0  0  0  0  0  0  0  0
   -3.8660    0.9649   -2.4695 C   0  0  0  0  0  0  0  0  0  0  0  0
   -2.0988   -0.3801   -1.1325 C   0  0  0  0  0  0  0  0  0  0  0  0
   -2.1525   -1.5633   -0.3862 C   0  0  0  0  0  0  0  0  0  0  0  0
   -0.8040   -1.8196    0.1022 C   0  0  0  0  0  0  0  0  0  0  0  0
   -0.4234   -2.7841    0.8138 O   0  0  0  0  0  0  0  0  0  0  0  0
    0.0863   -0.7803   -0.3527 N   0  0  0  0  0  0  0  0  0  0  0  0
    1.4761   -0.6697   -0.1232 C   0  0  0  0  0  0  0  0  0  0  0  0
    2.3530   -1.2085   -1.0536 C   0  0  0  0  0  0  0  0  0  0  0  0
    3.7219   -1.1414   -0.8761 C   0  0  0  0  0  0  0  0  0  0  0  0
    4.5921   -1.7407   -1.9153 C   0  0  0  0  0  0  0  0  0  0  0  0
    4.2003   -0.5261    0.2482 C   0  0  0  0  0  0  0  0  0  0  0  0
    5.4578   -0.3177    0.6747 N   0  0  0  0  0  0  0  0  0  0  0  0
    5.4288    0.3288    1.8339 N   0  0  0  0  0  0  0  0  0  0  0  0
    4.1411    0.5434    2.1653 C   0  0  0  0  0  0  0  0  0  0  0  0
    3.6725    1.2321    3.3819 C   0  0  0  0  0  0  0  0  0  0  0  0
    3.3742    0.0102    1.1763 N   0  0  0  0  0  0  0  0  0  0  0  0
    2.0427   -0.0674    0.9813 C   0  0  0  0  0  0  0  0  0  0  0  0
   -0.7147    0.1413   -1.1053 C   0  0  0  0  0  0  0  0  0  0  0  0
   -0.5993    1.5311   -0.6129 C   0  0  0  0  0  0  0  0  0  0  0  0
   -1.7082    2.1431   -0.0883 C   0  0  0  0  0  0  0  0  0  0  0  0
   -1.6496    3.4653    0.3660 C   0  0  0  0  0  0  0  0  0  0  0  0
   -0.4826    4.1937    0.3027 C   0  0  0  0  0  0  0  0  0  0  0  0
   -0.4588    5.8480    0.8851 Cl  0  0  0  0  0  0  0  0  0  0  0  0
    0.6203    3.5680   -0.2249 C   0  0  0  0  0  0  0  0  0  0  0  0
    0.5659    2.2590   -0.6761 C   0  0  0  0  0  0  0  0  0  0  0  0
   -5.4484   -3.3257    1.7949 H   0  0  0  0  0  0  0  0  0  0  0  0
   -3.7852   -3.3618    2.4140 H   0  0  0  0  0  0  0  0  0  0  0  0
   -4.4298   -1.8058    1.7711 H   0  0  0  0  0  0  0  0  0  0  0  0
   -3.1060   -3.9725    0.2887 H   0  0  0  0  0  0  0  0  0  0  0  0
   -4.7896   -3.6594   -0.3373 H   0  0  0  0  0  0  0  0  0  0  0  0
   -4.1720    0.4856   -3.4256 H   0  0  0  0  0  0  0  0  0  0  0  0
   -4.6844    1.4923   -1.9663 H   0  0  0  0  0  0  0  0  0  0  0  0
   -2.9812    1.6190   -2.6707 H   0  0  0  0  0  0  0  0  0  0  0  0
    1.9350   -1.6923   -1.9393 H   0  0  0  0  0  0  0  0  0  0  0  0
    4.9548   -1.0123   -2.6526 H   0  0  0  0  0  0  0  0  0  0  0  0
    5.4507   -2.2804   -1.4571 H   0  0  0  0  0  0  0  0  0  0  0  0
    4.0282   -2.5190   -2.4865 H   0  0  0  0  0  0  0  0  0  0  0  0
    3.8669    2.3310    3.3435 H   0  0  0  0  0  0  0  0  0  0  0  0
    2.5954    1.0900    3.4856 H   0  0  0  0  0  0  0  0  0  0  0  0
    4.2086    0.8331    4.2722 H   0  0  0  0  0  0  0  0  0  0  0  0
    1.3842    0.3573    1.7162 H   0  0  0  0  0  0  0  0  0  0  0  0
   -0.3299    0.2062   -2.1842 H   0  0  0  0  0  0  0  0  0  0  0  0
   -2.6671    1.6566    0.0140 H   0  0  0  0  0  0  0  0  0  0  0  0
   -2.5424    3.9052    0.7692 H   0  0  0  0  0  0  0  0  0  0  0  0
    1.5451    4.1361   -0.2781 H   0  0  0  0  0  0  0  0  0  0  0  0
    1.4483    1.7990   -1.0935 H   0  0  0  0  0  0  0  0  0  0  0  0
  1  2  1  0
  2  3  1  0
  3  4  1  0
  4  5  2  0
  5  6  1  0
  5  7  1  0
  7  8  2  0
  8  9  1  0
  9 10  2  0
  9 11  1  0
 11 12  1  0
 12 13  1  0
 13 14  2  0
 14 15  1  0
 14 16  1  0
 16 17  2  0
 17 18  1  0
 18 19  2  0
 19 20  1  0
 19 21  1  0
 21 22  1  0
 11 23  1  0
 23 24  1  0
 24 25  2  0
 25 26  1  0
 26 27  2  0
 27 28  1  0
 27 29  1  0
 29 30  2  0
  8  3  1  0
 22 12  2  0
 30 24  1  0
 23  7  1  0
 21 16  1  0
  1 31  1  0
  1 32  1  0
  1 33  1  0
  2 34  1  0
  2 35  1  0
  6 36  1  0
  6 37  1  0
  6 38  1  0
 13 39  1  0
 15 40  1  0
 15 41  1  0
 15 42  1  0
 20 43  1  0
 20 44  1  0
 20 45  1  0
 22 46  1  0
 23 47  1  0
 25 48  1  0
 26 49  1  0
 29 50  1  0
 30 51  1  0
M  END
$$$$
