@<TRIPOS>MOLECULE
*****
 51 55 0 0 0
SMALL
GASTEIGER

@<TRIPOS>ATOM
      1 C          -4.4157   -2.9130    1.6265 C.3     1  UNL1       -0.0455
      2 C          -3.9297   -3.2261    0.2286 C.3     1  UNL1        0.0396
      3 N          -3.4157   -2.0272   -0.4115 N.ar    1  UNL1       -0.2589
      4 N          -4.1199   -1.1806   -1.1372 N.ar    1  UNL1       -0.1755
      5 C          -3.3755   -0.1656   -1.5995 C.ar    1  UNL1        0.0660
      6 C          -3.8660    0.9649   -2.4695 C.3     1  UNL1       -0.0203
      7 C          -2.0988   -0.3801   -1.1325 C.ar    1  UNL1        0.0304
      8 C          -2.1525   -1.5633   -0.3862 C.ar    1  UNL1        0.1293
      9 C          -0.8040   -1.8196    0.1022 C.2     1  UNL1        0.2700
     10 O          -0.4234   -2.7841    0.8138 O.2     1  UNL1       -0.2679
     11 N           0.0863   -0.7803   -0.3527 N.am    1  UNL1       -0.2531
     12 C           1.4761   -0.6697   -0.1232 C.ar    1  UNL1        0.0545
     13 C           2.3530   -1.2085   -1.0536 C.ar    1  UNL1       -0.0324
     14 C           3.7219   -1.1414   -0.8761 C.ar    1  UNL1       -0.0041
     15 C           4.5921   -1.7407   -1.9153 C.3     1  UNL1       -0.0361
     16 C           4.2003   -0.5261    0.2482 C.ar    1  UNL1        0.1641
     17 N           5.4578   -0.3177    0.6747 N.ar    1  UNL1       -0.1292
     18 N           5.4288    0.3288    1.8339 N.ar    1  UNL1       -0.1340
     19 C           4.1411    0.5434    2.1653 C.ar    1  UNL1        0.1347
     20 C           3.6725    1.2321    3.3819 C.3     1  UNL1       -0.0041
     21 N           3.3742    0.0102    1.1763 N.ar    1  UNL1       -0.2846
     22 C           2.0427   -0.0674    0.9813 C.ar    1  UNL1        0.0344
     23 C          -0.7147    0.1413   -1.1053 C.3     1  UNL1        0.0854
     24 C          -0.5993    1.5311   -0.6129 C.ar    1  UNL1       -0.0221
     25 C          -1.7082    2.1431   -0.0883 C.ar    1  UNL1       -0.0551
     26 C          -1.6496    3.4653    0.3660 C.ar    1  UNL1       -0.0431
     27 C          -0.4826    4.1937    0.3027 C.ar    1  UNL1        0.0410
     28 CL         -0.4588    5.8480    0.8851 Cl      1  UNL1       -0.0835
     29 C           0.6203    3.5680   -0.2249 C.ar    1  UNL1       -0.0431
     30 C           0.5659    2.2590   -0.6761 C.ar    1  UNL1       -0.0551
     31 H          -5.4484   -3.3257    1.7949 H       1  UNL1        0.0247
     32 H          -3.7852   -3.3618    2.4140 H       1  UNL1        0.0247
     33 H          -4.4298   -1.8058    1.7711 H       1  UNL1        0.0247
     34 H          -3.1060   -3.9725    0.2887 H       1  UNL1        0.0506
     35 H          -4.7896   -3.6594   -0.3373 H       1  UNL1        0.0506
     36 H          -4.1720    0.4856   -3.4256 H       1  UNL1        0.0293
     37 H          -4.6844    1.4923   -1.9663 H       1  UNL1        0.0293
     38 H          -2.9812    1.6190   -2.6707 H       1  UNL1        0.0293
     39 H           1.9350   -1.6923   -1.9393 H       1  UNL1        0.0640
     40 H           4.9548   -1.0123   -2.6526 H       1  UNL1        0.0279
     41 H           5.4507   -2.2804   -1.4571 H       1  UNL1        0.0279
     42 H           4.0282   -2.5190   -2.4865 H       1  UNL1        0.0279
     43 H           3.8669    2.3310    3.3435 H       1  UNL1        0.0308
     44 H           2.5954    1.0900    3.4856 H       1  UNL1        0.0308
     45 H           4.2086    0.8331    4.2722 H       1  UNL1        0.0308
     46 H           1.3842    0.3573    1.7162 H       1  UNL1        0.0833
     47 H          -0.3299    0.2062   -2.1842 H       1  UNL1        0.0606
     48 H          -2.6671    1.6566    0.0140 H       1  UNL1        0.0621
     49 H          -2.5424    3.9052    0.7692 H       1  UNL1        0.0632
     50 H           1.5451    4.1361   -0.2781 H       1  UNL1        0.0632
     51 H           1.4483    1.7990   -1.0935 H       1  UNL1        0.0621
@<TRIPOS>BOND
     1     1     2    1
     2     2     3    1
     3     3     4   ar
     4     4     5   ar
     5     5     6    1
     6     5     7   ar
     7     7     8   ar
     8     8     9    1
     9     9    10    2
    10     9    11   am
    11    11    12    1
    12    12    13   ar
    13    13    14   ar
    14    14    15    1
    15    14    16   ar
    16    16    17   ar
    17    17    18   ar
    18    18    19   ar
    19    19    20    1
    20    19    21   ar
    21    21    22   ar
    22    11    23    1
    23    23    24    1
    24    24    25   ar
    25    25    26   ar
    26    26    27   ar
    27    27    28    1
    28    27    29   ar
    29    29    30   ar
    30     8     3   ar
    31    22    12   ar
    32    30    24   ar
    33    23     7    1
    34    21    16   ar
    35     1    31    1
    36     1    32    1
    37     1    33    1
    38     2    34    1
    39     2    35    1
    40     6    36    1
    41     6    37    1
    42     6    38    1
    43    13    39    1
    44    15    40    1
    45    15    41    1
    46    15    42    1
    47    20    43    1
    48    20    44    1
    49    20    45    1
    50    22    46    1
    51    23    47    1
    52    25    48    1
    53    26    49    1
    54    29    50    1
    55    30    51    1
