@<TRIPOS>MOLECULE
*****
 40 43 0 0 0
SMALL
GASTEIGER

@<TRIPOS>ATOM
      1 C          -1.6004    1.0870   -0.0018 C.3     1  UNL1       -0.0069
      2 C          -2.4600    1.6520    1.0478 C.3     1  UNL1       -0.0389
      3 C          -3.8054    1.6011    0.3023 C.3     1  UNL1        0.0070
      4 C          -3.7022    0.3527   -0.5434 C.2     1  UNL1        0.1398
      5 O          -4.7042    0.0286   -1.1820 O.2     1  UNL1       -0.2968
      6 C          -2.3420   -0.1738   -0.3638 C.3     1  UNL1        0.0327
      7 C          -2.2835   -1.2343    0.6960 C.3     1  UNL1       -0.0523
      8 C          -1.7289   -0.7328   -1.6050 C.3     1  UNL1       -0.0395
      9 C          -0.2844   -1.0377   -1.3993 C.3     1  UNL1       -0.0416
     10 C           0.4919    0.1085   -0.7852 C.3     1  UNL1        0.0058
     11 C           1.8534   -0.2793   -0.4706 C.ar    1  UNL1       -0.0366
     12 C           2.4792   -0.1609    0.7298 C.ar    1  UNL1       -0.0364
     13 C           1.7294    0.4158    1.8488 C.3     1  UNL1       -0.0088
     14 C           0.3567    0.8190    1.5284 C.2     1  UNL1       -0.0796
     15 C          -0.2441    0.7041    0.3694 C.2     1  UNL1       -0.0617
     16 C           3.7795   -0.5476    0.9724 C.ar    1  UNL1       -0.0164
     17 C           4.4711   -1.0934   -0.1091 C.ar    1  UNL1        0.1171
     18 O           5.7683   -1.4916    0.0886 O.3     1  UNL1       -0.5068
     19 C           3.8801   -1.2378   -1.3587 C.ar    1  UNL1       -0.0199
     20 C           2.5733   -0.8267   -1.5225 C.ar    1  UNL1       -0.0543
     21 H          -1.5950    1.7426   -0.8820 H       1  UNL1        0.0355
     22 H          -2.2224    2.6712    1.3727 H       1  UNL1        0.0275
     23 H          -2.6002    1.0455    1.9397 H       1  UNL1        0.0275
     24 H          -4.6632    1.5976    0.9755 H       1  UNL1        0.0342
     25 H          -3.7882    2.5032   -0.3748 H       1  UNL1        0.0342
     26 H          -2.7580   -0.9677    1.6497 H       1  UNL1        0.0239
     27 H          -1.2671   -1.6089    0.7932 H       1  UNL1        0.0239
     28 H          -2.9007   -2.0825    0.2937 H       1  UNL1        0.0239
     29 H          -1.9100   -0.1497   -2.5265 H       1  UNL1        0.0275
     30 H          -2.2345   -1.7186   -1.7924 H       1  UNL1        0.0275
     31 H           0.1569   -1.1772   -2.4266 H       1  UNL1        0.0274
     32 H          -0.0973   -1.9938   -0.8628 H       1  UNL1        0.0274
     33 H           0.5079    0.9189   -1.5717 H       1  UNL1        0.0394
     34 H           2.2413    1.3392    2.2440 H       1  UNL1        0.0356
     35 H           1.7764   -0.2925    2.7242 H       1  UNL1        0.0356
     36 H          -0.2299    1.2563    2.3175 H       1  UNL1        0.0575
     37 H           4.2720   -0.4512    1.9286 H       1  UNL1        0.0657
     38 H           6.4462   -1.0042    0.6689 H       1  UNL1        0.2921
     39 H           4.4542   -1.6685   -2.1767 H       1  UNL1        0.0654
     40 H           2.1840   -0.9755   -2.5363 H       1  UNL1        0.0622
@<TRIPOS>BOND
     1     1     2    1
     2     2     3    1
     3     3     4    1
     4     4     5    2
     5     4     6    1
     6     6     7    1
     7     6     8    1
     8     8     9    1
     9     9    10    1
    10    10    11    1
    11    11    12   ar
    12    12    13    1
    13    13    14    1
    14    14    15    2
    15    12    16   ar
    16    16    17   ar
    17    17    18    1
    18    17    19   ar
    19    19    20   ar
    20     6     1    1
    21    15    10    1
    22    15     1    1
    23    20    11   ar
    24     1    21    1
    25     2    22    1
    26     2    23    1
    27     3    24    1
    28     3    25    1
    29     7    26    1
    30     7    27    1
    31     7    28    1
    32     8    29    1
    33     8    30    1
    34     9    31    1
    35     9    32    1
    36    10    33    1
    37    13    34    1
    38    13    35    1
    39    14    36    1
    40    16    37    1
    41    18    38    1
    42    19    39    1
    43    20    40    1
