
     RDKit          3D

 40 43  0  0  0  0  0  0  0  0999 V2000
   -1.6004    1.0870   -0.0018 C   0  0  2  0  0  0  0  0  0  0  0  0
   -2.4600    1.6520    1.0478 C   0  0  0  0  0  0  0  0  0  0  0  0
   -3.8054    1.6011    0.3023 C   0  0  0  0  0  0  0  0  0  0  0  0
   -3.7022    0.3527   -0.5434 C   0  0  0  0  0  0  0  0  0  0  0  0
   -4.7042    0.0286   -1.1820 O   0  0  0  0  0  0  0  0  0  0  0  0
   -2.3420   -0.1738   -0.3638 C   0  0  2  0  0  0  0  0  0  0  0  0
   -2.2835   -1.2343    0.6960 C   0  0  0  0  0  0  0  0  0  0  0  0
   -1.7289   -0.7328   -1.6050 C   0  0  0  0  0  0  0  0  0  0  0  0
   -0.2844   -1.0377   -1.3993 C   0  0  0  0  0  0  0  0  0  0  0  0
    0.4919    0.1085   -0.7852 C   0  0  2  0  0  0  0  0  0  0  0  0
    1.8534   -0.2793   -0.4706 C   0  0  0  0  0  0  0  0  0  0  0  0
    2.4792   -0.1609    0.7298 C   0  0  0  0  0  0  0  0  0  0  0  0
    1.7294    0.4158    1.8488 C   0  0  0  0  0  0  0  0  0  0  0  0
    0.3567    0.8190    1.5284 C   0  0  0  0  0  0  0  0  0  0  0  0
   -0.2441    0.7041    0.3694 C   0  0  0  0  0  0  0  0  0  0  0  0
    3.7795   -0.5476    0.9724 C   0  0  0  0  0  0  0  0  0  0  0  0
    4.4711   -1.0934   -0.1091 C   0  0  0  0  0  0  0  0  0  0  0  0
    5.7683   -1.4916    0.0886 O   0  0  0  0  0  0  0  0  0  0  0  0
    3.8801   -1.2378   -1.3587 C   0  0  0  0  0  0  0  0  0  0  0  0
    2.5733   -0.8267   -1.5225 C   0  0  0  0  0  0  0  0  0  0  0  0
   -1.5950    1.7426   -0.8820 H   0  0  0  0  0  0  0  0  0  0  0  0
   -2.2224    2.6712    1.3727 H   0  0  0  0  0  0  0  0  0  0  0  0
   -2.6002    1.0455    1.9397 H   0  0  0  0  0  0  0  0  0  0  0  0
   -4.6632    1.5976    0.9755 H   0  0  0  0  0  0  0  0  0  0  0  0
   -3.7882    2.5032   -0.3748 H   0  0  0  0  0  0  0  0  0  0  0  0
   -2.7580   -0.9677    1.6497 H   0  0  0  0  0  0  0  0  0  0  0  0
   -1.2671   -1.6089    0.7932 H   0  0  0  0  0  0  0  0  0  0  0  0
   -2.9007   -2.0825    0.2937 H   0  0  0  0  0  0  0  0  0  0  0  0
   -1.9100   -0.1497   -2.5265 H   0  0  0  0  0  0  0  0  0  0  0  0
   -2.2345   -1.7186   -1.7924 H   0  0  0  0  0  0  0  0  0  0  0  0
    0.1569   -1.1772   -2.4266 H   0  0  0  0  0  0  0  0  0  0  0  0
   -0.0973   -1.9938   -0.8628 H   0  0  0  0  0  0  0  0  0  0  0  0
    0.5079    0.9189   -1.5717 H   0  0  0  0  0  0  0  0  0  0  0  0
    2.2413    1.3392    2.2440 H   0  0  0  0  0  0  0  0  0  0  0  0
    1.7764   -0.2925    2.7242 H   0  0  0  0  0  0  0  0  0  0  0  0
   -0.2299    1.2563    2.3175 H   0  0  0  0  0  0  0  0  0  0  0  0
    4.2720   -0.4512    1.9286 H   0  0  0  0  0  0  0  0  0  0  0  0
    6.4462   -1.0042    0.6689 H   0  0  0  0  0  0  0  0  0  0  0  0
    4.4542   -1.6685   -2.1767 H   0  0  0  0  0  0  0  0  0  0  0  0
    2.1840   -0.9755   -2.5363 H   0  0  0  0  0  0  0  0  0  0  0  0
  1  2  1  0
  2  3  1  0
  3  4  1  0
  4  5  2  0
  4  6  1  0
  6  7  1  1
  6  8  1  0
  8  9  1  0
  9 10  1  0
 10 11  1  0
 11 12  2  0
 12 13  1  0
 13 14  1  0
 14 15  2  0
 12 16  1  0
 16 17  2  0
 17 18  1  0
 17 19  1  0
 19 20  2  0
  6  1  1  0
 15 10  1  0
 15  1  1  0
 20 11  1  0
  1 21  1  6
  2 22  1  0
  2 23  1  0
  3 24  1  0
  3 25  1  0
  7 26  1  0
  7 27  1  0
  7 28  1  0
  8 29  1  0
  8 30  1  0
  9 31  1  0
  9 32  1  0
 10 33  1  6
 13 34  1  0
 13 35  1  0
 14 36  1  0
 16 37  1  0
 18 38  1  0
 19 39  1  0
 20 40  1  0
M  END
$$$$
