@<TRIPOS>MOLECULE
*****
 61 63 0 0 0
SMALL
GASTEIGER

@<TRIPOS>ATOM
      1 C          -7.9983   -3.1436   -2.0910 C.3     1  UNL1        0.0788
      2 O          -8.1273   -2.0638   -1.2271 O.3     1  UNL1       -0.4948
      3 C          -7.2024   -1.0681   -1.0257 C.ar    1  UNL1        0.1230
      4 C          -6.0175   -1.0919   -1.7192 C.ar    1  UNL1       -0.0190
      5 C          -5.0642   -0.0853   -1.5265 C.ar    1  UNL1       -0.0462
      6 C          -5.2806    0.9455   -0.6488 C.ar    1  UNL1        0.0372
      7 C          -4.3201    2.0141   -0.4172 C.2     1  UNL1        0.2443
      8 O          -4.6234    2.9253    0.4134 O.2     1  UNL1       -0.2702
      9 N          -3.0627    2.0986   -1.0658 N.am    1  UNL1       -0.3072
     10 C          -2.1038    3.1388   -0.8531 C.3     1  UNL1        0.0372
     11 C          -1.3252    3.0201    0.4004 C.ar    1  UNL1       -0.0296
     12 C          -1.7048    3.6355    1.5591 C.ar    1  UNL1       -0.0570
     13 C          -0.9088    3.4537    2.6845 C.ar    1  UNL1       -0.0607
     14 C           0.2242    2.6794    2.6333 C.ar    1  UNL1       -0.0496
     15 C           0.6278    2.0461    1.4676 C.ar    1  UNL1        0.0373
     16 C           1.8505    1.2257    1.4676 C.2     1  UNL1        0.2483
     17 O           2.4329    1.1366    2.5689 O.2     1  UNL1       -0.2699
     18 N           2.3666    0.5699    0.3371 N.am    1  UNL1       -0.2815
     19 C           3.5365   -0.2292    0.2984 C.ar    1  UNL1        0.0337
     20 C           4.3499   -0.5149    1.3516 C.ar    1  UNL1       -0.0402
     21 C           5.4998   -1.3204    1.2310 C.ar    1  UNL1       -0.0556
     22 C           5.8563   -1.8626    0.0212 C.ar    1  UNL1       -0.0333
     23 C           7.0542   -2.7209   -0.1610 C.3     1  UNL1        0.0235
     24 N           8.1835   -1.8654   -0.4801 N.3     1  UNL1       -0.3042
     25 C           8.4534   -0.9191    0.5746 C.3     1  UNL1       -0.0127
     26 C           9.3423   -2.5917   -0.9193 C.3     1  UNL1       -0.0127
     27 C           5.0362   -1.5758   -1.0460 C.ar    1  UNL1       -0.0556
     28 C           3.9147   -0.7920   -0.9356 C.ar    1  UNL1       -0.0402
     29 C          -0.1697    2.2350    0.3619 C.ar    1  UNL1       -0.0449
     30 C          -6.4850    0.9325    0.0291 C.ar    1  UNL1       -0.0433
     31 C          -7.4347   -0.0223   -0.1275 C.ar    1  UNL1       -0.0081
     32 C          -8.7100    0.0057    0.6246 C.3     1  UNL1       -0.0362
     33 H          -9.0081   -3.5085   -2.3913 H       1  UNL1        0.0660
     34 H          -7.4890   -3.9846   -1.5617 H       1  UNL1        0.0660
     35 H          -7.4947   -2.8438   -3.0260 H       1  UNL1        0.0660
     36 H          -5.8006   -1.8971   -2.4308 H       1  UNL1        0.0654
     37 H          -4.1459   -0.1319   -2.0846 H       1  UNL1        0.0626
     38 H          -2.8383    1.3239   -1.7528 H       1  UNL1        0.1493
     39 H          -1.3611    3.1081   -1.7040 H       1  UNL1        0.0512
     40 H          -2.5616    4.1552   -0.9363 H       1  UNL1        0.0512
     41 H          -2.6023    4.2605    1.6092 H       1  UNL1        0.0621
     42 H          -1.2353    3.9499    3.5763 H       1  UNL1        0.0618
     43 H           0.8115    2.5722    3.5498 H       1  UNL1        0.0625
     44 H           1.7985    0.7102   -0.5544 H       1  UNL1        0.1551
     45 H           4.1326   -0.1266    2.3263 H       1  UNL1        0.0636
     46 H           6.1171   -1.5232    2.0856 H       1  UNL1        0.0621
     47 H           7.2572   -3.3236    0.7723 H       1  UNL1        0.0475
     48 H           6.8616   -3.4593   -0.9592 H       1  UNL1        0.0475
     49 H           7.6417   -0.1903    0.6131 H       1  UNL1        0.0391
     50 H           8.5490   -1.4041    1.5686 H       1  UNL1        0.0391
     51 H           9.4061   -0.4072    0.3664 H       1  UNL1        0.0391
     52 H          10.2786   -2.2836   -0.4464 H       1  UNL1        0.0391
     53 H           9.4119   -2.4504   -2.0347 H       1  UNL1        0.0391
     54 H           9.1306   -3.6767   -0.7600 H       1  UNL1        0.0391
     55 H           5.3278   -2.0122   -2.0070 H       1  UNL1        0.0621
     56 H           3.2866   -0.5849   -1.8024 H       1  UNL1        0.0636
     57 H           0.1307    1.7465   -0.5590 H       1  UNL1        0.0628
     58 H          -6.6700    1.7395    0.7250 H       1  UNL1        0.0629
     59 H          -8.6774    0.8012    1.4010 H       1  UNL1        0.0279
     60 H          -9.5593    0.1945   -0.0712 H       1  UNL1        0.0279
     61 H          -8.8880   -0.9495    1.1727 H       1  UNL1        0.0279
@<TRIPOS>BOND
     1     1     2    1
     2     2     3    1
     3     3     4   ar
     4     4     5   ar
     5     5     6   ar
     6     6     7    1
     7     7     8    2
     8     7     9   am
     9     9    10    1
    10    10    11    1
    11    11    12   ar
    12    12    13   ar
    13    13    14   ar
    14    14    15   ar
    15    15    16    1
    16    16    17    2
    17    16    18   am
    18    18    19    1
    19    19    20   ar
    20    20    21   ar
    21    21    22   ar
    22    22    23    1
    23    23    24    1
    24    24    25    1
    25    24    26    1
    26    22    27   ar
    27    27    28   ar
    28    15    29   ar
    29     6    30   ar
    30    30    31   ar
    31    31    32    1
    32    31     3   ar
    33    29    11   ar
    34    28    19   ar
    35     1    33    1
    36     1    34    1
    37     1    35    1
    38     4    36    1
    39     5    37    1
    40     9    38    1
    41    10    39    1
    42    10    40    1
    43    12    41    1
    44    13    42    1
    45    14    43    1
    46    18    44    1
    47    20    45    1
    48    21    46    1
    49    23    47    1
    50    23    48    1
    51    25    49    1
    52    25    50    1
    53    25    51    1
    54    26    52    1
    55    26    53    1
    56    26    54    1
    57    27    55    1
    58    28    56    1
    59    29    57    1
    60    30    58    1
    61    32    59    1
    62    32    60    1
    63    32    61    1
