@<TRIPOS>MOLECULE
*****
 29 29 0 0 0
SMALL
GASTEIGER

@<TRIPOS>ATOM
      1 N          -2.9172    1.3982    0.0321 N.3     1  UNL1       -0.3181
      2 CA         -3.1505   -0.0187   -0.0213 C.3     1  UNL1        0.1072
      3 C          -2.2821   -0.7279   -1.0239 C.3     1  UNL1       -0.0020
      4 C          -0.8432   -0.5970   -0.7813 C.ar    1  UNL1       -0.0451
      5 C          -0.0658    0.4146   -1.3009 C.ar    1  UNL1       -0.0550
      6 C           1.2748    0.5291   -1.0697 C.ar    1  UNL1       -0.0191
      7 C           1.9255   -0.3993   -0.2769 C.ar    1  UNL1        0.1321
      8 O           3.2680   -0.4675    0.0811 O.3     1  UNL1       -0.4040
      9 P           4.0596    0.6909    1.0449 P.3     1  UNL1        0.5280
     10 O           3.6239    2.2640    0.6422 O.3     1  UNL1       -0.2930
     11 O           5.7237    0.5295    0.7603 O.3     1  UNL1       -0.2930
     12 O           3.8098    0.4751    2.5258 O.2     1  UNL1       -0.2156
     13 C           1.1600   -1.4363    0.2630 C.ar    1  UNL1       -0.0191
     14 C          -0.1865   -1.5176    0.0075 C.ar    1  UNL1       -0.0550
     15 C          -3.1187   -0.6059    1.3274 C.2     1  UNL1        0.3220
     16 O          -2.8931    0.0989    2.5259 O.3     1  UNL1       -0.4795
     17 OXT        -3.2844   -1.8272    1.6578 O.2     1  UNL1       -0.2492
     18 H1         -3.2873    1.8818   -0.8262 H       1  UNL1        0.1190
     19 H2         -1.9625    1.6724    0.2872 H       1  UNL1        0.1190
     20 HA         -4.2052   -0.1566   -0.3876 H       1  UNL1        0.0577
     21 H          -2.5251   -0.2991   -2.0176 H       1  UNL1        0.0334
     22 H          -2.5932   -1.7886   -1.0507 H       1  UNL1        0.0334
     23 H          -0.5307    1.1726   -1.9329 H       1  UNL1        0.0621
     24 H           1.9358    1.2907   -1.4435 H       1  UNL1        0.0654
     25 H           3.8626    2.4006   -0.3262 H       1  UNL1        0.2231
     26 H           5.9295   -0.4185    0.5591 H       1  UNL1        0.2231
     27 H           1.5748   -2.2191    0.9005 H       1  UNL1        0.0654
     28 H          -0.7888   -2.3321    0.4315 H       1  UNL1        0.0621
     29 H          -3.5137   -0.0071    3.3249 H       1  UNL1        0.2951
@<TRIPOS>BOND
     1     1     2    1
     2     2     3    1
     3     3     4    1
     4     4     5   ar
     5     5     6   ar
     6     6     7   ar
     7     7     8    1
     8     8     9    1
     9     9    10    1
    10     9    11    1
    11     9    12    2
    12     7    13   ar
    13    13    14   ar
    14     2    15    1
    15    15    16    1
    16    15    17    2
    17    14     4   ar
    18     1    18    1
    19     1    19    1
    20     2    20    1
    21     3    21    1
    22     3    22    1
    23     5    23    1
    24     6    24    1
    25    10    25    1
    26    11    26    1
    27    13    27    1
    28    14    28    1
    29    16    29    1
