@<TRIPOS>MOLECULE
*****
 34 36 0 0 0
SMALL
GASTEIGER

@<TRIPOS>ATOM
      1 C          -3.9680    1.9789   -0.6238 C.3     1  UNL1        0.0790
      2 O          -4.3511    1.0952    0.4160 O.3     1  UNL1       -0.4914
      3 C          -3.4116    0.2218    0.9392 C.ar    1  UNL1        0.1619
      4 C          -2.1195    0.2019    0.4648 C.ar    1  UNL1       -0.0057
      5 C          -1.1588   -0.6655    0.9738 C.ar    1  UNL1        0.0211
      6 C           0.2134   -0.6359    0.4188 C.ar    1  UNL1        0.1393
      7 C           1.2227   -1.4552    0.8607 C.ar    1  UNL1        0.0288
      8 C           2.5011   -1.4285    0.3445 C.ar    1  UNL1        0.1966
      9 O           3.4247   -2.1644    0.7348 O.2     1  UNL1       -0.2869
     10 C           2.7529   -0.5162   -0.6738 C.ar    1  UNL1        0.1055
     11 C           4.0087   -0.4255   -1.2460 C.ar    1  UNL1        0.1347
     12 O           5.0017   -1.2794   -0.7631 O.3     1  UNL1       -0.5058
     13 C           4.2572    0.4645   -2.2406 C.ar    1  UNL1        0.0223
     14 C           3.2182    1.2763   -2.6634 C.ar    1  UNL1        0.1239
     15 O           3.4855    2.1794   -3.6784 O.3     1  UNL1       -0.5065
     16 C           1.9609    1.2052   -2.1104 C.ar    1  UNL1        0.0231
     17 C           1.7099    0.2856   -1.0851 C.ar    1  UNL1        0.1462
     18 O           0.5155    0.2028   -0.5443 O.2     1  UNL1       -0.4544
     19 C          -1.5488   -1.5107    1.9774 C.ar    1  UNL1       -0.0474
     20 C          -2.8589   -1.5025    2.4704 C.ar    1  UNL1       -0.0159
     21 C          -3.7967   -0.6343    1.9518 C.ar    1  UNL1        0.1585
     22 O          -5.0898   -0.6002    2.4122 O.3     1  UNL1       -0.5033
     23 H          -3.0161    2.5079   -0.3695 H       1  UNL1        0.0660
     24 H          -4.7439    2.7848   -0.6489 H       1  UNL1        0.0660
     25 H          -3.9130    1.4676   -1.6071 H       1  UNL1        0.0660
     26 H          -1.7953    0.8624   -0.3268 H       1  UNL1        0.0662
     27 H           1.0143   -2.1645    1.6572 H       1  UNL1        0.0693
     28 H           5.5979   -0.8838   -0.0230 H       1  UNL1        0.2922
     29 H           5.2543    0.5377   -2.6960 H       1  UNL1        0.0691
     30 H           4.3370    2.1981   -4.1918 H       1  UNL1        0.2921
     31 H           1.1417    1.8534   -2.4520 H       1  UNL1        0.0691
     32 H          -0.8350   -2.1994    2.4002 H       1  UNL1        0.0626
     33 H          -3.1488   -2.1821    3.2681 H       1  UNL1        0.0655
     34 H          -5.8624   -1.0755    1.9693 H       1  UNL1        0.2923
@<TRIPOS>BOND
     1     1     2    1
     2     2     3    1
     3     3     4   ar
     4     4     5   ar
     5     5     6    1
     6     6     7   ar
     7     7     8   ar
     8     8     9    2
     9     8    10   ar
    10    10    11   ar
    11    11    12    1
    12    11    13   ar
    13    13    14   ar
    14    14    15    1
    15    14    16   ar
    16    16    17   ar
    17    17    18   ar
    18     5    19   ar
    19    19    20   ar
    20    20    21   ar
    21    21    22    1
    22    21     3   ar
    23    18     6   ar
    24    17    10   ar
    25     1    23    1
    26     1    24    1
    27     1    25    1
    28     4    26    1
    29     7    27    1
    30    12    28    1
    31    13    29    1
    32    15    30    1
    33    16    31    1
    34    19    32    1
    35    20    33    1
    36    22    34    1
