@<TRIPOS>MOLECULE
*****
 56 58 0 0 0
SMALL
GASTEIGER

@<TRIPOS>ATOM
      1 C           9.9194    2.4561    0.2163 C.2     1  UNL1       -0.0938
      2 C           9.1830    1.4027    0.4715 C.2     1  UNL1       -0.0066
      3 C           7.7123    1.5400    0.3069 C.2     1  UNL1        0.2405
      4 O           7.2271    2.6333   -0.0626 O.2     1  UNL1       -0.2705
      5 N           6.8511    0.4565    0.5606 N.am    1  UNL1       -0.2820
      6 C           5.4512    0.4396    0.4484 C.ar    1  UNL1        0.0343
      7 C           4.6533    1.4825    0.0682 C.ar    1  UNL1       -0.0386
      8 C           3.2919    1.3677   -0.0110 C.ar    1  UNL1       -0.0330
      9 C           2.6360    0.1628    0.2966 C.ar    1  UNL1        0.1172
     10 S           0.9206    0.0949    0.2078 S.O2    1  UNL1        0.0615
     11 O           0.2942   -0.0681    1.5881 O.2     1  UNL1       -0.1528
     12 O           0.4162    1.4651   -0.2474 O.2     1  UNL1       -0.1528
     13 N           0.2561   -1.0357   -0.8751 N.3     1  UNL1       -0.1736
     14 C          -0.5466   -2.0553   -0.2702 C.3     1  UNL1        0.0364
     15 C          -1.9912   -1.9985   -0.7459 C.3     1  UNL1        0.0323
     16 N          -2.3921   -0.6047   -0.9031 N.am    1  UNL1       -0.2649
     17 C          -3.4672   -0.0448   -0.1862 C.2     1  UNL1        0.4033
     18 O          -3.7798    1.1448   -0.3457 O.2     1  UNL1       -0.2262
     19 O          -4.1693   -0.8097    0.6870 O.3     1  UNL1       -0.4455
     20 C          -5.2620   -0.4421    1.4869 C.3     1  UNL1        0.1191
     21 C          -6.4353    0.0298    0.7457 C.ar    1  UNL1       -0.0103
     22 C          -6.6521    1.3595    0.5053 C.ar    1  UNL1       -0.0554
     23 C          -7.7639    1.8189   -0.2101 C.ar    1  UNL1       -0.0614
     24 C          -8.6570    0.9073   -0.6803 C.ar    1  UNL1       -0.0617
     25 C          -8.4443   -0.4319   -0.4412 C.ar    1  UNL1       -0.0614
     26 C          -7.3659   -0.8858    0.2532 C.ar    1  UNL1       -0.0554
     27 C          -1.6489    0.2123   -1.8299 C.3     1  UNL1        0.0323
     28 C          -0.3062   -0.4429   -2.0574 C.3     1  UNL1        0.0364
     29 C           3.4142   -0.8949    0.6785 C.ar    1  UNL1        0.0828
     30 C           2.7643   -2.2023    0.9839 C.3     1  UNL1        0.4193
     31 F           1.8145   -2.1414    1.9530 F       1  UNL1       -0.1658
     32 F           3.8010   -2.9871    1.5662 F       1  UNL1       -0.1658
     33 F           2.4342   -2.9066   -0.1465 F       1  UNL1       -0.1658
     34 C           4.7830   -0.7479    0.7491 C.ar    1  UNL1       -0.0269
     35 H           9.4790    3.3739   -0.0967 H       1  UNL1        0.0536
     36 H          10.9835    2.3959    0.3236 H       1  UNL1        0.0536
     37 H           9.5944    0.4583    0.7900 H       1  UNL1        0.0663
     38 H           7.3484   -0.4360    0.8708 H       1  UNL1        0.1551
     39 H           5.0794    2.4246   -0.1794 H       1  UNL1        0.0637
     40 H           2.6849    2.2321   -0.3216 H       1  UNL1        0.0638
     41 H          -0.6047   -1.8770    0.8351 H       1  UNL1        0.0459
     42 H          -0.2045   -3.0803   -0.5204 H       1  UNL1        0.0459
     43 H          -2.1289   -2.5365   -1.6976 H       1  UNL1        0.0479
     44 H          -2.6218   -2.4418    0.0237 H       1  UNL1        0.0479
     45 H          -4.9331    0.3817    2.1758 H       1  UNL1        0.0749
     46 H          -5.4855   -1.3225    2.1386 H       1  UNL1        0.0749
     47 H          -5.9846    2.1350    0.8591 H       1  UNL1        0.0621
     48 H          -7.9003    2.8822   -0.3802 H       1  UNL1        0.0618
     49 H          -9.5240    1.2769   -1.2392 H       1  UNL1        0.0618
     50 H          -9.1629   -1.1479   -0.8207 H       1  UNL1        0.0618
     51 H          -7.1734   -1.9310    0.4560 H       1  UNL1        0.0621
     52 H          -2.1638    0.2563   -2.8165 H       1  UNL1        0.0479
     53 H          -1.5508    1.2624   -1.4783 H       1  UNL1        0.0479
     54 H          -0.4715   -1.2346   -2.8209 H       1  UNL1        0.0459
     55 H           0.4191    0.2719   -2.4848 H       1  UNL1        0.0459
     56 H           5.3792   -1.6180    1.0599 H       1  UNL1        0.0642
@<TRIPOS>BOND
     1     1     2    2
     2     2     3    1
     3     3     4    2
     4     3     5   am
     5     5     6    1
     6     6     7   ar
     7     7     8   ar
     8     8     9   ar
     9     9    10    1
    10    10    11    2
    11    10    12    2
    12    10    13    1
    13    13    14    1
    14    14    15    1
    15    15    16    1
    16    16    17   am
    17    17    18    2
    18    17    19    1
    19    19    20    1
    20    20    21    1
    21    21    22   ar
    22    22    23   ar
    23    23    24   ar
    24    24    25   ar
    25    25    26   ar
    26    16    27    1
    27    27    28    1
    28     9    29   ar
    29    29    30    1
    30    30    31    1
    31    30    32    1
    32    30    33    1
    33    29    34   ar
    34    34     6   ar
    35    28    13    1
    36    26    21   ar
    37     1    35    1
    38     1    36    1
    39     2    37    1
    40     5    38    1
    41     7    39    1
    42     8    40    1
    43    14    41    1
    44    14    42    1
    45    15    43    1
    46    15    44    1
    47    20    45    1
    48    20    46    1
    49    22    47    1
    50    23    48    1
    51    24    49    1
    52    25    50    1
    53    26    51    1
    54    27    52    1
    55    27    53    1
    56    28    54    1
    57    28    55    1
    58    34    56    1
