
     RDKit          3D

 52 57  0  0  0  0  0  0  0  0999 V2000
   -4.1028   -1.0678    1.5961 C   0  0  0  0  0  0  0  0  0  0  0  0
   -3.3359    0.1704    1.3368 C   0  0  0  0  0  0  0  0  0  0  0  0
   -3.7364    1.4337    1.4375 N   0  0  0  0  0  0  0  0  0  0  0  0
   -2.7957    2.2788    1.1314 N   0  0  0  0  0  0  0  0  0  0  0  0
   -2.8264    3.7034    1.1157 C   0  0  0  0  0  0  0  0  0  0  0  0
   -2.6976    4.3277   -0.2684 C   0  0  0  0  0  0  0  0  0  0  0  0
   -3.9315    4.4785    0.5114 C   0  0  0  0  0  0  0  0  0  0  0  0
   -1.6977    1.5408    0.8054 C   0  0  0  0  0  0  0  0  0  0  0  0
   -1.9962    0.2075    0.9221 C   0  0  0  0  0  0  0  0  0  0  0  0
   -0.8246   -0.5999    0.5780 C   0  0  0  0  0  0  0  0  0  0  0  0
   -1.1022   -1.6056   -0.4763 C   0  0  0  0  0  0  0  0  0  0  0  0
   -1.6480   -1.2931   -1.6951 C   0  0  0  0  0  0  0  0  0  0  0  0
   -1.8808   -2.2934   -2.6391 C   0  0  0  0  0  0  0  0  0  0  0  0
   -1.5809   -3.6167   -2.4001 C   0  0  0  0  0  0  0  0  0  0  0  0
   -1.8776   -4.8713   -3.5967 Cl  0  0  0  0  0  0  0  0  0  0  0  0
   -1.0316   -3.9345   -1.1745 C   0  0  0  0  0  0  0  0  0  0  0  0
   -0.8020   -2.9448   -0.2425 C   0  0  0  0  0  0  0  0  0  0  0  0
   -0.2591   -3.2949    0.9545 F   0  0  0  0  0  0  0  0  0  0  0  0
    0.2038    0.3147    0.2346 N   0  0  0  0  0  0  0  0  0  0  0  0
    1.5551    0.0349   -0.1886 C   0  0  0  0  0  0  0  0  0  0  0  0
    1.9081   -0.1356   -1.5082 C   0  0  0  0  0  0  0  0  0  0  0  0
    3.2135   -0.4018   -1.8871 C   0  0  0  0  0  0  0  0  0  0  0  0
    3.6361   -0.5913   -3.2915 C   0  0  0  0  0  0  0  0  0  0  0  0
    4.1565   -0.4915   -0.8925 C   0  0  0  0  0  0  0  0  0  0  0  0
    5.4734   -0.7315   -0.9216 N   0  0  0  0  0  0  0  0  0  0  0  0
    5.9935   -0.7271    0.2917 N   0  0  0  0  0  0  0  0  0  0  0  0
    4.9726   -0.4750    1.1300 C   0  0  0  0  0  0  0  0  0  0  0  0
    5.0969   -0.3773    2.6115 C   0  0  0  0  0  0  0  0  0  0  0  0
    3.8370   -0.3272    0.4250 N   0  0  0  0  0  0  0  0  0  0  0  0
    2.5472   -0.0675    0.7580 C   0  0  0  0  0  0  0  0  0  0  0  0
   -0.3149    1.6283    0.3731 C   0  0  0  0  0  0  0  0  0  0  0  0
    0.3056    2.7233    0.1608 O   0  0  0  0  0  0  0  0  0  0  0  0
   -5.0664   -0.7647    2.0698 H   0  0  0  0  0  0  0  0  0  0  0  0
   -4.4164   -1.5635    0.6317 H   0  0  0  0  0  0  0  0  0  0  0  0
   -3.5970   -1.7462    2.2816 H   0  0  0  0  0  0  0  0  0  0  0  0
   -2.2700    4.1765    1.9631 H   0  0  0  0  0  0  0  0  0  0  0  0
   -1.9156    5.1168   -0.3105 H   0  0  0  0  0  0  0  0  0  0  0  0
   -2.7273    3.6791   -1.1495 H   0  0  0  0  0  0  0  0  0  0  0  0
   -4.1218    5.4887    0.9469 H   0  0  0  0  0  0  0  0  0  0  0  0
   -4.8559    3.9723    0.1410 H   0  0  0  0  0  0  0  0  0  0  0  0
   -0.5063   -1.1246    1.5055 H   0  0  0  0  0  0  0  0  0  0  0  0
   -1.8902   -0.2576   -1.9002 H   0  0  0  0  0  0  0  0  0  0  0  0
   -2.3103   -2.0386   -3.5949 H   0  0  0  0  0  0  0  0  0  0  0  0
   -0.7911   -4.9795   -0.9768 H   0  0  0  0  0  0  0  0  0  0  0  0
    1.1444   -0.0598   -2.2756 H   0  0  0  0  0  0  0  0  0  0  0  0
    4.3481   -1.4325   -3.4109 H   0  0  0  0  0  0  0  0  0  0  0  0
    2.7104   -0.7455   -3.8954 H   0  0  0  0  0  0  0  0  0  0  0  0
    4.0772    0.3701   -3.6433 H   0  0  0  0  0  0  0  0  0  0  0  0
    4.1036   -0.4318    3.0945 H   0  0  0  0  0  0  0  0  0  0  0  0
    5.6314    0.5626    2.8337 H   0  0  0  0  0  0  0  0  0  0  0  0
    5.6749   -1.2752    2.9337 H   0  0  0  0  0  0  0  0  0  0  0  0
    2.3210    0.0590    1.8153 H   0  0  0  0  0  0  0  0  0  0  0  0
  1  2  1  0
  2  3  2  0
  3  4  1  0
  4  5  1  0
  5  6  1  0
  6  7  1  0
  4  8  1  0
  8  9  2  0
  9 10  1  0
 10 11  1  0
 11 12  2  0
 12 13  1  0
 13 14  2  0
 14 15  1  0
 14 16  1  0
 16 17  2  0
 17 18  1  0
 10 19  1  0
 19 20  1  0
 20 21  1  0
 21 22  2  0
 22 23  1  0
 22 24  1  0
 24 25  2  0
 25 26  1  0
 26 27  2  0
 27 28  1  0
 27 29  1  0
 29 30  1  0
 19 31  1  0
 31 32  2  0
  9  2  1  0
 17 11  1  0
 30 20  2  0
  7  5  1  0
 31  8  1  0
 29 24  1  0
  1 33  1  0
  1 34  1  0
  1 35  1  0
  5 36  1  0
  6 37  1  0
  6 38  1  0
  7 39  1  0
  7 40  1  0
 10 41  1  0
 12 42  1  0
 13 43  1  0
 16 44  1  0
 21 45  1  0
 23 46  1  0
 23 47  1  0
 23 48  1  0
 28 49  1  0
 28 50  1  0
 28 51  1  0
 30 52  1  0
M  END
$$$$
