@<TRIPOS>MOLECULE
*****
 52 57 0 0 0
SMALL
GASTEIGER

@<TRIPOS>ATOM
      1 C          -4.1028   -1.0678    1.5961 C.3     1  UNL1       -0.0203
      2 C          -3.3359    0.1704    1.3368 C.ar    1  UNL1        0.0660
      3 N          -3.7364    1.4337    1.4375 N.ar    1  UNL1       -0.1752
      4 N          -2.7957    2.2788    1.1314 N.ar    1  UNL1       -0.2556
      5 C          -2.8264    3.7034    1.1157 C.3     1  UNL1        0.0537
      6 C          -2.6976    4.3277   -0.2684 C.3     1  UNL1       -0.0285
      7 C          -3.9315    4.4785    0.5114 C.3     1  UNL1       -0.0285
      8 C          -1.6977    1.5408    0.8054 C.ar    1  UNL1        0.1297
      9 C          -1.9962    0.2075    0.9221 C.ar    1  UNL1        0.0305
     10 C          -0.8246   -0.5999    0.5780 C.3     1  UNL1        0.0881
     11 C          -1.1022   -1.6056   -0.4763 C.ar    1  UNL1        0.0131
     12 C          -1.6480   -1.2931   -1.6951 C.ar    1  UNL1       -0.0523
     13 C          -1.8808   -2.2934   -2.6391 C.ar    1  UNL1       -0.0429
     14 C          -1.5809   -3.6167   -2.4001 C.ar    1  UNL1        0.0437
     15 CL         -1.8776   -4.8713   -3.5967 Cl      1  UNL1       -0.0835
     16 C          -1.0316   -3.9345   -1.1745 C.ar    1  UNL1       -0.0078
     17 C          -0.8020   -2.9448   -0.2425 C.ar    1  UNL1        0.1300
     18 F          -0.2591   -3.2949    0.9545 F       1  UNL1       -0.2051
     19 N           0.2038    0.3147    0.2346 N.am    1  UNL1       -0.2530
     20 C           1.5551    0.0349   -0.1886 C.ar    1  UNL1        0.0545
     21 C           1.9081   -0.1356   -1.5082 C.ar    1  UNL1       -0.0324
     22 C           3.2135   -0.4018   -1.8871 C.ar    1  UNL1       -0.0041
     23 C           3.6361   -0.5913   -3.2915 C.3     1  UNL1       -0.0361
     24 C           4.1565   -0.4915   -0.8925 C.ar    1  UNL1        0.1641
     25 N           5.4734   -0.7315   -0.9216 N.ar    1  UNL1       -0.1292
     26 N           5.9935   -0.7271    0.2917 N.ar    1  UNL1       -0.1340
     27 C           4.9726   -0.4750    1.1300 C.ar    1  UNL1        0.1347
     28 C           5.0969   -0.3773    2.6115 C.3     1  UNL1       -0.0041
     29 N           3.8370   -0.3272    0.4250 N.ar    1  UNL1       -0.2846
     30 C           2.5472   -0.0675    0.7580 C.ar    1  UNL1        0.0344
     31 C          -0.3149    1.6283    0.3731 C.2     1  UNL1        0.2700
     32 O           0.3056    2.7233    0.1608 O.2     1  UNL1       -0.2679
     33 H          -5.0664   -0.7647    2.0698 H       1  UNL1        0.0293
     34 H          -4.4164   -1.5635    0.6317 H       1  UNL1        0.0293
     35 H          -3.5970   -1.7462    2.2816 H       1  UNL1        0.0293
     36 H          -2.2700    4.1765    1.9631 H       1  UNL1        0.0545
     37 H          -1.9156    5.1168   -0.3105 H       1  UNL1        0.0286
     38 H          -2.7273    3.6791   -1.1495 H       1  UNL1        0.0286
     39 H          -4.1218    5.4887    0.9469 H       1  UNL1        0.0286
     40 H          -4.8559    3.9723    0.1410 H       1  UNL1        0.0286
     41 H          -0.5063   -1.1246    1.5055 H       1  UNL1        0.0607
     42 H          -1.8902   -0.2576   -1.9002 H       1  UNL1        0.0622
     43 H          -2.3103   -2.0386   -3.5949 H       1  UNL1        0.0632
     44 H          -0.7911   -4.9795   -0.9768 H       1  UNL1        0.0661
     45 H           1.1444   -0.0598   -2.2756 H       1  UNL1        0.0640
     46 H           4.3481   -1.4325   -3.4109 H       1  UNL1        0.0279
     47 H           2.7104   -0.7455   -3.8954 H       1  UNL1        0.0279
     48 H           4.0772    0.3701   -3.6433 H       1  UNL1        0.0279
     49 H           4.1036   -0.4318    3.0945 H       1  UNL1        0.0308
     50 H           5.6314    0.5626    2.8337 H       1  UNL1        0.0308
     51 H           5.6749   -1.2752    2.9337 H       1  UNL1        0.0308
     52 H           2.3210    0.0590    1.8153 H       1  UNL1        0.0833
@<TRIPOS>BOND
     1     1     2    1
     2     2     3   ar
     3     3     4   ar
     4     4     5    1
     5     5     6    1
     6     6     7    1
     7     4     8   ar
     8     8     9   ar
     9     9    10    1
    10    10    11    1
    11    11    12   ar
    12    12    13   ar
    13    13    14   ar
    14    14    15    1
    15    14    16   ar
    16    16    17   ar
    17    17    18    1
    18    10    19    1
    19    19    20    1
    20    20    21   ar
    21    21    22   ar
    22    22    23    1
    23    22    24   ar
    24    24    25   ar
    25    25    26   ar
    26    26    27   ar
    27    27    28    1
    28    27    29   ar
    29    29    30   ar
    30    19    31   am
    31    31    32    2
    32     9     2   ar
    33    17    11   ar
    34    30    20   ar
    35     7     5    1
    36    31     8    1
    37    29    24   ar
    38     1    33    1
    39     1    34    1
    40     1    35    1
    41     5    36    1
    42     6    37    1
    43     6    38    1
    44     7    39    1
    45     7    40    1
    46    10    41    1
    47    12    42    1
    48    13    43    1
    49    16    44    1
    50    21    45    1
    51    23    46    1
    52    23    47    1
    53    23    48    1
    54    28    49    1
    55    28    50    1
    56    28    51    1
    57    30    52    1
