@<TRIPOS>MOLECULE
*****
 50 54 0 0 0
SMALL
GASTEIGER

@<TRIPOS>ATOM
      1 C          -5.8762   -2.5670   -2.1533 C.3     1  UNL1       -0.0209
      2 C          -5.3623   -2.3153   -0.7640 C.ar    1  UNL1        0.0571
      3 C          -5.5278   -3.2961    0.1851 C.ar    1  UNL1        0.0486
      4 N          -5.0922   -3.1206    1.4507 N.ar    1  UNL1       -0.2593
      5 C          -4.4859   -1.9360    1.7446 C.ar    1  UNL1        0.0566
      6 C          -4.3024   -0.9327    0.8239 C.ar    1  UNL1        0.1263
      7 C          -3.6469    0.2950    1.2557 C.ar    1  UNL1        0.1842
      8 N          -4.0178    1.0881    2.3052 N.ar    1  UNL1       -0.1274
      9 N          -3.1799    2.1085    2.3562 N.ar    1  UNL1       -0.1320
     10 C          -2.2716    2.0205    1.3845 C.ar    1  UNL1        0.1542
     11 N          -2.5619    0.9039    0.7111 N.ar    1  UNL1       -0.3066
     12 C          -1.7755    0.4771   -0.4187 C.3     1  UNL1        0.0423
     13 C          -0.3494    0.9012   -0.4238 C.3     1  UNL1        0.0338
     14 N          -0.0823    1.9822    0.4821 N.am    1  UNL1       -0.2860
     15 C           1.2677    2.1457    0.8881 C.2     1  UNL1        0.2472
     16 O           1.5466    3.0922    1.6791 O.2     1  UNL1       -0.2700
     17 C           2.3380    1.2623    0.4230 C.ar    1  UNL1        0.0370
     18 C           2.4907    0.0133    0.9707 C.ar    1  UNL1       -0.0490
     19 C           3.5191   -0.8351    0.5367 C.ar    1  UNL1       -0.0528
     20 C           4.3885   -0.4171   -0.4497 C.ar    1  UNL1       -0.0113
     21 C           5.4413   -1.3066   -0.8885 C.ar    1  UNL1        0.0193
     22 C           6.4180   -1.1766   -1.7957 C.ar    1  UNL1       -0.0469
     23 C           7.2988   -2.1464   -2.0359 C.ar    1  UNL1       -0.0541
     24 C           7.1602   -3.3349   -1.2837 C.ar    1  UNL1       -0.0237
     25 S           5.7268   -2.9589   -0.2538 S.2     1  UNL1       -0.0967
     26 C           4.2083    0.8383   -0.9782 C.ar    1  UNL1       -0.0528
     27 C           3.1886    1.6804   -0.5480 C.ar    1  UNL1       -0.0490
     28 C          -1.1129    2.8511    0.9355 C.3     1  UNL1        0.0834
     29 C          -0.7186    3.8142    2.0314 C.3     1  UNL1       -0.0393
     30 N          -4.7540   -1.1571   -0.4243 N.ar    1  UNL1       -0.2457
     31 H          -6.9641   -2.8024   -2.1306 H       1  UNL1        0.0293
     32 H          -5.6990   -1.6382   -2.7279 H       1  UNL1        0.0293
     33 H          -5.2642   -3.3639   -2.5745 H       1  UNL1        0.0293
     34 H          -6.0132   -4.2222   -0.0752 H       1  UNL1        0.0848
     35 H          -4.1344   -1.7861    2.7588 H       1  UNL1        0.0852
     36 H          -1.7517   -0.6684   -0.4620 H       1  UNL1        0.0508
     37 H          -2.3216    0.7298   -1.3616 H       1  UNL1        0.0508
     38 H          -0.1307    1.2203   -1.4897 H       1  UNL1        0.0482
     39 H           0.3104    0.0222   -0.1733 H       1  UNL1        0.0482
     40 H           1.8190   -0.3206    1.7323 H       1  UNL1        0.0625
     41 H           3.5754   -1.8067    1.0171 H       1  UNL1        0.0624
     42 H           6.4708   -0.1893   -2.3684 H       1  UNL1        0.0629
     43 H           8.1303   -2.0586   -2.7992 H       1  UNL1        0.0623
     44 H           7.7599   -4.2634   -1.3010 H       1  UNL1        0.0693
     45 H           4.8859    1.1674   -1.7540 H       1  UNL1        0.0624
     46 H           3.1306    2.6488   -1.0242 H       1  UNL1        0.0625
     47 H          -1.5147    3.4545    0.0810 H       1  UNL1        0.0579
     48 H          -0.2986    3.3410    2.9170 H       1  UNL1        0.0252
     49 H          -1.7058    4.2622    2.3782 H       1  UNL1        0.0252
     50 H          -0.1591    4.6543    1.6108 H       1  UNL1        0.0252
@<TRIPOS>BOND
     1     1     2    1
     2     2     3   ar
     3     3     4   ar
     4     4     5   ar
     5     5     6   ar
     6     6     7    1
     7     7     8   ar
     8     8     9   ar
     9     9    10   ar
    10    10    11   ar
    11    11    12    1
    12    12    13    1
    13    13    14    1
    14    14    15   am
    15    15    16    2
    16    15    17    1
    17    17    18   ar
    18    18    19   ar
    19    19    20   ar
    20    20    21    1
    21    21    22   ar
    22    22    23   ar
    23    23    24   ar
    24    24    25   ar
    25    20    26   ar
    26    26    27   ar
    27    14    28    1
    28    28    29    1
    29     6    30   ar
    30    30     2   ar
    31    11     7   ar
    32    27    17   ar
    33    28    10    1
    34    25    21   ar
    35     1    31    1
    36     1    32    1
    37     1    33    1
    38     3    34    1
    39     5    35    1
    40    12    36    1
    41    12    37    1
    42    13    38    1
    43    13    39    1
    44    18    40    1
    45    19    41    1
    46    22    42    1
    47    23    43    1
    48    24    44    1
    49    26    45    1
    50    27    46    1
    51    28    47    1
    52    29    48    1
    53    29    49    1
    54    29    50    1
