
     RDKit          3D

 54 58  0  0  0  0  0  0  0  0999 V2000
    0.8468    1.0495   -0.3852 C   0  0  0  0  0  0  0  0  0  0  0  0
    1.4451   -0.3407   -0.2993 C   0  0  1  0  0  0  0  0  0  0  0  0
    0.3400   -1.2979   -0.0297 C   0  0  0  0  0  0  0  0  0  0  0  0
   -0.9665   -0.8197    0.0092 C   0  0  0  0  0  0  0  0  0  0  0  0
   -2.0230   -1.6472    0.2520 C   0  0  0  0  0  0  0  0  0  0  0  0
   -3.3582   -1.1962    0.2803 N   0  0  0  0  0  0  0  0  0  0  0  0
   -3.8671   -0.0350   -0.3416 C   0  0  0  0  0  0  0  0  0  0  0  0
   -3.1350    0.7736   -1.1120 N   0  0  0  0  0  0  0  0  0  0  0  0
   -3.5772    1.8733   -1.7130 C   0  0  0  0  0  0  0  0  0  0  0  0
   -4.9006    2.2366   -1.5456 C   0  0  0  0  0  0  0  0  0  0  0  0
   -5.6987    1.4347   -0.7591 C   0  0  0  0  0  0  0  0  0  0  0  0
   -7.0111    1.7776   -0.5816 C   0  0  0  0  0  0  0  0  0  0  0  0
   -7.8282    0.9927    0.1993 C   0  0  0  0  0  0  0  0  0  0  0  0
   -9.5107    1.4046    0.4448 Cl  0  0  0  0  0  0  0  0  0  0  0  0
   -7.3109   -0.1289    0.7918 C   0  0  0  0  0  0  0  0  0  0  0  0
   -6.0169   -0.4246    0.5883 N   0  0  0  0  0  0  0  0  0  0  0  0
   -5.1973    0.3137   -0.1621 C   0  0  0  0  0  0  0  0  0  0  0  0
   -1.7494   -3.0041    0.4636 C   0  0  0  0  0  0  0  0  0  0  0  0
   -0.4571   -3.4696    0.4242 C   0  0  0  0  0  0  0  0  0  0  0  0
    0.6136   -2.6382    0.1787 C   0  0  0  0  0  0  0  0  0  0  0  0
    1.8928   -3.1091    0.1411 F   0  0  0  0  0  0  0  0  0  0  0  0
    2.0933   -0.5911   -1.6329 C   0  0  0  0  0  0  0  0  0  0  0  0
    3.8439   -0.5978   -1.5696 S   0  0  0  0  0  6  0  0  0  0  0  0
    4.4509    0.1902   -2.7246 O   0  0  0  0  0  0  0  0  0  0  0  0
    4.3936   -2.0044   -1.7281 O   0  0  0  0  0  0  0  0  0  0  0  0
    4.4218    0.1228   -0.0872 C   0  0  0  0  0  0  0  0  0  0  0  0
    4.6822    1.6044   -0.1946 C   0  0  0  0  0  0  0  0  0  0  0  0
    5.9662    1.7698    0.5680 C   0  0  0  0  0  0  0  0  0  0  0  0
    6.6313    0.5775    0.5561 O   0  0  0  0  0  0  0  0  0  0  0  0
    5.7579   -0.4440    0.3125 C   0  0  0  0  0  0  0  0  0  0  0  0
    3.5031   -0.2107    1.0211 C   0  0  0  0  0  0  0  0  0  0  0  0
    4.0060   -0.3450    2.3719 N   0  0  0  0  0  0  0  0  0  0  0  0
    2.2984   -0.3783    0.8128 N   0  0  0  0  0  0  0  0  0  0  0  0
    0.3499    1.3644    0.5548 H   0  0  0  0  0  0  0  0  0  0  0  0
    0.1907    1.1867   -1.2687 H   0  0  0  0  0  0  0  0  0  0  0  0
    1.6572    1.8181   -0.5279 H   0  0  0  0  0  0  0  0  0  0  0  0
   -1.1762    0.2393   -0.1423 H   0  0  0  0  0  0  0  0  0  0  0  0
   -4.0561   -1.7908    0.8271 H   0  0  0  0  0  0  0  0  0  0  0  0
   -2.9420    2.4887   -2.3234 H   0  0  0  0  0  0  0  0  0  0  0  0
   -5.2613    3.1148   -2.0229 H   0  0  0  0  0  0  0  0  0  0  0  0
   -7.3993    2.6718   -1.0615 H   0  0  0  0  0  0  0  0  0  0  0  0
   -7.9176   -0.7781    1.4159 H   0  0  0  0  0  0  0  0  0  0  0  0
   -2.5677   -3.6589    0.6549 H   0  0  0  0  0  0  0  0  0  0  0  0
   -0.2549   -4.5190    0.5885 H   0  0  0  0  0  0  0  0  0  0  0  0
    1.7827    0.1375   -2.4096 H   0  0  0  0  0  0  0  0  0  0  0  0
    1.7636   -1.5869   -2.0217 H   0  0  0  0  0  0  0  0  0  0  0  0
    4.7930    1.9168   -1.2362 H   0  0  0  0  0  0  0  0  0  0  0  0
    3.8658    2.2244    0.2626 H   0  0  0  0  0  0  0  0  0  0  0  0
    5.7130    2.1396    1.5817 H   0  0  0  0  0  0  0  0  0  0  0  0
    6.5947    2.5319    0.0523 H   0  0  0  0  0  0  0  0  0  0  0  0
    5.7243   -1.1142    1.1855 H   0  0  0  0  0  0  0  0  0  0  0  0
    6.2051   -1.0649   -0.5183 H   0  0  0  0  0  0  0  0  0  0  0  0
    4.0744    0.5133    2.9476 H   0  0  0  0  0  0  0  0  0  0  0  0
    4.2819   -1.2729    2.7306 H   0  0  0  0  0  0  0  0  0  0  0  0
  2  1  1  6
  2  3  1  0
  3  4  2  0
  4  5  1  0
  5  6  1  0
  6  7  1  0
  7  8  2  0
  8  9  1  0
  9 10  2  0
 10 11  1  0
 11 12  2  0
 12 13  1  0
 13 14  1  0
 13 15  2  0
 15 16  1  0
 16 17  2  0
  5 18  2  0
 18 19  1  0
 19 20  2  0
 20 21  1  0
  2 22  1  0
 22 23  1  0
 23 24  2  0
 23 25  2  0
 23 26  1  0
 26 27  1  0
 27 28  1  0
 28 29  1  0
 29 30  1  0
 26 31  1  0
 31 32  1  0
 31 33  2  0
 33  2  1  0
 20  3  1  0
 30 26  1  0
 17  7  1  0
 17 11  1  0
  1 34  1  0
  1 35  1  0
  1 36  1  0
  4 37  1  0
  6 38  1  0
  9 39  1  0
 10 40  1  0
 12 41  1  0
 15 42  1  0
 18 43  1  0
 19 44  1  0
 22 45  1  0
 22 46  1  0
 27 47  1  0
 27 48  1  0
 28 49  1  0
 28 50  1  0
 30 51  1  0
 30 52  1  0
 32 53  1  0
 32 54  1  0
M  END
$$$$
