@<TRIPOS>MOLECULE
*****
 54 58 0 0 0
SMALL
GASTEIGER

@<TRIPOS>ATOM
      1 C           0.8468    1.0495   -0.3852 C.3     1  UNL1       -0.0112
      2 C           1.4451   -0.3407   -0.2993 C.3     1  UNL1        0.1959
      3 C           0.3400   -1.2979   -0.0297 C.ar    1  UNL1        0.0420
      4 C          -0.9665   -0.8197    0.0092 C.ar    1  UNL1       -0.0301
      5 C          -2.0230   -1.6472    0.2520 C.ar    1  UNL1        0.0330
      6 N          -3.3582   -1.1962    0.2803 N.pl3   1  UNL1       -0.2977
      7 C          -3.8671   -0.0350   -0.3416 C.ar    1  UNL1        0.1490
      8 N          -3.1350    0.7736   -1.1120 N.ar    1  UNL1       -0.2380
      9 C          -3.5772    1.8733   -1.7130 C.ar    1  UNL1        0.0304
     10 C          -4.9006    2.2366   -1.5456 C.ar    1  UNL1       -0.0342
     11 C          -5.6987    1.4347   -0.7591 C.ar    1  UNL1        0.0066
     12 C          -7.0111    1.7776   -0.5816 C.ar    1  UNL1       -0.0326
     13 C          -7.8282    0.9927    0.1993 C.ar    1  UNL1        0.0596
     14 CL         -9.5107    1.4046    0.4448 Cl      1  UNL1       -0.0820
     15 C          -7.3109   -0.1289    0.7918 C.ar    1  UNL1        0.0467
     16 N          -6.0169   -0.4246    0.5883 N.ar    1  UNL1       -0.2501
     17 C          -5.1973    0.3137   -0.1621 C.ar    1  UNL1        0.1109
     18 C          -1.7494   -3.0041    0.4636 C.ar    1  UNL1       -0.0378
     19 C          -0.4571   -3.4696    0.4242 C.ar    1  UNL1       -0.0243
     20 C           0.6136   -2.6382    0.1787 C.ar    1  UNL1        0.1311
     21 F           1.8928   -3.1091    0.1411 F       1  UNL1       -0.2050
     22 C           2.0933   -0.5911   -1.6329 C.3     1  UNL1        0.1184
     23 S           3.8439   -0.5978   -1.5696 S.O2    1  UNL1       -0.0073
     24 O           4.4509    0.1902   -2.7246 O.2     1  UNL1       -0.1730
     25 O           4.3936   -2.0044   -1.7281 O.2     1  UNL1       -0.1730
     26 C           4.4218    0.1228   -0.0872 C.3     1  UNL1        0.2135
     27 C           4.6822    1.6044   -0.1946 C.3     1  UNL1        0.0093
     28 C           5.9662    1.7698    0.5680 C.3     1  UNL1        0.0504
     29 O           6.6313    0.5775    0.5561 O.3     1  UNL1       -0.3769
     30 C           5.7579   -0.4440    0.3125 C.3     1  UNL1        0.0841
     31 C           3.5031   -0.2107    1.0211 C.2     1  UNL1        0.3096
     32 N           4.0060   -0.3450    2.3719 N.pl3   1  UNL1       -0.2488
     33 N           2.2984   -0.3783    0.8128 N.2     1  UNL1       -0.0726
     34 H           0.3499    1.3644    0.5548 H       1  UNL1        0.0279
     35 H           0.1907    1.1867   -1.2687 H       1  UNL1        0.0279
     36 H           1.6572    1.8181   -0.5279 H       1  UNL1        0.0279
     37 H          -1.1762    0.2393   -0.1423 H       1  UNL1        0.0641
     38 H          -4.0561   -1.7908    0.8271 H       1  UNL1        0.1536
     39 H          -2.9420    2.4887   -2.3234 H       1  UNL1        0.0830
     40 H          -5.2613    3.1148   -2.0229 H       1  UNL1        0.0639
     41 H          -7.3993    2.6718   -1.0615 H       1  UNL1        0.0639
     42 H          -7.9176   -0.7781    1.4159 H       1  UNL1        0.0844
     43 H          -2.5677   -3.6589    0.6549 H       1  UNL1        0.0637
     44 H          -0.2549   -4.5190    0.5885 H       1  UNL1        0.0647
     45 H           1.7827    0.1375   -2.4096 H       1  UNL1        0.0550
     46 H           1.7636   -1.5869   -2.0217 H       1  UNL1        0.0550
     47 H           4.7930    1.9168   -1.2362 H       1  UNL1        0.0315
     48 H           3.8658    2.2244    0.2626 H       1  UNL1        0.0315
     49 H           5.7130    2.1396    1.5817 H       1  UNL1        0.0560
     50 H           6.5947    2.5319    0.0523 H       1  UNL1        0.0560
     51 H           5.7243   -1.1142    1.1855 H       1  UNL1        0.0588
     52 H           6.2051   -1.0649   -0.5183 H       1  UNL1        0.0588
     53 H           4.0744    0.5133    2.9476 H       1  UNL1        0.2881
     54 H           4.2819   -1.2729    2.7306 H       1  UNL1        0.2881
@<TRIPOS>BOND
     1     2     1    1
     2     2     3    1
     3     3     4   ar
     4     4     5   ar
     5     5     6    1
     6     6     7    1
     7     7     8   ar
     8     8     9   ar
     9     9    10   ar
    10    10    11   ar
    11    11    12   ar
    12    12    13   ar
    13    13    14    1
    14    13    15   ar
    15    15    16   ar
    16    16    17   ar
    17     5    18   ar
    18    18    19   ar
    19    19    20   ar
    20    20    21    1
    21     2    22    1
    22    22    23    1
    23    23    24    2
    24    23    25    2
    25    23    26    1
    26    26    27    1
    27    27    28    1
    28    28    29    1
    29    29    30    1
    30    26    31    1
    31    31    32    1
    32    31    33    2
    33    33     2    1
    34    20     3   ar
    35    30    26    1
    36    17     7   ar
    37    17    11   ar
    38     1    34    1
    39     1    35    1
    40     1    36    1
    41     4    37    1
    42     6    38    1
    43     9    39    1
    44    10    40    1
    45    12    41    1
    46    15    42    1
    47    18    43    1
    48    19    44    1
    49    22    45    1
    50    22    46    1
    51    27    47    1
    52    27    48    1
    53    28    49    1
    54    28    50    1
    55    30    51    1
    56    30    52    1
    57    32    53    1
    58    32    54    1
