
     RDKit          3D

 56 60  0  0  0  0  0  0  0  0999 V2000
    4.1724   -1.1914    2.6334 C   0  0  0  0  0  0  0  0  0  0  0  0
    3.0318    0.1762    2.2881 S   0  0  0  0  0  0  0  0  0  0  0  0
    3.7421    1.3127    1.0909 C   0  0  0  0  0  0  0  0  0  0  0  0
    4.5189    2.3872    1.5433 C   0  0  0  0  0  0  0  0  0  0  0  0
    5.1058    3.2490    0.6494 C   0  0  0  0  0  0  0  0  0  0  0  0
    4.9086    3.0260   -0.7009 C   0  0  0  0  0  0  0  0  0  0  0  0
    4.1437    1.9681   -1.1345 C   0  0  0  0  0  0  0  0  0  0  0  0
    3.5390    1.0834   -0.2421 C   0  0  0  0  0  0  0  0  0  0  0  0
    2.7727   -0.0117   -0.6907 N   0  0  0  0  0  0  0  0  0  0  0  0
    1.3895   -0.1929   -0.4859 C   0  0  0  0  0  0  0  0  0  0  0  0
    0.8090   -1.3530   -0.8169 N   0  0  0  0  0  0  0  0  0  0  0  0
   -0.4897   -1.6416   -0.6999 C   0  0  0  0  0  0  0  0  0  0  0  0
   -0.9762   -2.9158   -1.0887 N   0  0  0  0  0  0  0  0  0  0  0  0
   -0.0509   -3.9150   -1.6155 C   0  0  0  0  0  0  0  0  0  0  0  0
   -0.0903   -5.0571   -0.6049 C   0  0  0  0  0  0  0  0  0  0  0  0
   -1.4241   -5.5499   -0.5174 N   0  0  0  0  0  0  0  0  0  0  0  0
   -2.4266   -4.7936   -1.1919 C   0  0  0  0  0  0  0  0  0  0  0  0
   -2.3569   -3.3121   -1.0002 C   0  0  0  0  0  0  0  0  0  0  0  0
   -1.2845   -0.6910   -0.2097 N   0  0  0  0  0  0  0  0  0  0  0  0
   -0.7701    0.5096    0.1471 C   0  0  0  0  0  0  0  0  0  0  0  0
   -1.5963    1.5101    0.6530 C   0  0  0  0  0  0  0  0  0  0  0  0
   -2.9660    1.2648    0.8278 N   0  0  0  0  0  0  0  0  0  0  0  0
   -3.9698    2.1401    1.3055 C   0  0  0  0  0  0  0  0  0  0  0  0
   -4.5840    3.1225    0.4004 C   0  0  0  0  0  0  0  0  0  0  0  0
   -3.7727    4.1771   -0.2674 C   0  0  0  0  0  0  0  0  0  0  0  0
   -4.4103    3.0806   -1.0741 C   0  0  0  0  0  0  0  0  0  0  0  0
   -1.0191    2.6730    0.9770 N   0  0  0  0  0  0  0  0  0  0  0  0
    0.2811    2.9618    0.8589 C   0  0  0  0  0  0  0  0  0  0  0  0
    1.0779    1.9977    0.3718 N   0  0  0  0  0  0  0  0  0  0  0  0
    0.5711    0.8049    0.0251 C   0  0  0  0  0  0  0  0  0  0  0  0
    4.4928   -1.1286    3.6807 H   0  0  0  0  0  0  0  0  0  0  0  0
    3.6700   -2.1651    2.4621 H   0  0  0  0  0  0  0  0  0  0  0  0
    5.0388   -1.0886    1.9592 H   0  0  0  0  0  0  0  0  0  0  0  0
    4.6567    2.5418    2.6053 H   0  0  0  0  0  0  0  0  0  0  0  0
    5.7090    4.0839    0.9983 H   0  0  0  0  0  0  0  0  0  0  0  0
    5.3786    3.7135   -1.3897 H   0  0  0  0  0  0  0  0  0  0  0  0
    3.9745    1.7722   -2.1831 H   0  0  0  0  0  0  0  0  0  0  0  0
    3.3079   -0.7483   -1.2255 H   0  0  0  0  0  0  0  0  0  0  0  0
   -0.4175   -4.3167   -2.5904 H   0  0  0  0  0  0  0  0  0  0  0  0
    0.9592   -3.5263   -1.7749 H   0  0  0  0  0  0  0  0  0  0  0  0
    0.2190   -4.5984    0.3814 H   0  0  0  0  0  0  0  0  0  0  0  0
    0.6618   -5.8310   -0.8400 H   0  0  0  0  0  0  0  0  0  0  0  0
   -1.4307   -6.5168   -0.9119 H   0  0  0  0  0  0  0  0  0  0  0  0
   -3.4230   -5.1426   -0.8103 H   0  0  0  0  0  0  0  0  0  0  0  0
   -2.4425   -5.0340   -2.2833 H   0  0  0  0  0  0  0  0  0  0  0  0
   -2.8775   -2.9498   -0.1055 H   0  0  0  0  0  0  0  0  0  0  0  0
   -2.8709   -2.8500   -1.8899 H   0  0  0  0  0  0  0  0  0  0  0  0
   -3.2888    0.2703    0.5567 H   0  0  0  0  0  0  0  0  0  0  0  0
   -3.4924    2.7399    2.1590 H   0  0  0  0  0  0  0  0  0  0  0  0
   -4.7694    1.5152    1.8160 H   0  0  0  0  0  0  0  0  0  0  0  0
   -5.6307    3.4323    0.7033 H   0  0  0  0  0  0  0  0  0  0  0  0
   -4.2594    5.1881   -0.3337 H   0  0  0  0  0  0  0  0  0  0  0  0
   -2.6983    4.2178   -0.3379 H   0  0  0  0  0  0  0  0  0  0  0  0
   -5.2255    3.3945   -1.7300 H   0  0  0  0  0  0  0  0  0  0  0  0
   -3.7785    2.2674   -1.4967 H   0  0  0  0  0  0  0  0  0  0  0  0
    0.6608    3.9395    1.1502 H   0  0  0  0  0  0  0  0  0  0  0  0
  1  2  1  0
  2  3  1  0
  3  4  2  0
  4  5  1  0
  5  6  2  0
  6  7  1  0
  7  8  2  0
  8  9  1  0
  9 10  1  0
 10 11  2  0
 11 12  1  0
 12 13  1  0
 13 14  1  0
 14 15  1  0
 15 16  1  0
 16 17  1  0
 17 18  1  0
 12 19  2  0
 19 20  1  0
 20 21  2  0
 21 22  1  0
 22 23  1  0
 23 24  1  0
 24 25  1  0
 25 26  1  0
 21 27  1  0
 27 28  2  0
 28 29  1  0
 29 30  2  0
  8  3  1  0
 30 10  1  0
 18 13  1  0
 30 20  1  0
 26 24  1  0
  1 31  1  0
  1 32  1  0
  1 33  1  0
  4 34  1  0
  5 35  1  0
  6 36  1  0
  7 37  1  0
  9 38  1  0
 14 39  1  0
 14 40  1  0
 15 41  1  0
 15 42  1  0
 16 43  1  0
 17 44  1  0
 17 45  1  0
 18 46  1  0
 18 47  1  0
 22 48  1  0
 23 49  1  0
 23 50  1  0
 24 51  1  0
 25 52  1  0
 25 53  1  0
 26 54  1  0
 26 55  1  0
 28 56  1  0
M  END
$$$$
