@<TRIPOS>MOLECULE
*****
 56 60 0 0 0
SMALL
GASTEIGER

@<TRIPOS>ATOM
      1 C           4.1724   -1.1914    2.6334 C.3     1  UNL1       -0.0134
      2 S           3.0318    0.1762    2.2881 S.3     1  UNL1       -0.1268
      3 C           3.7421    1.3127    1.0909 C.ar    1  UNL1        0.0288
      4 C           4.5189    2.3872    1.5433 C.ar    1  UNL1       -0.0465
      5 C           5.1058    3.2490    0.6494 C.ar    1  UNL1       -0.0606
      6 C           4.9086    3.0260   -0.7009 C.ar    1  UNL1       -0.0599
      7 C           4.1437    1.9681   -1.1345 C.ar    1  UNL1       -0.0394
      8 C           3.5390    1.0834   -0.2421 C.ar    1  UNL1        0.0460
      9 N           2.7727   -0.0117   -0.6907 N.pl3   1  UNL1       -0.2967
     10 C           1.3895   -0.1929   -0.4859 C.ar    1  UNL1        0.1544
     11 N           0.8090   -1.3530   -0.8169 N.ar    1  UNL1       -0.1970
     12 C          -0.4897   -1.6416   -0.6999 C.ar    1  UNL1        0.2203
     13 N          -0.9762   -2.9158   -1.0887 N.pl3   1  UNL1       -0.2972
     14 C          -0.0509   -3.9150   -1.6155 C.3     1  UNL1        0.0274
     15 C          -0.0903   -5.0571   -0.6049 C.3     1  UNL1        0.0118
     16 N          -1.4241   -5.5499   -0.5174 N.3     1  UNL1       -0.3130
     17 C          -2.4266   -4.7936   -1.1919 C.3     1  UNL1        0.0118
     18 C          -2.3569   -3.3121   -1.0002 C.3     1  UNL1        0.0274
     19 N          -1.2845   -0.6910   -0.2097 N.ar    1  UNL1       -0.2092
     20 C          -0.7701    0.5096    0.1471 C.ar    1  UNL1        0.1357
     21 C          -1.5963    1.5101    0.6530 C.ar    1  UNL1        0.1484
     22 N          -2.9660    1.2648    0.8278 N.pl3   1  UNL1       -0.3270
     23 C          -3.9698    2.1401    1.3055 C.3     1  UNL1        0.0133
     24 C          -4.5840    3.1225    0.4004 C.3     1  UNL1       -0.0255
     25 C          -3.7727    4.1771   -0.2674 C.3     1  UNL1       -0.0485
     26 C          -4.4103    3.0806   -1.0741 C.3     1  UNL1       -0.0485
     27 N          -1.0191    2.6730    0.9770 N.ar    1  UNL1       -0.2187
     28 C           0.2811    2.9618    0.8589 C.ar    1  UNL1        0.1190
     29 N           1.0779    1.9977    0.3718 N.ar    1  UNL1       -0.2303
     30 C           0.5711    0.8049    0.0251 C.ar    1  UNL1        0.1343
     31 H           4.4928   -1.1286    3.6807 H       1  UNL1        0.0344
     32 H           3.6700   -2.1651    2.4621 H       1  UNL1        0.0344
     33 H           5.0388   -1.0886    1.9592 H       1  UNL1        0.0344
     34 H           4.6567    2.5418    2.6053 H       1  UNL1        0.0629
     35 H           5.7090    4.0839    0.9983 H       1  UNL1        0.0618
     36 H           5.3786    3.7135   -1.3897 H       1  UNL1        0.0618
     37 H           3.9745    1.7722   -2.1831 H       1  UNL1        0.0636
     38 H           3.3079   -0.7483   -1.2255 H       1  UNL1        0.1537
     39 H          -0.4175   -4.3167   -2.5904 H       1  UNL1        0.0477
     40 H           0.9592   -3.5263   -1.7749 H       1  UNL1        0.0477
     41 H           0.2190   -4.5984    0.3814 H       1  UNL1        0.0439
     42 H           0.6618   -5.8310   -0.8400 H       1  UNL1        0.0439
     43 H          -1.4307   -6.5168   -0.9119 H       1  UNL1        0.1220
     44 H          -3.4230   -5.1426   -0.8103 H       1  UNL1        0.0439
     45 H          -2.4425   -5.0340   -2.2833 H       1  UNL1        0.0439
     46 H          -2.8775   -2.9498   -0.1055 H       1  UNL1        0.0477
     47 H          -2.8709   -2.8500   -1.8899 H       1  UNL1        0.0477
     48 H          -3.2888    0.2703    0.5567 H       1  UNL1        0.1475
     49 H          -3.4924    2.7399    2.1590 H       1  UNL1        0.0464
     50 H          -4.7694    1.5152    1.8160 H       1  UNL1        0.0464
     51 H          -5.6307    3.4323    0.7033 H       1  UNL1        0.0316
     52 H          -4.2594    5.1881   -0.3337 H       1  UNL1        0.0269
     53 H          -2.6983    4.2178   -0.3379 H       1  UNL1        0.0269
     54 H          -5.2255    3.3945   -1.7300 H       1  UNL1        0.0269
     55 H          -3.7785    2.2674   -1.4967 H       1  UNL1        0.0269
     56 H           0.6608    3.9395    1.1502 H       1  UNL1        0.1048
@<TRIPOS>BOND
     1     1     2    1
     2     2     3    1
     3     3     4   ar
     4     4     5   ar
     5     5     6   ar
     6     6     7   ar
     7     7     8   ar
     8     8     9    1
     9     9    10    1
    10    10    11   ar
    11    11    12   ar
    12    12    13    1
    13    13    14    1
    14    14    15    1
    15    15    16    1
    16    16    17    1
    17    17    18    1
    18    12    19   ar
    19    19    20   ar
    20    20    21   ar
    21    21    22    1
    22    22    23    1
    23    23    24    1
    24    24    25    1
    25    25    26    1
    26    21    27   ar
    27    27    28   ar
    28    28    29   ar
    29    29    30   ar
    30     8     3   ar
    31    30    10   ar
    32    18    13    1
    33    30    20   ar
    34    26    24    1
    35     1    31    1
    36     1    32    1
    37     1    33    1
    38     4    34    1
    39     5    35    1
    40     6    36    1
    41     7    37    1
    42     9    38    1
    43    14    39    1
    44    14    40    1
    45    15    41    1
    46    15    42    1
    47    16    43    1
    48    17    44    1
    49    17    45    1
    50    18    46    1
    51    18    47    1
    52    22    48    1
    53    23    49    1
    54    23    50    1
    55    24    51    1
    56    25    52    1
    57    25    53    1
    58    26    54    1
    59    26    55    1
    60    28    56    1
