
     RDKit          3D

 48 50  0  0  0  0  0  0  0  0999 V2000
    5.8239   -0.7204   -0.3641 C   0  0  1  0  0  0  0  0  0  0  0  0
    6.0138    0.5100   -1.1410 N   0  0  0  0  0  0  0  0  0  0  0  0
    6.8493   -0.7165    0.7636 C   0  0  0  0  0  0  0  0  0  0  0  0
    6.6667   -2.2123    1.7610 S   0  0  0  0  0  0  0  0  0  0  0  0
    4.4941   -0.7320    0.2617 C   0  0  0  0  0  0  0  0  0  0  0  0
    4.2380    0.3067    1.1341 O   0  0  0  0  0  0  0  0  0  0  0  0
    3.5806   -1.6134    0.0609 N   0  0  0  0  0  0  0  0  0  0  0  0
    2.0368   -1.5545    0.8399 S   0  0  0  0  0  0  0  0  0  0  0  0
    2.2898   -1.7664    2.3058 O   0  0  0  0  0  0  0  0  0  0  0  0
    1.2286   -2.7174    0.3696 O   0  0  0  0  0  0  0  0  0  0  0  0
    1.2611   -0.0942    0.6188 O   0  0  0  0  0  0  0  0  0  0  0  0
    0.1821   -0.1837   -0.2560 C   0  0  0  0  0  0  0  0  0  0  0  0
   -0.4578    1.1572   -0.4027 C   0  0  1  0  0  0  0  0  0  0  0  0
   -1.5396    1.1699   -1.2525 O   0  0  0  0  0  0  0  0  0  0  0  0
   -2.5884    1.8467   -0.6881 C   0  0  1  0  0  0  0  0  0  0  0  0
   -3.5433    0.9382   -0.0496 N   0  0  0  0  0  0  0  0  0  0  0  0
   -4.0290    0.9217    1.2189 C   0  0  0  0  0  0  0  0  0  0  0  0
   -4.8876   -0.0984    1.3627 N   0  0  0  0  0  0  0  0  0  0  0  0
   -4.9590   -0.7384    0.1984 C   0  0  0  0  0  0  0  0  0  0  0  0
   -5.7077   -1.8496   -0.1460 C   0  0  0  0  0  0  0  0  0  0  0  0
   -6.5641   -2.4771    0.8234 N   0  0  0  0  0  0  0  0  0  0  0  0
   -5.6106   -2.3202   -1.4036 N   0  0  0  0  0  0  0  0  0  0  0  0
   -4.8008   -1.7124   -2.2893 C   0  0  0  0  0  0  0  0  0  0  0  0
   -4.0636   -0.6194   -1.9528 N   0  0  0  0  0  0  0  0  0  0  0  0
   -4.1130   -0.0935   -0.7061 C   0  0  0  0  0  0  0  0  0  0  0  0
   -1.9299    2.7283    0.3526 C   0  0  2  0  0  0  0  0  0  0  0  0
   -1.1980    3.6764   -0.3477 O   0  0  0  0  0  0  0  0  0  0  0  0
   -0.9527    1.7180    0.9333 C   0  0  2  0  0  0  0  0  0  0  0  0
    0.0685    2.3129    1.6590 O   0  0  0  0  0  0  0  0  0  0  0  0
    6.0051   -1.6095   -1.0210 H   0  0  0  0  0  0  0  0  0  0  0  0
    5.3343    0.5210   -1.9384 H   0  0  0  0  0  0  0  0  0  0  0  0
    5.9160    1.3156   -0.5142 H   0  0  0  0  0  0  0  0  0  0  0  0
    7.8479   -0.7603    0.2919 H   0  0  0  0  0  0  0  0  0  0  0  0
    6.7423    0.2184    1.3358 H   0  0  0  0  0  0  0  0  0  0  0  0
    7.7031   -3.1398    1.5587 H   0  0  0  0  0  0  0  0  0  0  0  0
    3.3329    0.4393    1.5603 H   0  0  0  0  0  0  0  0  0  0  0  0
    0.5964   -0.4547   -1.2361 H   0  0  0  0  0  0  0  0  0  0  0  0
   -0.5877   -0.9125    0.0577 H   0  0  0  0  0  0  0  0  0  0  0  0
    0.3286    1.8889   -0.7245 H   0  0  0  0  0  0  0  0  0  0  0  0
   -3.1144    2.4523   -1.4631 H   0  0  0  0  0  0  0  0  0  0  0  0
   -3.7354    1.6520    1.9780 H   0  0  0  0  0  0  0  0  0  0  0  0
   -6.4726   -2.9213    1.7498 H   0  0  0  0  0  0  0  0  0  0  0  0
   -7.5313   -2.4502    0.4362 H   0  0  0  0  0  0  0  0  0  0  0  0
   -4.6998   -2.0640   -3.3052 H   0  0  0  0  0  0  0  0  0  0  0  0
   -2.6365    3.1403    1.0834 H   0  0  0  0  0  0  0  0  0  0  0  0
   -1.3002    4.6028   -0.0104 H   0  0  0  0  0  0  0  0  0  0  0  0
   -1.4942    0.9352    1.5063 H   0  0  0  0  0  0  0  0  0  0  0  0
   -0.0229    2.0801    2.6194 H   0  0  0  0  0  0  0  0  0  0  0  0
  1  2  1  0
  1  3  1  0
  3  4  1  0
  1  5  1  0
  5  6  1  0
  5  7  2  3
  7  8  1  0
  8  9  2  0
  8 10  2  0
  8 11  1  0
 11 12  1  0
 12 13  1  0
 13 14  1  0
 14 15  1  0
 15 16  1  0
 16 17  1  0
 17 18  2  0
 18 19  1  0
 19 20  2  0
 20 21  1  0
 20 22  1  0
 22 23  2  0
 23 24  1  0
 24 25  2  0
 15 26  1  0
 26 27  1  0
 26 28  1  0
 28 29  1  0
 28 13  1  0
 25 16  1  0
 25 19  1  0
  1 30  1  6
  2 31  1  0
  2 32  1  0
  3 33  1  0
  3 34  1  0
  4 35  1  0
  6 36  1  0
 12 37  1  0
 12 38  1  0
 13 39  1  6
 15 40  1  6
 17 41  1  0
 21 42  1  0
 21 43  1  0
 23 44  1  0
 26 45  1  1
 27 46  1  0
 28 47  1  1
 29 48  1  0
M  END
$$$$
