@<TRIPOS>MOLECULE
*****
 48 50 0 0 0
SMALL
GASTEIGER

@<TRIPOS>ATOM
      1 C           5.8239   -0.7204   -0.3641 C.3     1  UNL1        0.0919
      2 N           6.0138    0.5100   -1.1410 N.3     1  UNL1       -0.3192
      3 C           6.8493   -0.7165    0.7636 C.3     1  UNL1        0.0146
      4 S           6.6667   -2.2123    1.7610 S.3     1  UNL1       -0.1762
      5 C           4.4941   -0.7320    0.2617 C.2     1  UNL1        0.2268
      6 O           4.2380    0.3067    1.1341 O.2     1  UNL1       -0.4934
      7 N           3.5806   -1.6134    0.0609 N.2     1  UNL1       -0.0729
      8 S           2.0368   -1.5545    0.8399 S.O2    1  UNL1        0.1967
      9 O           2.2898   -1.7664    2.3058 O.2     1  UNL1       -0.1226
     10 O           1.2286   -2.7174    0.3696 O.2     1  UNL1       -0.1226
     11 O           1.2611   -0.0942    0.6188 O.3     1  UNL1       -0.2166
     12 C           0.1821   -0.1837   -0.2560 C.3     1  UNL1        0.1072
     13 C          -0.4578    1.1572   -0.4027 C.3     1  UNL1        0.1152
     14 O          -1.5396    1.1699   -1.2525 O.3     1  UNL1       -0.3456
     15 C          -2.5884    1.8467   -0.6881 C.3     1  UNL1        0.1667
     16 N          -3.5433    0.9382   -0.0496 N.ar    1  UNL1       -0.2855
     17 C          -4.0290    0.9217    1.2189 C.ar    1  UNL1        0.1004
     18 N          -4.8876   -0.0984    1.3627 N.ar    1  UNL1       -0.2306
     19 C          -4.9590   -0.7384    0.1984 C.ar    1  UNL1        0.1473
     20 C          -5.7077   -1.8496   -0.1460 C.ar    1  UNL1        0.1472
     21 N          -6.5641   -2.4771    0.8234 N.pl3   1  UNL1       -0.3413
     22 N          -5.6106   -2.3202   -1.4036 N.ar    1  UNL1       -0.2188
     23 C          -4.8008   -1.7124   -2.2893 C.ar    1  UNL1        0.1205
     24 N          -4.0636   -0.6194   -1.9528 N.ar    1  UNL1       -0.2159
     25 C          -4.1130   -0.0935   -0.7061 C.ar    1  UNL1        0.1674
     26 C          -1.9299    2.7283    0.3526 C.3     1  UNL1        0.1285
     27 O          -1.1980    3.6764   -0.3477 O.3     1  UNL1       -0.3847
     28 C          -0.9527    1.7180    0.9333 C.3     1  UNL1        0.1136
     29 O           0.0685    2.3129    1.6590 O.3     1  UNL1       -0.3864
     30 H           6.0051   -1.6095   -1.0210 H       1  UNL1        0.0564
     31 H           5.3343    0.5210   -1.9384 H       1  UNL1        0.1189
     32 H           5.9160    1.3156   -0.5142 H       1  UNL1        0.1189
     33 H           7.8479   -0.7603    0.2919 H       1  UNL1        0.0394
     34 H           6.7423    0.2184    1.3358 H       1  UNL1        0.0394
     35 H           7.7031   -3.1398    1.5587 H       1  UNL1        0.1017
     36 H           3.3329    0.4393    1.5603 H       1  UNL1        0.2935
     37 H           0.5964   -0.4547   -1.2361 H       1  UNL1        0.0611
     38 H          -0.5877   -0.9125    0.0577 H       1  UNL1        0.0611
     39 H           0.3286    1.8889   -0.7245 H       1  UNL1        0.0647
     40 H          -3.1144    2.4523   -1.4631 H       1  UNL1        0.0866
     41 H          -3.7354    1.6520    1.9780 H       1  UNL1        0.1030
     42 H          -6.4726   -2.9213    1.7498 H       1  UNL1        0.1438
     43 H          -7.5313   -2.4502    0.4362 H       1  UNL1        0.1438
     44 H          -4.6998   -2.0640   -3.3052 H       1  UNL1        0.1048
     45 H          -2.6365    3.1403    1.0834 H       1  UNL1        0.0665
     46 H          -1.3002    4.6028   -0.0104 H       1  UNL1        0.2101
     47 H          -1.4942    0.9352    1.5063 H       1  UNL1        0.0647
     48 H          -0.0229    2.0801    2.6194 H       1  UNL1        0.2100
@<TRIPOS>BOND
     1     1     2    1
     2     1     3    1
     3     3     4    1
     4     1     5    1
     5     5     6    1
     6     5     7    2
     7     7     8    1
     8     8     9    2
     9     8    10    2
    10     8    11    1
    11    11    12    1
    12    12    13    1
    13    13    14    1
    14    14    15    1
    15    15    16    1
    16    16    17   ar
    17    17    18   ar
    18    18    19   ar
    19    19    20   ar
    20    20    21    1
    21    20    22   ar
    22    22    23   ar
    23    23    24   ar
    24    24    25   ar
    25    15    26    1
    26    26    27    1
    27    26    28    1
    28    28    29    1
    29    28    13    1
    30    25    16   ar
    31    25    19   ar
    32     1    30    1
    33     2    31    1
    34     2    32    1
    35     3    33    1
    36     3    34    1
    37     4    35    1
    38     6    36    1
    39    12    37    1
    40    12    38    1
    41    13    39    1
    42    15    40    1
    43    17    41    1
    44    21    42    1
    45    21    43    1
    46    23    44    1
    47    26    45    1
    48    27    46    1
    49    28    47    1
    50    29    48    1
