@<TRIPOS>MOLECULE
*****
 52 51 0 0 0
SMALL
GASTEIGER

@<TRIPOS>ATOM
      1 C          -0.7813   -1.2050   -0.4671 C.3     1  UNL1        0.0768
      2 O          -0.3636   -2.3010    0.2629 O.3     1  UNL1       -0.3875
      3 C          -1.6882   -0.3503    0.3908 C.3     1  UNL1       -0.0050
      4 C          -2.8650   -1.1675    0.8016 C.2     1  UNL1       -0.0852
      5 C          -4.1731   -0.9737    0.5713 C.2     1  UNL1       -0.0878
      6 C          -4.7679    0.1587   -0.1843 C.3     1  UNL1       -0.0348
      7 C          -5.7035    0.9180    0.7269 C.3     1  UNL1       -0.0496
      8 C          -6.7958    0.0316    1.2218 C.3     1  UNL1       -0.0530
      9 C          -7.5763   -0.4919    0.0386 C.3     1  UNL1       -0.0559
     10 C          -8.1521    0.6981   -0.7097 C.3     1  UNL1       -0.0653
     11 C           0.3944   -0.3255   -0.8066 C.2     1  UNL1       -0.0591
     12 C           1.5233   -0.2513   -0.1363 C.2     1  UNL1       -0.0785
     13 C           2.6292    0.6478   -0.5484 C.3     1  UNL1        0.0241
     14 C           3.8628   -0.0924   -0.8385 C.2     1  UNL1        0.1371
     15 O           3.1065   -1.0036   -0.5278 O.2     1  UNL1       -0.2971
     16 C           5.1970   -0.6045   -1.1804 C.3     1  UNL1        0.0061
     17 C           6.1582    0.4997   -1.5709 C.3     1  UNL1       -0.0459
     18 C           6.3504    1.4944   -0.4592 C.3     1  UNL1       -0.0426
     19 C           6.8980    0.9173    0.8083 C.3     1  UNL1        0.0448
     20 C           8.2157    0.3130    0.6066 C.2     1  UNL1        0.3047
     21 O           9.4196   -0.3213    0.7445 O.3     1  UNL1       -0.4806
     22 O           8.9082    0.2405   -0.4610 O.2     1  UNL1       -0.2510
     23 H          -1.2294   -1.4934   -1.4154 H       1  UNL1        0.0641
     24 H           0.4266   -2.7438   -0.1273 H       1  UNL1        0.2102
     25 H          -1.1408   -0.0231    1.2961 H       1  UNL1        0.0335
     26 H          -2.0212    0.5623   -0.1294 H       1  UNL1        0.0335
     27 H          -2.5003   -2.0104    1.3575 H       1  UNL1        0.0570
     28 H          -4.8083   -1.7341    0.9909 H       1  UNL1        0.0569
     29 H          -3.9990    0.8945   -0.5033 H       1  UNL1        0.0307
     30 H          -5.2288   -0.2099   -1.1088 H       1  UNL1        0.0307
     31 H          -6.1094    1.7479    0.1131 H       1  UNL1        0.0268
     32 H          -5.0755    1.3233    1.5521 H       1  UNL1        0.0268
     33 H          -6.3892   -0.7839    1.8449 H       1  UNL1        0.0265
     34 H          -7.4818    0.6700    1.8371 H       1  UNL1        0.0265
     35 H          -6.9739   -1.1176   -0.6297 H       1  UNL1        0.0263
     36 H          -8.4005   -1.1472    0.4216 H       1  UNL1        0.0263
     37 H          -9.1958    0.5326   -1.0347 H       1  UNL1        0.0230
     38 H          -7.4960    0.9185   -1.5960 H       1  UNL1        0.0230
     39 H          -8.1392    1.6098   -0.0783 H       1  UNL1        0.0230
     40 H           0.3289    0.3177   -1.6829 H       1  UNL1        0.0595
     41 H           1.6089   -0.8879    0.7452 H       1  UNL1        0.0574
     42 H           2.3175    1.1624   -1.4910 H       1  UNL1        0.0384
     43 H           2.7986    1.3591    0.2853 H       1  UNL1        0.0384
     44 H           5.1012   -1.3445   -1.9982 H       1  UNL1        0.0342
     45 H           5.5653   -1.1562   -0.2952 H       1  UNL1        0.0342
     46 H           5.7656    1.0880   -2.4362 H       1  UNL1        0.0269
     47 H           7.1117    0.0773   -1.9133 H       1  UNL1        0.0269
     48 H           7.1195    2.2235   -0.8461 H       1  UNL1        0.0271
     49 H           5.4159    2.0536   -0.2936 H       1  UNL1        0.0271
     50 H           6.1700    0.2026    1.2571 H       1  UNL1        0.0377
     51 H           6.9744    1.7509    1.5357 H       1  UNL1        0.0377
     52 H           9.6885   -0.6731    1.6747 H       1  UNL1        0.2951
@<TRIPOS>BOND
     1     1     2    1
     2     1     3    1
     3     3     4    1
     4     4     5    2
     5     5     6    1
     6     6     7    1
     7     7     8    1
     8     8     9    1
     9     9    10    1
    10     1    11    1
    11    11    12    2
    12    12    13    1
    13    13    14    1
    14    14    15    2
    15    14    16    1
    16    16    17    1
    17    17    18    1
    18    18    19    1
    19    19    20    1
    20    20    21    1
    21    20    22    2
    22     1    23    1
    23     2    24    1
    24     3    25    1
    25     3    26    1
    26     4    27    1
    27     5    28    1
    28     6    29    1
    29     6    30    1
    30     7    31    1
    31     7    32    1
    32     8    33    1
    33     8    34    1
    34     9    35    1
    35     9    36    1
    36    10    37    1
    37    10    38    1
    38    10    39    1
    39    11    40    1
    40    12    41    1
    41    13    42    1
    42    13    43    1
    43    16    44    1
    44    16    45    1
    45    17    46    1
    46    17    47    1
    47    18    48    1
    48    18    49    1
    49    19    50    1
    50    19    51    1
    51    21    52    1
