@<TRIPOS>MOLECULE
*****
 52 55 0 0 0
SMALL
GASTEIGER

@<TRIPOS>ATOM
      1 C          -2.0822    0.3370    2.8043 C.3     1  UNL1       -0.0206
      2 C          -1.6165   -0.6056    1.7593 C.ar    1  UNL1        0.0607
      3 C          -2.4499   -1.1993    0.8118 C.ar    1  UNL1        0.1580
      4 O          -3.7959   -1.0032    0.7032 O.3     1  UNL1       -0.4536
      5 C          -4.4382   -0.0246   -0.0374 C.ar    1  UNL1        0.1286
      6 C          -4.7333    1.1854    0.5331 C.ar    1  UNL1       -0.0180
      7 C          -5.3700    2.1521   -0.2061 C.ar    1  UNL1       -0.0399
      8 C          -5.7017    1.8864   -1.5126 C.ar    1  UNL1        0.0412
      9 CL         -6.5184    3.1745   -2.4034 Cl      1  UNL1       -0.0835
     10 C          -5.4167    0.6787   -2.1101 C.ar    1  UNL1       -0.0399
     11 C          -4.7731   -0.2801   -1.3410 C.ar    1  UNL1       -0.0180
     12 C          -1.6648   -2.0086    0.0198 C.ar    1  UNL1        0.0615
     13 C          -1.9172   -2.8315   -1.0552 C.ar    1  UNL1       -0.0446
     14 C          -0.8915   -3.5499   -1.6705 C.ar    1  UNL1       -0.0240
     15 C           0.3830   -3.4061   -1.1632 C.ar    1  UNL1        0.1316
     16 CL          1.7281   -4.2887   -1.8973 Cl      1  UNL1       -0.0619
     17 N           0.6086   -2.5962   -0.1106 N.ar    1  UNL1       -0.2174
     18 C          -0.3563   -1.8914    0.5038 C.ar    1  UNL1        0.1465
     19 N          -0.3582   -1.0435    1.5470 N.ar    1  UNL1       -0.3214
     20 C           0.8103   -0.6569    2.3274 C.3     1  UNL1        0.0501
     21 C           1.4722    0.5601    1.7421 C.ar    1  UNL1       -0.0242
     22 C           1.0951    1.8129    2.1631 C.ar    1  UNL1       -0.0553
     23 C           1.7244    2.9037    1.6028 C.ar    1  UNL1       -0.0395
     24 C           2.7016    2.7465    0.6501 C.ar    1  UNL1        0.0826
     25 CL          3.4914    4.1536   -0.0513 Cl      1  UNL1       -0.0798
     26 C           3.1141    1.4826    0.1944 C.ar    1  UNL1        0.1402
     27 O           4.0953    1.4260   -0.7578 O.3     1  UNL1       -0.4765
     28 C           4.5986    0.2665   -1.2966 C.3     1  UNL1        0.1931
     29 C           4.3415    0.1724   -2.7985 C.3     1  UNL1       -0.0172
     30 C           6.0670    0.0935   -1.0369 C.2     1  UNL1        0.3456
     31 O           6.7106    0.9508   -0.3901 O.2     1  UNL1       -0.2468
     32 O           6.7469   -1.0187   -1.5060 O.3     1  UNL1       -0.4781
     33 C           2.4650    0.4212    0.7751 C.ar    1  UNL1       -0.0136
     34 H          -2.1663    1.3771    2.4206 H       1  UNL1        0.0293
     35 H          -3.1034    0.0427    3.1879 H       1  UNL1        0.0293
     36 H          -1.4247    0.2924    3.6969 H       1  UNL1        0.0293
     37 H          -4.4658    1.3967    1.5909 H       1  UNL1        0.0655
     38 H          -5.6060    3.1156    0.2449 H       1  UNL1        0.0633
     39 H          -5.6890    0.4956   -3.1407 H       1  UNL1        0.0633
     40 H          -4.5485   -1.2464   -1.8229 H       1  UNL1        0.0655
     41 H          -2.9227   -2.9289   -1.4308 H       1  UNL1        0.0627
     42 H          -1.0543   -4.2039   -2.5153 H       1  UNL1        0.0648
     43 H           1.5174   -1.4961    2.2989 H       1  UNL1        0.0542
     44 H           0.4510   -0.4278    3.3484 H       1  UNL1        0.0542
     45 H           0.3246    1.9448    2.9152 H       1  UNL1        0.0621
     46 H           1.4220    3.9086    1.9405 H       1  UNL1        0.0633
     47 H           4.1146   -0.6239   -0.8666 H       1  UNL1        0.0849
     48 H           4.5153    1.1467   -3.3001 H       1  UNL1        0.0271
     49 H           3.2864   -0.1537   -2.9104 H       1  UNL1        0.0271
     50 H           5.0036   -0.6350   -3.1676 H       1  UNL1        0.0271
     51 H           7.5536   -1.4143   -1.0284 H       1  UNL1        0.2952
     52 H           2.7225   -0.5895    0.4807 H       1  UNL1        0.0658
@<TRIPOS>BOND
     1     1     2    1
     2     2     3   ar
     3     3     4    1
     4     4     5    1
     5     5     6   ar
     6     6     7   ar
     7     7     8   ar
     8     8     9    1
     9     8    10   ar
    10    10    11   ar
    11     3    12   ar
    12    12    13   ar
    13    13    14   ar
    14    14    15   ar
    15    15    16    1
    16    15    17   ar
    17    17    18   ar
    18    18    19   ar
    19    19    20    1
    20    20    21    1
    21    21    22   ar
    22    22    23   ar
    23    23    24   ar
    24    24    25    1
    25    24    26   ar
    26    26    27    1
    27    27    28    1
    28    28    29    1
    29    28    30    1
    30    30    31    2
    31    30    32    1
    32    26    33   ar
    33    19     2   ar
    34    33    21   ar
    35    11     5   ar
    36    18    12   ar
    37     1    34    1
    38     1    35    1
    39     1    36    1
    40     6    37    1
    41     7    38    1
    42    10    39    1
    43    11    40    1
    44    13    41    1
    45    14    42    1
    46    20    43    1
    47    20    44    1
    48    22    45    1
    49    23    46    1
    50    28    47    1
    51    29    48    1
    52    29    49    1
    53    29    50    1
    54    32    51    1
    55    33    52    1
