
     RDKit          3D

 52 55  0  0  0  0  0  0  0  0999 V2000
   -2.0822    0.3370    2.8043 C   0  0  0  0  0  0  0  0  0  0  0  0
   -1.6165   -0.6056    1.7593 C   0  0  0  0  0  0  0  0  0  0  0  0
   -2.4499   -1.1993    0.8118 C   0  0  0  0  0  0  0  0  0  0  0  0
   -3.7959   -1.0032    0.7032 O   0  0  0  0  0  0  0  0  0  0  0  0
   -4.4382   -0.0246   -0.0374 C   0  0  0  0  0  0  0  0  0  0  0  0
   -4.7333    1.1854    0.5331 C   0  0  0  0  0  0  0  0  0  0  0  0
   -5.3700    2.1521   -0.2061 C   0  0  0  0  0  0  0  0  0  0  0  0
   -5.7017    1.8864   -1.5126 C   0  0  0  0  0  0  0  0  0  0  0  0
   -6.5184    3.1745   -2.4034 Cl  0  0  0  0  0  0  0  0  0  0  0  0
   -5.4167    0.6787   -2.1101 C   0  0  0  0  0  0  0  0  0  0  0  0
   -4.7731   -0.2801   -1.3410 C   0  0  0  0  0  0  0  0  0  0  0  0
   -1.6648   -2.0086    0.0198 C   0  0  0  0  0  0  0  0  0  0  0  0
   -1.9172   -2.8315   -1.0552 C   0  0  0  0  0  0  0  0  0  0  0  0
   -0.8915   -3.5499   -1.6705 C   0  0  0  0  0  0  0  0  0  0  0  0
    0.3830   -3.4061   -1.1632 C   0  0  0  0  0  0  0  0  0  0  0  0
    1.7281   -4.2887   -1.8973 Cl  0  0  0  0  0  0  0  0  0  0  0  0
    0.6086   -2.5962   -0.1106 N   0  0  0  0  0  0  0  0  0  0  0  0
   -0.3563   -1.8914    0.5038 C   0  0  0  0  0  0  0  0  0  0  0  0
   -0.3582   -1.0435    1.5470 N   0  0  0  0  0  0  0  0  0  0  0  0
    0.8103   -0.6569    2.3274 C   0  0  0  0  0  0  0  0  0  0  0  0
    1.4722    0.5601    1.7421 C   0  0  0  0  0  0  0  0  0  0  0  0
    1.0951    1.8129    2.1631 C   0  0  0  0  0  0  0  0  0  0  0  0
    1.7244    2.9037    1.6028 C   0  0  0  0  0  0  0  0  0  0  0  0
    2.7016    2.7465    0.6501 C   0  0  0  0  0  0  0  0  0  0  0  0
    3.4914    4.1536   -0.0513 Cl  0  0  0  0  0  0  0  0  0  0  0  0
    3.1141    1.4826    0.1944 C   0  0  0  0  0  0  0  0  0  0  0  0
    4.0953    1.4260   -0.7578 O   0  0  0  0  0  0  0  0  0  0  0  0
    4.5986    0.2665   -1.2966 C   0  0  1  0  0  0  0  0  0  0  0  0
    4.3415    0.1724   -2.7985 C   0  0  0  0  0  0  0  0  0  0  0  0
    6.0670    0.0935   -1.0369 C   0  0  0  0  0  0  0  0  0  0  0  0
    6.7106    0.9508   -0.3901 O   0  0  0  0  0  0  0  0  0  0  0  0
    6.7469   -1.0187   -1.5060 O   0  0  0  0  0  0  0  0  0  0  0  0
    2.4650    0.4212    0.7751 C   0  0  0  0  0  0  0  0  0  0  0  0
   -2.1663    1.3771    2.4206 H   0  0  0  0  0  0  0  0  0  0  0  0
   -3.1034    0.0427    3.1879 H   0  0  0  0  0  0  0  0  0  0  0  0
   -1.4247    0.2924    3.6969 H   0  0  0  0  0  0  0  0  0  0  0  0
   -4.4658    1.3967    1.5909 H   0  0  0  0  0  0  0  0  0  0  0  0
   -5.6060    3.1156    0.2449 H   0  0  0  0  0  0  0  0  0  0  0  0
   -5.6890    0.4956   -3.1407 H   0  0  0  0  0  0  0  0  0  0  0  0
   -4.5485   -1.2464   -1.8229 H   0  0  0  0  0  0  0  0  0  0  0  0
   -2.9227   -2.9289   -1.4308 H   0  0  0  0  0  0  0  0  0  0  0  0
   -1.0543   -4.2039   -2.5153 H   0  0  0  0  0  0  0  0  0  0  0  0
    1.5174   -1.4961    2.2989 H   0  0  0  0  0  0  0  0  0  0  0  0
    0.4510   -0.4278    3.3484 H   0  0  0  0  0  0  0  0  0  0  0  0
    0.3246    1.9448    2.9152 H   0  0  0  0  0  0  0  0  0  0  0  0
    1.4220    3.9086    1.9405 H   0  0  0  0  0  0  0  0  0  0  0  0
    4.1146   -0.6239   -0.8666 H   0  0  0  0  0  0  0  0  0  0  0  0
    4.5153    1.1467   -3.3001 H   0  0  0  0  0  0  0  0  0  0  0  0
    3.2864   -0.1537   -2.9104 H   0  0  0  0  0  0  0  0  0  0  0  0
    5.0036   -0.6350   -3.1676 H   0  0  0  0  0  0  0  0  0  0  0  0
    7.5536   -1.4143   -1.0284 H   0  0  0  0  0  0  0  0  0  0  0  0
    2.7225   -0.5895    0.4807 H   0  0  0  0  0  0  0  0  0  0  0  0
  1  2  1  0
  2  3  2  0
  3  4  1  0
  4  5  1  0
  5  6  2  0
  6  7  1  0
  7  8  2  0
  8  9  1  0
  8 10  1  0
 10 11  2  0
  3 12  1  0
 12 13  2  0
 13 14  1  0
 14 15  2  0
 15 16  1  0
 15 17  1  0
 17 18  2  0
 18 19  1  0
 19 20  1  0
 20 21  1  0
 21 22  2  0
 22 23  1  0
 23 24  2  0
 24 25  1  0
 24 26  1  0
 26 27  1  0
 27 28  1  0
 28 29  1  0
 28 30  1  0
 30 31  2  0
 30 32  1  0
 26 33  2  0
 19  2  1  0
 33 21  1  0
 11  5  1  0
 18 12  1  0
  1 34  1  0
  1 35  1  0
  1 36  1  0
  6 37  1  0
  7 38  1  0
 10 39  1  0
 11 40  1  0
 13 41  1  0
 14 42  1  0
 20 43  1  0
 20 44  1  0
 22 45  1  0
 23 46  1  0
 28 47  1  1
 29 48  1  0
 29 49  1  0
 29 50  1  0
 32 51  1  0
 33 52  1  0
M  END
$$$$
