
     RDKit          3D

 48 50  0  0  0  0  0  0  0  0999 V2000
    8.5498    4.5502    0.1482 C   0  0  0  0  0  3  0  0  0  0  0  0
    7.5286    4.0021    0.1296 N   0  0  0  0  0  4  0  0  0  0  0  0
    6.3062    3.3407    0.0886 C   0  0  0  0  0  0  0  0  0  0  0  0
    5.6805    3.0276   -1.1037 C   0  0  0  0  0  0  0  0  0  0  0  0
    4.4552    2.3558   -1.1251 C   0  0  0  0  0  0  0  0  0  0  0  0
    3.8669    2.0029    0.0690 C   0  0  0  0  0  0  0  0  0  0  0  0
    2.5688    1.2844    0.0678 C   0  0  0  0  0  0  0  0  0  0  0  0
    2.0279    1.0141   -1.0244 O   0  0  0  0  0  0  0  0  0  0  0  0
    1.9472    0.9079    1.2703 N   0  0  0  0  0  0  0  0  0  0  0  0
    0.7266    0.2258    1.3972 C   0  0  0  0  0  0  0  0  0  0  0  0
   -0.0692   -0.2092    0.3644 C   0  0  0  0  0  0  0  0  0  0  0  0
   -1.2351   -0.8638    0.6565 C   0  0  0  0  0  0  0  0  0  0  0  0
   -2.1804   -1.4004   -0.3660 C   0  0  2  0  0  0  0  0  0  0  0  0
   -2.2530   -2.8880   -0.1667 C   0  0  0  0  0  0  0  0  0  0  0  0
   -1.7939   -1.0239   -1.7779 C   0  0  0  0  0  0  0  0  0  0  0  0
   -2.9130   -1.1080   -2.7583 C   0  0  1  0  0  0  0  0  0  0  0  0
   -2.7414   -2.1767   -3.8155 C   0  0  0  0  0  0  0  0  0  0  0  0
   -1.6099   -1.9675   -4.5515 F   0  0  0  0  0  0  0  0  0  0  0  0
   -2.8950   -3.4480   -3.3387 F   0  0  0  0  0  0  0  0  0  0  0  0
   -3.8111   -1.9783   -4.7045 F   0  0  0  0  0  0  0  0  0  0  0  0
   -4.1891   -1.2691   -2.1699 O   0  0  0  0  0  0  0  0  0  0  0  0
   -4.4190   -0.6586   -0.9422 C   0  0  0  0  0  0  0  0  0  0  0  0
   -5.6467   -0.0041   -0.6593 N   0  0  0  0  0  0  0  0  0  0  0  0
   -3.4541   -0.7266   -0.0884 N   0  0  0  0  0  0  0  0  0  0  0  0
   -1.5928   -1.0762    1.9848 C   0  0  0  0  0  0  0  0  0  0  0  0
   -2.6663   -1.6780    2.2689 O   0  0  0  0  0  0  0  0  0  0  0  0
   -0.8344   -0.6621    3.0003 N   0  0  0  0  0  0  0  0  0  0  0  0
   -1.2372   -0.9002    4.3732 C   0  0  0  0  0  0  0  0  0  0  0  0
    0.3068   -0.0215    2.7169 C   0  0  0  0  0  0  0  0  0  0  0  0
    4.5022    2.3231    1.2045 N   0  0  0  0  0  0  0  0  0  0  0  0
    5.6641    2.9595    1.2522 C   0  0  0  0  0  0  0  0  0  0  0  0
    6.1372    3.3025   -2.0496 H   0  0  0  0  0  0  0  0  0  0  0  0
    3.9527    2.1034   -2.0496 H   0  0  0  0  0  0  0  0  0  0  0  0
    2.4825    1.1821    2.1535 H   0  0  0  0  0  0  0  0  0  0  0  0
    0.2038   -0.0518   -0.6433 H   0  0  0  0  0  0  0  0  0  0  0  0
   -1.7430   -3.1981    0.7883 H   0  0  0  0  0  0  0  0  0  0  0  0
   -1.6905   -3.4516   -0.9506 H   0  0  0  0  0  0  0  0  0  0  0  0
   -3.3049   -3.2568   -0.0689 H   0  0  0  0  0  0  0  0  0  0  0  0
   -1.4748    0.0585   -1.7214 H   0  0  0  0  0  0  0  0  0  0  0  0
   -0.9469   -1.6331   -2.1417 H   0  0  0  0  0  0  0  0  0  0  0  0
   -2.9426   -0.1399   -3.3393 H   0  0  0  0  0  0  0  0  0  0  0  0
   -5.6607    0.7018    0.0957 H   0  0  0  0  0  0  0  0  0  0  0  0
   -6.5188   -0.2045   -1.1736 H   0  0  0  0  0  0  0  0  0  0  0  0
   -0.8210   -1.8607    4.7340 H   0  0  0  0  0  0  0  0  0  0  0  0
   -2.3603   -0.9419    4.3587 H   0  0  0  0  0  0  0  0  0  0  0  0
   -0.9697   -0.0587    5.0328 H   0  0  0  0  0  0  0  0  0  0  0  0
    0.8980    0.3010    3.5570 H   0  0  0  0  0  0  0  0  0  0  0  0
    6.1697    3.2140    2.1762 H   0  0  0  0  0  0  0  0  0  0  0  0
  1  2  3  0
  2  3  1  0
  3  4  2  0
  4  5  1  0
  5  6  2  0
  6  7  1  0
  7  8  2  0
  7  9  1  0
  9 10  1  0
 10 11  1  0
 11 12  2  0
 12 13  1  0
 13 14  1  6
 13 15  1  0
 15 16  1  0
 16 17  1  0
 17 18  1  0
 17 19  1  0
 17 20  1  0
 16 21  1  0
 21 22  1  0
 22 23  1  0
 22 24  2  0
 12 25  1  0
 25 26  2  0
 25 27  1  0
 27 28  1  0
 27 29  1  0
  6 30  1  0
 30 31  2  0
 31  3  1  0
 29 10  2  0
 24 13  1  0
  4 32  1  0
  5 33  1  0
  9 34  1  0
 11 35  1  0
 14 36  1  0
 14 37  1  0
 14 38  1  0
 15 39  1  0
 15 40  1  0
 16 41  1  6
 23 42  1  0
 23 43  1  0
 28 44  1  0
 28 45  1  0
 28 46  1  0
 29 47  1  0
 31 48  1  0
M  CHG  2   1  -1   2   1
M  END
$$$$
