@<TRIPOS>MOLECULE
*****
 48 50 0 0 0
SMALL
GASTEIGER

@<TRIPOS>ATOM
      1 C           8.5498    4.5502    0.1482 C.2     1  UNL1       -0.2277
      2 N           7.5286    4.0021    0.1296 N.1     1  UNL1       -0.2654
      3 C           6.3062    3.3407    0.0886 C.ar    1  UNL1        0.3093
      4 C           5.6805    3.0276   -1.1037 C.ar    1  UNL1        0.0283
      5 C           4.4552    2.3558   -1.1251 C.ar    1  UNL1       -0.0239
      6 C           3.8669    2.0029    0.0690 C.ar    1  UNL1        0.1262
      7 C           2.5688    1.2844    0.0678 C.2     1  UNL1        0.2666
      8 O           2.0279    1.0141   -1.0244 O.2     1  UNL1       -0.2682
      9 N           1.9472    0.9079    1.2703 N.am    1  UNL1       -0.2790
     10 C           0.7266    0.2258    1.3972 C.ar    1  UNL1        0.0505
     11 C          -0.0692   -0.2092    0.3644 C.ar    1  UNL1       -0.0284
     12 C          -1.2351   -0.8638    0.6565 C.ar    1  UNL1        0.0461
     13 C          -2.1804   -1.4004   -0.3660 C.3     1  UNL1        0.0975
     14 C          -2.2530   -2.8880   -0.1667 C.3     1  UNL1       -0.0352
     15 C          -1.7939   -1.0239   -1.7779 C.3     1  UNL1        0.0224
     16 C          -2.9130   -1.1080   -2.7583 C.3     1  UNL1        0.1997
     17 C          -2.7414   -2.1767   -3.8155 C.3     1  UNL1        0.4266
     18 F          -1.6099   -1.9675   -4.5515 F       1  UNL1       -0.1669
     19 F          -2.8950   -3.4480   -3.3387 F       1  UNL1       -0.1669
     20 F          -3.8111   -1.9783   -4.7045 F       1  UNL1       -0.1669
     21 O          -4.1891   -1.2691   -2.1699 O.2     1  UNL1       -0.4534
     22 C          -4.4190   -0.6586   -0.9422 C.2     1  UNL1        0.2765
     23 N          -5.6467   -0.0041   -0.6593 N.pl3   1  UNL1       -0.3134
     24 N          -3.4541   -0.7266   -0.0884 N.2     1  UNL1       -0.2256
     25 C          -1.5928   -1.0762    1.9848 C.ar    1  UNL1        0.2566
     26 O          -2.6663   -1.6780    2.2689 O.2     1  UNL1       -0.2673
     27 N          -0.8344   -0.6621    3.0003 N.ar    1  UNL1       -0.3162
     28 C          -1.2372   -0.9002    4.3732 C.3     1  UNL1        0.0148
     29 C           0.3068   -0.0215    2.7169 C.ar    1  UNL1        0.0288
     30 N           4.5022    2.3231    1.2045 N.ar    1  UNL1       -0.2427
     31 C           5.6641    2.9595    1.2522 C.ar    1  UNL1        0.1143
     32 H           6.1372    3.3025   -2.0496 H       1  UNL1        0.0695
     33 H           3.9527    2.1034   -2.0496 H       1  UNL1        0.0643
     34 H           2.4825    1.1821    2.1535 H       1  UNL1        0.1552
     35 H           0.2038   -0.0518   -0.6433 H       1  UNL1        0.0642
     36 H          -1.7430   -3.1981    0.7883 H       1  UNL1        0.0256
     37 H          -1.6905   -3.4516   -0.9506 H       1  UNL1        0.0256
     38 H          -3.3049   -3.2568   -0.0689 H       1  UNL1        0.0256
     39 H          -1.4748    0.0585   -1.7214 H       1  UNL1        0.0330
     40 H          -0.9469   -1.6331   -2.1417 H       1  UNL1        0.0330
     41 H          -2.9426   -0.1399   -3.3393 H       1  UNL1        0.0826
     42 H          -5.6607    0.7018    0.0957 H       1  UNL1        0.1466
     43 H          -6.5188   -0.2045   -1.1736 H       1  UNL1        0.1466
     44 H          -0.8210   -1.8607    4.7340 H       1  UNL1        0.0457
     45 H          -2.3603   -0.9419    4.3587 H       1  UNL1        0.0457
     46 H          -0.9697   -0.0587    5.0328 H       1  UNL1        0.0457
     47 H           0.8980    0.3010    3.5570 H       1  UNL1        0.0829
     48 H           6.1697    3.2140    2.1762 H       1  UNL1        0.0908
@<TRIPOS>UNITY_ATOM_ATTR
1 1
charge -1
2 1
charge 1
@<TRIPOS>BOND
     1     1     2    3
     2     2     3    1
     3     3     4   ar
     4     4     5   ar
     5     5     6   ar
     6     6     7    1
     7     7     8    2
     8     7     9   am
     9     9    10    1
    10    10    11   ar
    11    11    12   ar
    12    12    13    1
    13    13    14    1
    14    13    15    1
    15    15    16    1
    16    16    17    1
    17    17    18    1
    18    17    19    1
    19    17    20    1
    20    16    21    1
    21    21    22    1
    22    22    23    1
    23    22    24    2
    24    12    25   ar
    25    25    26    2
    26    25    27   ar
    27    27    28    1
    28    27    29   ar
    29     6    30   ar
    30    30    31   ar
    31    31     3   ar
    32    29    10   ar
    33    24    13    1
    34     4    32    1
    35     5    33    1
    36     9    34    1
    37    11    35    1
    38    14    36    1
    39    14    37    1
    40    14    38    1
    41    15    39    1
    42    15    40    1
    43    16    41    1
    44    23    42    1
    45    23    43    1
    46    28    44    1
    47    28    45    1
    48    28    46    1
    49    29    47    1
    50    31    48    1
