
     RDKit          3D

 45 48  0  0  0  0  0  0  0  0999 V2000
    5.6672    0.3071    3.3787 C   0  0  0  0  0  0  0  0  0  0  0  0
    4.3429    0.1162    2.9386 O   0  0  0  0  0  0  0  0  0  0  0  0
    4.1669   -0.4406    1.6594 C   0  0  0  0  0  0  0  0  0  0  0  0
    5.2456   -0.7865    0.8748 C   0  0  0  0  0  0  0  0  0  0  0  0
    5.0081   -1.3172   -0.3443 N   0  0  0  0  0  0  0  0  0  0  0  0
    3.7509   -1.5028   -0.7802 C   0  0  0  0  0  0  0  0  0  0  0  0
    2.6401   -1.1730   -0.0332 C   0  0  0  0  0  0  0  0  0  0  0  0
    1.3017   -1.4025   -0.5730 C   0  0  0  0  0  0  0  0  0  0  0  0
    1.0096   -2.4423   -1.4272 C   0  0  0  0  0  0  0  0  0  0  0  0
   -0.2857   -2.6189   -1.9231 C   0  0  0  0  0  0  0  0  0  0  0  0
   -1.2686   -1.7436   -1.5503 C   0  0  0  0  0  0  0  0  0  0  0  0
   -1.0103   -0.6926   -0.6974 C   0  0  0  0  0  0  0  0  0  0  0  0
   -2.1102    0.2126   -0.3417 C   0  0  0  0  0  0  0  0  0  0  0  0
   -3.2338   -0.5400    0.3888 C   0  0  0  0  0  0  0  0  0  0  0  0
   -3.0358   -1.1429    1.5843 C   0  0  0  0  0  0  0  0  0  0  0  0
   -4.0426   -1.7857    2.1899 C   0  0  0  0  0  0  0  0  0  0  0  0
   -5.4427   -1.5803    1.0514 S   0  0  0  0  0  0  0  0  0  0  0  0
   -4.4939   -0.6187   -0.1609 C   0  0  0  0  0  0  0  0  0  0  0  0
   -1.7072    1.2904    0.5139 N   0  0  0  0  0  0  0  0  0  0  0  0
   -1.9763    2.4503    0.0352 C   0  0  0  0  0  0  0  0  0  0  0  0
   -1.7050    3.7325    0.6390 N   0  0  0  0  0  0  0  0  0  0  0  0
   -2.6021    2.3023   -1.2277 N   0  0  0  0  0  0  0  0  0  0  0  0
   -3.0717    3.3833   -2.1116 C   0  0  0  0  0  0  0  0  0  0  0  0
   -2.6948    0.9188   -1.4868 C   0  0  0  0  0  0  0  0  0  0  0  0
   -3.1865    0.4072   -2.5083 O   0  0  0  0  0  0  0  0  0  0  0  0
    0.2825   -0.5392   -0.2191 C   0  0  0  0  0  0  0  0  0  0  0  0
    2.8737   -0.6298    1.2148 C   0  0  0  0  0  0  0  0  0  0  0  0
    6.2730   -0.6132    3.3564 H   0  0  0  0  0  0  0  0  0  0  0  0
    6.1347    1.1235    2.7547 H   0  0  0  0  0  0  0  0  0  0  0  0
    5.6199    0.6548    4.4377 H   0  0  0  0  0  0  0  0  0  0  0  0
    6.2570   -0.6239    1.2564 H   0  0  0  0  0  0  0  0  0  0  0  0
    3.6081   -1.9338   -1.7674 H   0  0  0  0  0  0  0  0  0  0  0  0
    1.8047   -3.1134   -1.7014 H   0  0  0  0  0  0  0  0  0  0  0  0
   -0.4863   -3.4469   -2.5938 H   0  0  0  0  0  0  0  0  0  0  0  0
   -2.2925   -1.8715   -1.9341 H   0  0  0  0  0  0  0  0  0  0  0  0
   -2.0271   -1.1313    2.1138 H   0  0  0  0  0  0  0  0  0  0  0  0
   -4.1230   -2.3259    3.1190 H   0  0  0  0  0  0  0  0  0  0  0  0
   -4.8948   -0.2376   -1.0675 H   0  0  0  0  0  0  0  0  0  0  0  0
   -1.4367    3.8140    1.6432 H   0  0  0  0  0  0  0  0  0  0  0  0
   -1.7745    4.5977    0.0760 H   0  0  0  0  0  0  0  0  0  0  0  0
   -2.4990    3.3598   -3.0369 H   0  0  0  0  0  0  0  0  0  0  0  0
   -2.9112    4.3683   -1.6267 H   0  0  0  0  0  0  0  0  0  0  0  0
   -4.1423    3.2901   -2.3270 H   0  0  0  0  0  0  0  0  0  0  0  0
    0.4737    0.2991    0.4569 H   0  0  0  0  0  0  0  0  0  0  0  0
    1.9941   -0.3740    1.7932 H   0  0  0  0  0  0  0  0  0  0  0  0
  1  2  1  0
  2  3  1  0
  3  4  2  0
  4  5  1  0
  5  6  2  0
  6  7  1  0
  7  8  1  0
  8  9  2  0
  9 10  1  0
 10 11  2  0
 11 12  1  0
 12 13  1  0
 13 14  1  0
 14 15  1  0
 15 16  2  0
 16 17  1  0
 17 18  1  0
 13 19  1  0
 19 20  2  0
 20 21  1  0
 20 22  1  0
 22 23  1  0
 22 24  1  0
 24 25  2  0
 12 26  2  0
  7 27  2  0
 27  3  1  0
 26  8  1  0
 24 13  1  0
 18 14  2  0
  1 28  1  0
  1 29  1  0
  1 30  1  0
  4 31  1  0
  6 32  1  0
  9 33  1  0
 10 34  1  0
 11 35  1  0
 15 36  1  0
 16 37  1  0
 18 38  1  0
 21 39  1  0
 21 40  1  0
 23 41  1  0
 23 42  1  0
 23 43  1  0
 26 44  1  0
 27 45  1  0
M  END
$$$$
