@<TRIPOS>MOLECULE
*****
 45 48 0 0 0
SMALL
GASTEIGER

@<TRIPOS>ATOM
      1 C           5.6672    0.3071    3.3787 C.3     1  UNL1        0.0789
      2 O           4.3429    0.1162    2.9386 O.3     1  UNL1       -0.4936
      3 C           4.1669   -0.4406    1.6594 C.ar    1  UNL1        0.1387
      4 C           5.2456   -0.7865    0.8748 C.ar    1  UNL1        0.0692
      5 N           5.0081   -1.3172   -0.3443 N.ar    1  UNL1       -0.2590
      6 C           3.7509   -1.5028   -0.7802 C.ar    1  UNL1        0.0355
      7 C           2.6401   -1.1730   -0.0332 C.ar    1  UNL1        0.0037
      8 C           1.3017   -1.4025   -0.5730 C.ar    1  UNL1       -0.0159
      9 C           1.0096   -2.4423   -1.4272 C.ar    1  UNL1       -0.0540
     10 C          -0.2857   -2.6189   -1.9231 C.ar    1  UNL1       -0.0608
     11 C          -1.2686   -1.7436   -1.5503 C.ar    1  UNL1       -0.0540
     12 C          -1.0103   -0.6926   -0.6974 C.ar    1  UNL1        0.0112
     13 C          -2.1102    0.2126   -0.3417 C.3     1  UNL1        0.2651
     14 C          -3.2338   -0.5400    0.3888 C.ar    1  UNL1        0.0176
     15 C          -3.0358   -1.1429    1.5843 C.ar    1  UNL1       -0.0470
     16 C          -4.0426   -1.7857    2.1899 C.ar    1  UNL1       -0.0239
     17 S          -5.4427   -1.5803    1.0514 S.2     1  UNL1       -0.1046
     18 C          -4.4939   -0.6187   -0.1609 C.ar    1  UNL1       -0.0166
     19 N          -1.7072    1.2904    0.5139 N.2     1  UNL1       -0.0891
     20 C          -1.9763    2.4503    0.0352 C.2     1  UNL1        0.3731
     21 N          -1.7050    3.7325    0.6390 N.pl3   1  UNL1       -0.2512
     22 N          -2.6021    2.3023   -1.2277 N.am    1  UNL1       -0.1614
     23 C          -3.0717    3.3833   -2.1116 C.3     1  UNL1        0.0573
     24 C          -2.6948    0.9188   -1.4868 C.2     1  UNL1        0.3303
     25 O          -3.1865    0.4072   -2.5083 O.2     1  UNL1       -0.2520
     26 C           0.2825   -0.5392   -0.2191 C.ar    1  UNL1       -0.0463
     27 C           2.8737   -0.6298    1.2148 C.ar    1  UNL1       -0.0093
     28 H           6.2730   -0.6132    3.3564 H       1  UNL1        0.0660
     29 H           6.1347    1.1235    2.7547 H       1  UNL1        0.0660
     30 H           5.6199    0.6548    4.4377 H       1  UNL1        0.0660
     31 H           6.2570   -0.6239    1.2564 H       1  UNL1        0.0867
     32 H           3.6081   -1.9338   -1.7674 H       1  UNL1        0.0836
     33 H           1.8047   -3.1134   -1.7014 H       1  UNL1        0.0624
     34 H          -0.4863   -3.4469   -2.5938 H       1  UNL1        0.0618
     35 H          -2.2925   -1.8715   -1.9341 H       1  UNL1        0.0622
     36 H          -2.0271   -1.1313    2.1138 H       1  UNL1        0.0627
     37 H          -4.1230   -2.3259    3.1190 H       1  UNL1        0.0693
     38 H          -4.8948   -0.2376   -1.0675 H       1  UNL1        0.0697
     39 H          -1.4367    3.8140    1.6432 H       1  UNL1        0.2412
     40 H          -1.7745    4.5977    0.0760 H       1  UNL1        0.2412
     41 H          -2.4990    3.3598   -3.0369 H       1  UNL1        0.0602
     42 H          -2.9112    4.3683   -1.6267 H       1  UNL1        0.0602
     43 H          -4.1423    3.2901   -2.3270 H       1  UNL1        0.0602
     44 H           0.4737    0.2991    0.4569 H       1  UNL1        0.0628
     45 H           1.9941   -0.3740    1.7932 H       1  UNL1        0.0661
@<TRIPOS>BOND
     1     1     2    1
     2     2     3    1
     3     3     4   ar
     4     4     5   ar
     5     5     6   ar
     6     6     7   ar
     7     7     8    1
     8     8     9   ar
     9     9    10   ar
    10    10    11   ar
    11    11    12   ar
    12    12    13    1
    13    13    14    1
    14    14    15   ar
    15    15    16   ar
    16    16    17   ar
    17    17    18   ar
    18    13    19    1
    19    19    20    2
    20    20    21    1
    21    20    22    1
    22    22    23    1
    23    22    24   am
    24    24    25    2
    25    12    26   ar
    26     7    27   ar
    27    27     3   ar
    28    26     8   ar
    29    24    13    1
    30    18    14   ar
    31     1    28    1
    32     1    29    1
    33     1    30    1
    34     4    31    1
    35     6    32    1
    36     9    33    1
    37    10    34    1
    38    11    35    1
    39    15    36    1
    40    16    37    1
    41    18    38    1
    42    21    39    1
    43    21    40    1
    44    23    41    1
    45    23    42    1
    46    23    43    1
    47    26    44    1
    48    27    45    1
