@<TRIPOS>MOLECULE
*****
 12 12 0 0 0
SMALL
GASTEIGER

@<TRIPOS>ATOM
      1 C          -1.6901   -0.1758   -0.0203 C.3     1  UNL1       -0.0368
      2 C          -0.2278    0.0454   -0.0065 C.ar    1  UNL1       -0.0133
      3 C           0.7518   -0.9187   -0.0532 C.ar    1  UNL1        0.0252
      4 N           1.9053   -0.2373   -0.0169 N.ar    1  UNL1       -0.2845
      5 N           1.6752    1.0646    0.0482 N.ar    1  UNL1       -0.1821
      6 C           0.3374    1.3126    0.0582 C.ar    1  UNL1        0.0520
      7 H          -1.8915   -1.2543   -0.2019 H       1  UNL1        0.0278
      8 H          -2.2130    0.4337   -0.7897 H       1  UNL1        0.0278
      9 H          -2.0567    0.0252    1.0161 H       1  UNL1        0.0278
     10 H           0.6198   -1.9926   -0.1075 H       1  UNL1        0.0826
     11 H           2.8826   -0.6088   -0.0338 H       1  UNL1        0.1882
     12 H          -0.0929    2.3060    0.1074 H       1  UNL1        0.0850
@<TRIPOS>BOND
     1     1     2    1
     2     2     3   ar
     3     3     4   ar
     4     4     5   ar
     5     5     6   ar
     6     6     2   ar
     7     1     7    1
     8     1     8    1
     9     1     9    1
    10     3    10    1
    11     4    11    1
    12     6    12    1
