@<TRIPOS>MOLECULE
*****
 62 64 0 0 0
SMALL
GASTEIGER

@<TRIPOS>ATOM
      1 O           4.5707   -1.1974   -0.1855 O.2     1  UNL1       -0.2758
      2 C           4.0628   -1.0370    0.9461 C.2     1  UNL1        0.2133
      3 C           4.9067   -0.8614    2.0992 C.3     1  UNL1        0.0279
      4 C           6.3547   -0.7712    1.9809 C.3     1  UNL1       -0.0194
      5 C           6.8433    0.3614    1.1677 C.ar    1  UNL1       -0.0469
      6 C           7.1822    0.2516   -0.1534 C.ar    1  UNL1       -0.0586
      7 C           7.6168    1.3783   -0.8650 C.ar    1  UNL1       -0.0615
      8 C           7.7212    2.6201   -0.2802 C.ar    1  UNL1       -0.0617
      9 C           7.3803    2.7191    1.0433 C.ar    1  UNL1       -0.0615
     10 C           6.9541    1.6303    1.7521 C.ar    1  UNL1       -0.0586
     11 N           2.6509   -1.0363    1.0320 N.am    1  UNL1       -0.3153
     12 C           1.7389   -1.2021   -0.0586 C.3     1  UNL1        0.0116
     13 C           1.9177   -0.1320   -1.0860 C.3     1  UNL1       -0.0354
     14 C           0.9774   -0.2422   -2.2411 C.3     1  UNL1       -0.0242
     15 C          -0.4758   -0.1553   -1.9018 C.3     1  UNL1        0.1254
     16 N          -1.2078   -0.2910   -3.1445 N.3     1  UNL1       -0.1762
     17 S          -2.3985   -1.5282   -3.1194 S.O2    1  UNL1        0.0591
     18 O          -3.0447   -1.5661   -4.4751 O.2     1  UNL1       -0.1530
     19 O          -1.8148   -2.8865   -2.8681 O.2     1  UNL1       -0.1530
     20 C          -3.5495   -1.1133   -1.8946 C.ar    1  UNL1        0.1053
     21 C          -4.6052   -0.2953   -2.1990 C.ar    1  UNL1       -0.0348
     22 C          -5.5494    0.0580   -1.2316 C.ar    1  UNL1       -0.0522
     23 C          -5.3953   -0.4353    0.0397 C.ar    1  UNL1       -0.0178
     24 C          -6.3757   -0.0682    1.0490 C.ar    1  UNL1       -0.0178
     25 C          -7.6877    0.1512    0.6582 C.ar    1  UNL1       -0.0530
     26 C          -8.6482    0.5023    1.5749 C.ar    1  UNL1       -0.0472
     27 C          -8.3248    0.6439    2.9082 C.ar    1  UNL1        0.0179
     28 BR         -9.6589    1.1327    4.1851 Br      1  UNL1       -0.0503
     29 C          -7.0026    0.4227    3.3021 C.ar    1  UNL1       -0.0472
     30 C          -6.0498    0.0721    2.3769 C.ar    1  UNL1       -0.0530
     31 C          -4.3440   -1.2615    0.3807 C.ar    1  UNL1       -0.0522
     32 C          -3.4172   -1.5925   -0.6213 C.ar    1  UNL1       -0.0348
     33 C          -0.7326    1.1631   -1.2653 C.2     1  UNL1        0.3235
     34 O          -0.2272    1.4952   -0.1704 O.2     1  UNL1       -0.2492
     35 O          -1.5639    2.0777   -1.8955 O.3     1  UNL1       -0.4795
     36 H           4.5438    0.0808    2.6231 H       1  UNL1        0.0361
     37 H           4.6026   -1.6596    2.8501 H       1  UNL1        0.0361
     38 H           6.8841   -1.6936    1.6669 H       1  UNL1        0.0318
     39 H           6.7724   -0.5796    3.0173 H       1  UNL1        0.0318
     40 H           7.1383   -0.6929   -0.6723 H       1  UNL1        0.0620
     41 H           7.8810    1.2770   -1.9067 H       1  UNL1        0.0618
     42 H           8.0569    3.4934   -0.8287 H       1  UNL1        0.0618
     43 H           7.4683    3.7184    1.5006 H       1  UNL1        0.0618
     44 H           6.6867    1.7189    2.7951 H       1  UNL1        0.0620
     45 H           2.2810   -0.8960    2.0250 H       1  UNL1        0.1487
     46 H           1.8491   -2.2139   -0.5526 H       1  UNL1        0.0462
     47 H           0.6979   -1.2319    0.3550 H       1  UNL1        0.0462
     48 H           2.9470   -0.2820   -1.5312 H       1  UNL1        0.0281
     49 H           1.9423    0.8833   -0.6606 H       1  UNL1        0.0281
     50 H           1.1905    0.6393   -2.9147 H       1  UNL1        0.0287
     51 H           1.2246   -1.1245   -2.8697 H       1  UNL1        0.0287
     52 H          -0.8509   -0.9290   -1.2101 H       1  UNL1        0.0592
     53 H          -0.6037   -0.3123   -3.9734 H       1  UNL1        0.1489
     54 H          -4.7275    0.0939   -3.2007 H       1  UNL1        0.0637
     55 H          -6.3771    0.6963   -1.4575 H       1  UNL1        0.0624
     56 H          -7.9739    0.0481   -0.3751 H       1  UNL1        0.0624
     57 H          -9.6561    0.6658    1.2425 H       1  UNL1        0.0629
     58 H          -6.7492    0.5336    4.3420 H       1  UNL1        0.0629
     59 H          -5.0260   -0.0964    2.6938 H       1  UNL1        0.0624
     60 H          -4.2658   -1.6236    1.3923 H       1  UNL1        0.0624
     61 H          -2.6210   -2.2426   -0.2959 H       1  UNL1        0.0637
     62 H          -2.1196    2.7220   -1.3500 H       1  UNL1        0.2951
@<TRIPOS>BOND
     1     1     2    2
     2     2     3    1
     3     3     4    1
     4     4     5    1
     5     5     6   ar
     6     6     7   ar
     7     7     8   ar
     8     8     9   ar
     9     9    10   ar
    10     2    11   am
    11    11    12    1
    12    12    13    1
    13    13    14    1
    14    14    15    1
    15    15    16    1
    16    16    17    1
    17    17    18    2
    18    17    19    2
    19    17    20    1
    20    20    21   ar
    21    21    22   ar
    22    22    23   ar
    23    23    24    1
    24    24    25   ar
    25    25    26   ar
    26    26    27   ar
    27    27    28    1
    28    27    29   ar
    29    29    30   ar
    30    23    31   ar
    31    31    32   ar
    32    15    33    1
    33    33    34    2
    34    33    35    1
    35    10     5   ar
    36    32    20   ar
    37    30    24   ar
    38     3    36    1
    39     3    37    1
    40     4    38    1
    41     4    39    1
    42     6    40    1
    43     7    41    1
    44     8    42    1
    45     9    43    1
    46    10    44    1
    47    11    45    1
    48    12    46    1
    49    12    47    1
    50    13    48    1
    51    13    49    1
    52    14    50    1
    53    14    51    1
    54    15    52    1
    55    16    53    1
    56    21    54    1
    57    22    55    1
    58    25    56    1
    59    26    57    1
    60    29    58    1
    61    30    59    1
    62    31    60    1
    63    32    61    1
    64    35    62    1
