
     RDKit          3D

 39 41  0  0  0  0  0  0  0  0999 V2000
    2.2729    2.1793   -0.5107 O   0  0  0  0  0  0  0  0  0  0  0  0
    1.5707    1.1639   -0.7989 C   0  0  0  0  0  0  0  0  0  0  0  0
    2.1701    0.2214   -1.6447 N   0  0  0  0  0  0  0  0  0  0  0  0
    3.4837    0.2304   -2.2477 C   0  0  0  0  0  0  0  0  0  0  0  0
    4.5759   -0.1082   -1.3288 C   0  0  0  0  0  0  0  0  0  0  0  0
    5.0119   -1.3535   -1.1140 N   0  0  0  0  0  0  0  0  0  0  0  0
    6.0060   -1.6920   -0.2875 C   0  0  0  0  0  0  0  0  0  0  0  0
    6.6832   -0.7248    0.4366 C   0  0  0  0  0  0  0  0  0  0  0  0
    6.2922    0.5812    0.2693 C   0  0  0  0  0  0  0  0  0  0  0  0
    5.2498    0.8758   -0.6055 C   0  0  0  0  0  0  0  0  0  0  0  0
    0.2238    1.0224   -0.2620 C   0  0  0  0  0  0  0  0  0  0  0  0
   -0.6501   -0.0186   -0.4959 C   0  0  0  0  0  0  0  0  0  0  0  0
   -1.9110   -0.0627    0.0595 C   0  0  0  0  0  0  0  0  0  0  0  0
   -2.3675    0.9419    0.8861 C   0  0  0  0  0  0  0  0  0  0  0  0
   -3.6090    1.0076    1.4999 O   0  0  0  0  0  0  0  0  0  0  0  0
   -4.5418    0.0268    1.3191 C   0  0  0  0  0  0  0  0  0  0  0  0
   -5.3627    0.3044    0.2221 C   0  0  0  0  0  0  0  0  0  0  0  0
   -6.3887   -0.5744   -0.1416 C   0  0  0  0  0  0  0  0  0  0  0  0
   -6.6179   -1.7380    0.5723 C   0  0  0  0  0  0  0  0  0  0  0  0
   -5.8012   -1.9946    1.6478 C   0  0  0  0  0  0  0  0  0  0  0  0
   -4.7834   -1.1354    2.0188 C   0  0  0  0  0  0  0  0  0  0  0  0
   -1.5240    2.0068    1.1490 C   0  0  0  0  0  0  0  0  0  0  0  0
   -0.2716    2.0127    0.5739 C   0  0  0  0  0  0  0  0  0  0  0  0
    1.5803   -0.6205   -1.8781 H   0  0  0  0  0  0  0  0  0  0  0  0
    3.4892   -0.3351   -3.1926 H   0  0  0  0  0  0  0  0  0  0  0  0
    3.6517    1.3079   -2.5457 H   0  0  0  0  0  0  0  0  0  0  0  0
    6.3463   -2.7080   -0.1252 H   0  0  0  0  0  0  0  0  0  0  0  0
    7.4996   -0.9787    1.1198 H   0  0  0  0  0  0  0  0  0  0  0  0
    6.7980    1.3559    0.8171 H   0  0  0  0  0  0  0  0  0  0  0  0
    4.9978    1.9127   -0.6881 H   0  0  0  0  0  0  0  0  0  0  0  0
   -0.3004   -0.8104   -1.1429 H   0  0  0  0  0  0  0  0  0  0  0  0
   -2.5834   -0.8701   -0.1251 H   0  0  0  0  0  0  0  0  0  0  0  0
   -5.2968    1.1835   -0.4297 H   0  0  0  0  0  0  0  0  0  0  0  0
   -7.0382   -0.3649   -1.0009 H   0  0  0  0  0  0  0  0  0  0  0  0
   -7.4110   -2.4228    0.2949 H   0  0  0  0  0  0  0  0  0  0  0  0
   -5.9169   -2.8816    2.2553 H   0  0  0  0  0  0  0  0  0  0  0  0
   -4.1007   -1.2664    2.8485 H   0  0  0  0  0  0  0  0  0  0  0  0
   -1.8088    2.8299    1.7852 H   0  0  0  0  0  0  0  0  0  0  0  0
    0.3822    2.8605    0.7904 H   0  0  0  0  0  0  0  0  0  0  0  0
  1  2  2  0
  2  3  1  0
  3  4  1  0
  4  5  1  0
  5  6  2  0
  6  7  1  0
  7  8  2  0
  8  9  1  0
  9 10  2  0
  2 11  1  0
 11 12  2  0
 12 13  1  0
 13 14  2  0
 14 15  1  0
 15 16  1  0
 16 17  2  0
 17 18  1  0
 18 19  2  0
 19 20  1  0
 20 21  2  0
 14 22  1  0
 22 23  2  0
 10  5  1  0
 23 11  1  0
 21 16  1  0
  3 24  1  0
  4 25  1  0
  4 26  1  0
  7 27  1  0
  8 28  1  0
  9 29  1  0
 10 30  1  0
 12 31  1  0
 13 32  1  0
 17 33  1  0
 18 34  1  0
 19 35  1  0
 20 36  1  0
 21 37  1  0
 22 38  1  0
 23 39  1  0
M  END
$$$$
