@<TRIPOS>MOLECULE
*****
 39 41 0 0 0
SMALL
GASTEIGER

@<TRIPOS>ATOM
      1 O           2.2729    2.1793   -0.5107 O.2     1  UNL1       -0.2702
      2 C           1.5707    1.1639   -0.7989 C.2     1  UNL1        0.2444
      3 N           2.1701    0.2214   -1.6447 N.am    1  UNL1       -0.3057
      4 C           3.4837    0.2304   -2.2477 C.3     1  UNL1        0.0542
      5 C           4.5759   -0.1082   -1.3288 C.ar    1  UNL1        0.0583
      6 N           5.0119   -1.3535   -1.1140 N.ar    1  UNL1       -0.2583
      7 C           6.0060   -1.6920   -0.2875 C.ar    1  UNL1        0.0279
      8 C           6.6832   -0.7248    0.4366 C.ar    1  UNL1       -0.0436
      9 C           6.2922    0.5812    0.2693 C.ar    1  UNL1       -0.0586
     10 C           5.2498    0.8758   -0.6055 C.ar    1  UNL1       -0.0388
     11 C           0.2238    1.0224   -0.2620 C.ar    1  UNL1        0.0369
     12 C          -0.6501   -0.0186   -0.4959 C.ar    1  UNL1       -0.0462
     13 C          -1.9110   -0.0627    0.0595 C.ar    1  UNL1       -0.0186
     14 C          -2.3675    0.9419    0.8861 C.ar    1  UNL1        0.1285
     15 O          -3.6090    1.0076    1.4999 O.3     1  UNL1       -0.4560
     16 C          -4.5418    0.0268    1.3191 C.ar    1  UNL1        0.1284
     17 C          -5.3627    0.3044    0.2221 C.ar    1  UNL1       -0.0193
     18 C          -6.3887   -0.5744   -0.1416 C.ar    1  UNL1       -0.0583
     19 C          -6.6179   -1.7380    0.5723 C.ar    1  UNL1       -0.0615
     20 C          -5.8012   -1.9946    1.6478 C.ar    1  UNL1       -0.0583
     21 C          -4.7834   -1.1354    2.0188 C.ar    1  UNL1       -0.0193
     22 C          -1.5240    2.0068    1.1490 C.ar    1  UNL1       -0.0186
     23 C          -0.2716    2.0127    0.5739 C.ar    1  UNL1       -0.0462
     24 H           1.5803   -0.6205   -1.8781 H       1  UNL1        0.1494
     25 H           3.4892   -0.3351   -3.1926 H       1  UNL1        0.0527
     26 H           3.6517    1.3079   -2.5457 H       1  UNL1        0.0527
     27 H           6.3463   -2.7080   -0.1252 H       1  UNL1        0.0829
     28 H           7.4996   -0.9787    1.1198 H       1  UNL1        0.0633
     29 H           6.7980    1.3559    0.8171 H       1  UNL1        0.0619
     30 H           4.9978    1.9127   -0.6881 H       1  UNL1        0.0636
     31 H          -0.3004   -0.8104   -1.1429 H       1  UNL1        0.0626
     32 H          -2.5834   -0.8701   -0.1251 H       1  UNL1        0.0654
     33 H          -5.2968    1.1835   -0.4297 H       1  UNL1        0.0654
     34 H          -7.0382   -0.3649   -1.0009 H       1  UNL1        0.0619
     35 H          -7.4110   -2.4228    0.2949 H       1  UNL1        0.0618
     36 H          -5.9169   -2.8816    2.2553 H       1  UNL1        0.0619
     37 H          -4.1007   -1.2664    2.8485 H       1  UNL1        0.0654
     38 H          -1.8088    2.8299    1.7852 H       1  UNL1        0.0654
     39 H           0.3822    2.8605    0.7904 H       1  UNL1        0.0626
@<TRIPOS>BOND
     1     1     2    2
     2     2     3   am
     3     3     4    1
     4     4     5    1
     5     5     6   ar
     6     6     7   ar
     7     7     8   ar
     8     8     9   ar
     9     9    10   ar
    10     2    11    1
    11    11    12   ar
    12    12    13   ar
    13    13    14   ar
    14    14    15    1
    15    15    16    1
    16    16    17   ar
    17    17    18   ar
    18    18    19   ar
    19    19    20   ar
    20    20    21   ar
    21    14    22   ar
    22    22    23   ar
    23    10     5   ar
    24    23    11   ar
    25    21    16   ar
    26     3    24    1
    27     4    25    1
    28     4    26    1
    29     7    27    1
    30     8    28    1
    31     9    29    1
    32    10    30    1
    33    12    31    1
    34    13    32    1
    35    17    33    1
    36    18    34    1
    37    19    35    1
    38    20    36    1
    39    21    37    1
    40    22    38    1
    41    23    39    1
