
     RDKit          3D

 56 58  0  0  0  0  0  0  0  0999 V2000
    4.4743   -3.6582   -0.2590 C   0  0  0  0  0  0  0  0  0  0  0  0
    3.8566   -2.3304    0.0088 C   0  0  0  0  0  0  0  0  0  0  0  0
    2.5133   -2.2277    0.3902 C   0  0  0  0  0  0  0  0  0  0  0  0
    1.9462   -0.9945    0.6373 C   0  0  0  0  0  0  0  0  0  0  0  0
    2.7435    0.1074    0.4952 C   0  0  0  0  0  0  0  0  0  0  0  0
    4.0761    0.0321    0.1191 C   0  0  0  0  0  0  0  0  0  0  0  0
    4.8533    1.3149    0.0194 C   0  0  0  0  0  0  0  0  0  0  0  0
    4.6625   -1.2136   -0.1349 C   0  0  0  0  0  0  0  0  0  0  0  0
    5.9607   -1.3287   -0.5027 O   0  0  0  0  0  0  0  0  0  0  0  0
    6.5305   -1.3929   -1.7574 C   0  0  0  0  0  0  0  0  0  0  0  0
    6.2547   -0.2188   -2.6579 C   0  0  0  0  0  0  0  0  0  0  0  0
    4.8450   -0.0679   -2.9010 N   0  0  0  0  0  0  0  0  0  0  0  0
    0.5426   -0.9775    1.0302 C   0  0  0  0  0  0  0  0  0  0  0  0
   -0.0565   -2.0809    1.1082 O   0  0  0  0  0  0  0  0  0  0  0  0
   -0.0852    0.2675    1.3063 N   0  0  0  0  0  0  0  0  0  0  0  0
   -1.4106    0.5922    1.7032 C   0  0  0  0  0  0  0  0  0  0  0  0
   -1.5937    0.6189    3.0851 C   0  0  0  0  0  0  0  0  0  0  0  0
   -2.8572    0.9288    3.5292 C   0  0  0  0  0  0  0  0  0  0  0  0
   -3.1809    0.9860    5.2456 Cl  0  0  0  0  0  0  0  0  0  0  0  0
   -3.8935    1.2001    2.6648 C   0  0  0  0  0  0  0  0  0  0  0  0
   -3.7246    1.1767    1.2985 C   0  0  0  0  0  0  0  0  0  0  0  0
   -2.4596    0.8664    0.8527 C   0  0  0  0  0  0  0  0  0  0  0  0
   -4.7346    1.4410    0.3360 N   0  0  0  0  0  0  0  0  0  0  0  0
   -4.5926    1.4786   -1.1044 C   0  0  0  0  0  0  0  0  0  0  0  0
   -5.4158    0.3999   -1.7860 C   0  0  0  0  0  0  0  0  0  0  0  0
   -6.8852    0.6623   -1.4801 C   0  0  0  0  0  0  0  0  0  0  0  0
   -7.0767    0.7354   -0.0014 C   0  0  0  0  0  0  0  0  0  0  0  0
   -6.1196    1.7230    0.6412 C   0  0  0  0  0  0  0  0  0  0  0  0
    3.7902   -4.4263    0.1635 H   0  0  0  0  0  0  0  0  0  0  0  0
    5.4630   -3.7755    0.2062 H   0  0  0  0  0  0  0  0  0  0  0  0
    4.5776   -3.7510   -1.3554 H   0  0  0  0  0  0  0  0  0  0  0  0
    1.9753   -3.1738    0.4714 H   0  0  0  0  0  0  0  0  0  0  0  0
    2.3259    1.0662    0.6807 H   0  0  0  0  0  0  0  0  0  0  0  0
    5.9058    1.0430   -0.0705 H   0  0  0  0  0  0  0  0  0  0  0  0
    4.7527    1.8645    0.9994 H   0  0  0  0  0  0  0  0  0  0  0  0
    4.4552    1.9759   -0.7708 H   0  0  0  0  0  0  0  0  0  0  0  0
    6.2246   -2.3002   -2.3404 H   0  0  0  0  0  0  0  0  0  0  0  0
    7.6556   -1.4260   -1.6261 H   0  0  0  0  0  0  0  0  0  0  0  0
    6.7345    0.7253   -2.3176 H   0  0  0  0  0  0  0  0  0  0  0  0
    6.7334   -0.4263   -3.6523 H   0  0  0  0  0  0  0  0  0  0  0  0
    4.5135   -0.7450   -3.6254 H   0  0  0  0  0  0  0  0  0  0  0  0
    4.5752    0.9099   -3.1059 H   0  0  0  0  0  0  0  0  0  0  0  0
    0.3801    1.1998    1.2517 H   0  0  0  0  0  0  0  0  0  0  0  0
   -0.8288    0.4173    3.8209 H   0  0  0  0  0  0  0  0  0  0  0  0
   -4.8531    1.4351    3.0642 H   0  0  0  0  0  0  0  0  0  0  0  0
   -2.1311    0.7973   -0.1664 H   0  0  0  0  0  0  0  0  0  0  0  0
   -3.5573    1.4092   -1.4266 H   0  0  0  0  0  0  0  0  0  0  0  0
   -4.9771    2.4544   -1.5070 H   0  0  0  0  0  0  0  0  0  0  0  0
   -5.2754    0.5215   -2.8772 H   0  0  0  0  0  0  0  0  0  0  0  0
   -5.1907   -0.6083   -1.4198 H   0  0  0  0  0  0  0  0  0  0  0  0
   -7.4918   -0.1347   -1.9076 H   0  0  0  0  0  0  0  0  0  0  0  0
   -7.2073    1.6255   -1.9427 H   0  0  0  0  0  0  0  0  0  0  0  0
   -6.9344   -0.2700    0.4462 H   0  0  0  0  0  0  0  0  0  0  0  0
   -8.1008    1.1457    0.1969 H   0  0  0  0  0  0  0  0  0  0  0  0
   -6.3786    2.7114    0.1932 H   0  0  0  0  0  0  0  0  0  0  0  0
   -6.3090    1.6950    1.7230 H   0  0  0  0  0  0  0  0  0  0  0  0
  1  2  1  0
  2  3  2  0
  3  4  1  0
  4  5  2  0
  5  6  1  0
  6  7  1  0
  6  8  2  0
  8  9  1  0
  9 10  1  0
 10 11  1  0
 11 12  1  0
  4 13  1  0
 13 14  2  0
 13 15  1  0
 15 16  1  0
 16 17  2  0
 17 18  1  0
 18 19  1  0
 18 20  2  0
 20 21  1  0
 21 22  2  0
 21 23  1  0
 23 24  1  0
 24 25  1  0
 25 26  1  0
 26 27  1  0
 27 28  1  0
  8  2  1  0
 22 16  1  0
 28 23  1  0
  1 29  1  0
  1 30  1  0
  1 31  1  0
  3 32  1  0
  5 33  1  0
  7 34  1  0
  7 35  1  0
  7 36  1  0
 10 37  1  0
 10 38  1  0
 11 39  1  0
 11 40  1  0
 12 41  1  0
 12 42  1  0
 15 43  1  0
 17 44  1  0
 20 45  1  0
 22 46  1  0
 24 47  1  0
 24 48  1  0
 25 49  1  0
 25 50  1  0
 26 51  1  0
 26 52  1  0
 27 53  1  0
 27 54  1  0
 28 55  1  0
 28 56  1  0
M  END
$$$$
