@<TRIPOS>MOLECULE
*****
 56 58 0 0 0
SMALL
GASTEIGER

@<TRIPOS>ATOM
      1 C           4.4743   -3.6582   -0.2590 C.3     1  UNL1       -0.0362
      2 C           3.8566   -2.3304    0.0088 C.ar    1  UNL1       -0.0078
      3 C           2.5133   -2.2277    0.3902 C.ar    1  UNL1       -0.0432
      4 C           1.9462   -0.9945    0.6373 C.ar    1  UNL1        0.0377
      5 C           2.7435    0.1074    0.4952 C.ar    1  UNL1       -0.0432
      6 C           4.0761    0.0321    0.1191 C.ar    1  UNL1       -0.0078
      7 C           4.8533    1.3149    0.0194 C.3     1  UNL1       -0.0362
      8 C           4.6625   -1.2136   -0.1349 C.ar    1  UNL1        0.1264
      9 O           5.9607   -1.3287   -0.5027 O.3     1  UNL1       -0.4902
     10 C           6.5305   -1.3929   -1.7574 C.3     1  UNL1        0.1018
     11 C           6.2547   -0.2188   -2.6579 C.3     1  UNL1        0.0276
     12 N           4.8450   -0.0679   -2.9010 N.3     1  UNL1       -0.3270
     13 C           0.5426   -0.9775    1.0302 C.2     1  UNL1        0.2483
     14 O          -0.0565   -2.0809    1.1082 O.2     1  UNL1       -0.2699
     15 N          -0.0852    0.2675    1.3063 N.am    1  UNL1       -0.2814
     16 C          -1.4106    0.5922    1.7032 C.ar    1  UNL1        0.0368
     17 C          -1.5937    0.6189    3.0851 C.ar    1  UNL1       -0.0220
     18 C          -2.8572    0.9288    3.5292 C.ar    1  UNL1        0.0445
     19 CL         -3.1809    0.9860    5.2456 Cl      1  UNL1       -0.0834
     20 C          -3.8935    1.2001    2.6648 C.ar    1  UNL1       -0.0222
     21 C          -3.7246    1.1767    1.2985 C.ar    1  UNL1        0.0328
     22 C          -2.4596    0.8664    0.8527 C.ar    1  UNL1       -0.0193
     23 N          -4.7346    1.4410    0.3360 N.pl3   1  UNL1       -0.3298
     24 C          -4.5926    1.4786   -1.1044 C.3     1  UNL1        0.0122
     25 C          -5.4158    0.3999   -1.7860 C.3     1  UNL1       -0.0372
     26 C          -6.8852    0.6623   -1.4801 C.3     1  UNL1       -0.0502
     27 C          -7.0767    0.7354   -0.0014 C.3     1  UNL1       -0.0372
     28 C          -6.1196    1.7230    0.6412 C.3     1  UNL1        0.0122
     29 H           3.7902   -4.4263    0.1635 H       1  UNL1        0.0279
     30 H           5.4630   -3.7755    0.2062 H       1  UNL1        0.0279
     31 H           4.5776   -3.7510   -1.3554 H       1  UNL1        0.0279
     32 H           1.9753   -3.1738    0.4714 H       1  UNL1        0.0629
     33 H           2.3259    1.0662    0.6807 H       1  UNL1        0.0629
     34 H           5.9058    1.0430   -0.0705 H       1  UNL1        0.0279
     35 H           4.7527    1.8645    0.9994 H       1  UNL1        0.0279
     36 H           4.4552    1.9759   -0.7708 H       1  UNL1        0.0279
     37 H           6.2246   -2.3002   -2.3404 H       1  UNL1        0.0709
     38 H           7.6556   -1.4260   -1.6261 H       1  UNL1        0.0709
     39 H           6.7345    0.7253   -2.3176 H       1  UNL1        0.0455
     40 H           6.7334   -0.4263   -3.6523 H       1  UNL1        0.0455
     41 H           4.5135   -0.7450   -3.6254 H       1  UNL1        0.1183
     42 H           4.5752    0.9099   -3.1059 H       1  UNL1        0.1183
     43 H           0.3801    1.1998    1.2517 H       1  UNL1        0.1551
     44 H          -0.8288    0.4173    3.8209 H       1  UNL1        0.0651
     45 H          -4.8531    1.4351    3.0642 H       1  UNL1        0.0651
     46 H          -2.1311    0.7973   -0.1664 H       1  UNL1        0.0655
     47 H          -3.5573    1.4092   -1.4266 H       1  UNL1        0.0464
     48 H          -4.9771    2.4544   -1.5070 H       1  UNL1        0.0464
     49 H          -5.2754    0.5215   -2.8772 H       1  UNL1        0.0280
     50 H          -5.1907   -0.6083   -1.4198 H       1  UNL1        0.0280
     51 H          -7.4918   -0.1347   -1.9076 H       1  UNL1        0.0266
     52 H          -7.2073    1.6255   -1.9427 H       1  UNL1        0.0266
     53 H          -6.9344   -0.2700    0.4462 H       1  UNL1        0.0280
     54 H          -8.1008    1.1457    0.1969 H       1  UNL1        0.0280
     55 H          -6.3786    2.7114    0.1932 H       1  UNL1        0.0464
     56 H          -6.3090    1.6950    1.7230 H       1  UNL1        0.0464
@<TRIPOS>BOND
     1     1     2    1
     2     2     3   ar
     3     3     4   ar
     4     4     5   ar
     5     5     6   ar
     6     6     7    1
     7     6     8   ar
     8     8     9    1
     9     9    10    1
    10    10    11    1
    11    11    12    1
    12     4    13    1
    13    13    14    2
    14    13    15   am
    15    15    16    1
    16    16    17   ar
    17    17    18   ar
    18    18    19    1
    19    18    20   ar
    20    20    21   ar
    21    21    22   ar
    22    21    23    1
    23    23    24    1
    24    24    25    1
    25    25    26    1
    26    26    27    1
    27    27    28    1
    28     8     2   ar
    29    22    16   ar
    30    28    23    1
    31     1    29    1
    32     1    30    1
    33     1    31    1
    34     3    32    1
    35     5    33    1
    36     7    34    1
    37     7    35    1
    38     7    36    1
    39    10    37    1
    40    10    38    1
    41    11    39    1
    42    11    40    1
    43    12    41    1
    44    12    42    1
    45    15    43    1
    46    17    44    1
    47    20    45    1
    48    22    46    1
    49    24    47    1
    50    24    48    1
    51    25    49    1
    52    25    50    1
    53    26    51    1
    54    26    52    1
    55    27    53    1
    56    27    54    1
    57    28    55    1
    58    28    56    1
