@<TRIPOS>MOLECULE
*****
 58 60 0 0 0
SMALL
GASTEIGER

@<TRIPOS>ATOM
      1 C          -4.9311   -3.1121   -1.0370 C.3     1  UNL1        0.0121
      2 C          -4.2696   -2.7056    0.2453 C.2     1  UNL1        0.2100
      3 O          -3.2453   -3.2935    0.6246 O.2     1  UNL1       -0.2761
      4 N          -4.8258   -1.6502    1.0106 N.am    1  UNL1       -0.3140
      5 C          -4.2735   -1.1765    2.2561 C.3     1  UNL1        0.0271
      6 C          -2.8613   -0.6526    2.1147 C.3     1  UNL1        0.0275
      7 N          -2.8339    0.4686    1.1667 N.am    1  UNL1       -0.3098
      8 C          -1.6259    1.1367    0.8567 C.2     1  UNL1        0.2474
      9 O          -0.6082    0.7128    1.4329 O.2     1  UNL1       -0.2701
     10 C          -1.5160    2.2520   -0.0687 C.ar    1  UNL1        0.0758
     11 C          -2.6999    2.8637   -0.5229 C.ar    1  UNL1        0.0415
     12 N          -2.6838    3.9325   -1.3289 N.ar    1  UNL1       -0.2624
     13 C          -1.5260    4.4808   -1.7490 C.ar    1  UNL1        0.0293
     14 C          -0.3444    3.9411   -1.3503 C.ar    1  UNL1       -0.0217
     15 C          -0.3436    2.7980   -0.4899 C.ar    1  UNL1        0.0465
     16 N           0.9134    2.3126   -0.1615 N.pl3   1  UNL1       -0.3135
     17 C           1.5954    1.1067   -0.3230 C.ar    1  UNL1        0.0383
     18 C           2.2133    0.4404    0.7345 C.ar    1  UNL1       -0.0141
     19 C           2.8917   -0.7186    0.5997 C.ar    1  UNL1        0.0755
     20 C           3.5459   -1.4443    1.6596 C.ar    1  UNL1        0.0369
     21 C           3.5181   -0.9716    2.9454 C.ar    1  UNL1       -0.0314
     22 C           4.1491   -1.6646    3.9907 C.ar    1  UNL1        0.0418
     23 CL          4.0813   -1.0131    5.6164 Cl      1  UNL1       -0.0835
     24 C           4.8163   -2.8453    3.7458 C.ar    1  UNL1       -0.0406
     25 C           4.8442   -3.3197    2.4555 C.ar    1  UNL1       -0.0244
     26 C           4.2200   -2.6277    1.4409 C.ar    1  UNL1        0.1326
     27 F           4.2427   -3.0934    0.1509 F       1  UNL1       -0.2048
     28 N           2.9670   -1.2528   -0.6448 N.ar    1  UNL1       -0.2545
     29 C           2.4163   -0.7001   -1.7086 C.ar    1  UNL1        0.0334
     30 C           1.7139    0.5049   -1.5499 C.ar    1  UNL1       -0.0056
     31 C           1.0637    1.1235   -2.7295 C.3     1  UNL1       -0.0183
     32 C           1.9452    2.2546   -3.2117 C.3     1  UNL1       -0.0585
     33 C           1.0743    0.1047   -3.8705 C.3     1  UNL1       -0.0585
     34 H          -6.0182   -3.1788   -0.8164 H       1  UNL1        0.0322
     35 H          -4.8156   -2.3351   -1.8081 H       1  UNL1        0.0322
     36 H          -4.5014   -4.0543   -1.3912 H       1  UNL1        0.0322
     37 H          -5.6850   -1.1982    0.6396 H       1  UNL1        0.1487
     38 H          -4.9125   -0.3527    2.6320 H       1  UNL1        0.0477
     39 H          -4.3159   -1.9895    3.0114 H       1  UNL1        0.0477
     40 H          -2.4429   -0.3878    3.0847 H       1  UNL1        0.0477
     41 H          -2.2609   -1.4623    1.6580 H       1  UNL1        0.0477
     42 H          -3.7109    0.7502    0.7347 H       1  UNL1        0.1491
     43 H          -3.6264    2.4406   -0.1945 H       1  UNL1        0.0838
     44 H          -1.5126    5.3522   -2.4051 H       1  UNL1        0.0830
     45 H           0.6136    4.3665   -1.6752 H       1  UNL1        0.0651
     46 H           1.5316    3.0671    0.3581 H       1  UNL1        0.1522
     47 H           2.1204    0.9110    1.6970 H       1  UNL1        0.0658
     48 H           3.0108   -0.0521    3.1970 H       1  UNL1        0.0639
     49 H           5.3037   -3.3757    4.5677 H       1  UNL1        0.0633
     50 H           5.3572   -4.2384    2.2348 H       1  UNL1        0.0647
     51 H           2.4897   -1.1468   -2.7083 H       1  UNL1        0.0833
     52 H           0.0542    1.4772   -2.5318 H       1  UNL1        0.0344
     53 H           2.8007    1.7727   -3.7690 H       1  UNL1        0.0235
     54 H           2.3346    2.8472   -2.3485 H       1  UNL1        0.0235
     55 H           1.4209    2.8764   -3.9614 H       1  UNL1        0.0235
     56 H           0.3620    0.5451   -4.6313 H       1  UNL1        0.0235
     57 H           2.0784    0.0480   -4.2791 H       1  UNL1        0.0235
     58 H           0.7013   -0.8744   -3.5963 H       1  UNL1        0.0235
@<TRIPOS>BOND
     1     1     2    1
     2     2     3    2
     3     2     4   am
     4     4     5    1
     5     5     6    1
     6     6     7    1
     7     7     8   am
     8     8     9    2
     9     8    10    1
    10    10    11   ar
    11    11    12   ar
    12    12    13   ar
    13    13    14   ar
    14    14    15   ar
    15    15    16    1
    16    16    17    1
    17    17    18   ar
    18    18    19   ar
    19    19    20    1
    20    20    21   ar
    21    21    22   ar
    22    22    23    1
    23    22    24   ar
    24    24    25   ar
    25    25    26   ar
    26    26    27    1
    27    19    28   ar
    28    28    29   ar
    29    29    30   ar
    30    30    31    1
    31    31    32    1
    32    31    33    1
    33    15    10   ar
    34    30    17   ar
    35    26    20   ar
    36     1    34    1
    37     1    35    1
    38     1    36    1
    39     4    37    1
    40     5    38    1
    41     5    39    1
    42     6    40    1
    43     6    41    1
    44     7    42    1
    45    11    43    1
    46    13    44    1
    47    14    45    1
    48    16    46    1
    49    18    47    1
    50    21    48    1
    51    24    49    1
    52    25    50    1
    53    29    51    1
    54    31    52    1
    55    32    53    1
    56    32    54    1
    57    32    55    1
    58    33    56    1
    59    33    57    1
    60    33    58    1
