@<TRIPOS>MOLECULE
*****
 54 55 0 0 0
SMALL
GASTEIGER

@<TRIPOS>ATOM
      1 C          -0.3585    1.7293    3.5530 C.3     1  UNL1        0.0790
      2 O          -0.8423    0.6996    2.7102 O.3     1  UNL1       -0.4913
      3 C           0.1011   -0.1272    2.1139 C.ar    1  UNL1        0.1654
      4 C           1.4696    0.0066    2.3020 C.ar    1  UNL1       -0.0126
      5 C           2.3851   -0.8233    1.7014 C.ar    1  UNL1       -0.0358
      6 C           3.8076   -0.6295    1.9277 C.3     1  UNL1        0.0025
      7 C           4.5442    0.1121    0.8790 C.ar    1  UNL1        0.0146
      8 C           5.3477   -0.5650   -0.0317 C.ar    1  UNL1        0.0379
      9 N           6.0127    0.1079   -0.9850 N.ar    1  UNL1       -0.2227
     10 C           5.9539    1.4422   -1.1260 C.ar    1  UNL1        0.2142
     11 N           6.6825    2.1220   -2.1607 N.pl3   1  UNL1       -0.3274
     12 N           5.1838    2.1143   -0.2566 N.ar    1  UNL1       -0.1999
     13 C           4.4867    1.4745    0.7319 C.ar    1  UNL1        0.1247
     14 N           3.6916    2.2434    1.6243 N.pl3   1  UNL1       -0.3428
     15 C           1.9721   -1.8428    0.8717 C.ar    1  UNL1       -0.0126
     16 C           0.6142   -1.9835    0.6789 C.ar    1  UNL1        0.1654
     17 O           0.1918   -3.0226   -0.1669 O.3     1  UNL1       -0.4913
     18 C           1.0957   -3.8895   -0.7968 C.3     1  UNL1        0.0790
     19 C          -0.3025   -1.1494    1.2824 C.ar    1  UNL1        0.2038
     20 O          -1.6694   -1.3263    1.0601 O.3     1  UNL1       -0.4852
     21 C          -2.2567   -0.6371   -0.0249 C.3     1  UNL1        0.0899
     22 C          -3.7368   -0.9260   -0.1380 C.3     1  UNL1       -0.0186
     23 C          -4.2329   -0.1239   -1.3394 C.3     1  UNL1       -0.0495
     24 C          -5.6951   -0.3551   -1.5187 C.3     1  UNL1       -0.0429
     25 C          -6.2592    0.3988   -2.6846 C.3     1  UNL1        0.0448
     26 C          -6.1495    1.8498   -2.5709 C.2     1  UNL1        0.3047
     27 O          -5.6862    2.3987   -1.5405 O.2     1  UNL1       -0.2510
     28 O          -6.5743    2.6636   -3.6459 O.3     1  UNL1       -0.4806
     29 H          -1.2043    2.2224    4.0873 H       1  UNL1        0.0660
     30 H           0.1580    2.5359    2.9976 H       1  UNL1        0.0660
     31 H           0.3363    1.3656    4.3292 H       1  UNL1        0.0660
     32 H           1.7521    0.8194    2.9694 H       1  UNL1        0.0658
     33 H           4.0200   -0.0793    2.8925 H       1  UNL1        0.0363
     34 H           4.2804   -1.6361    2.0976 H       1  UNL1        0.0363
     35 H           5.3968   -1.6392    0.0800 H       1  UNL1        0.0834
     36 H           7.3738    2.8810   -1.9547 H       1  UNL1        0.1452
     37 H           6.4881    1.8206   -3.1404 H       1  UNL1        0.1452
     38 H           2.9323    2.8412    1.2243 H       1  UNL1        0.1437
     39 H           3.8296    2.2399    2.6596 H       1  UNL1        0.1437
     40 H           2.6785   -2.5194    0.3798 H       1  UNL1        0.0658
     41 H           0.5366   -4.4652   -1.5611 H       1  UNL1        0.0660
     42 H           1.5676   -4.6182   -0.0921 H       1  UNL1        0.0660
     43 H           1.8779   -3.3091   -1.3283 H       1  UNL1        0.0660
     44 H          -1.7988   -0.8940   -0.9948 H       1  UNL1        0.0696
     45 H          -2.1675    0.4548    0.2119 H       1  UNL1        0.0696
     46 H          -4.3095   -0.6752    0.7566 H       1  UNL1        0.0298
     47 H          -3.8209   -2.0161   -0.3869 H       1  UNL1        0.0298
     48 H          -3.6911   -0.4837   -2.2508 H       1  UNL1        0.0266
     49 H          -3.9975    0.9423   -1.2331 H       1  UNL1        0.0266
     50 H          -5.8080   -1.4505   -1.7591 H       1  UNL1        0.0270
     51 H          -6.2442   -0.1039   -0.5851 H       1  UNL1        0.0270
     52 H          -7.3635    0.1513   -2.7084 H       1  UNL1        0.0377
     53 H          -5.8914    0.0124   -3.6598 H       1  UNL1        0.0377
     54 H          -6.7086    3.6413   -3.4153 H       1  UNL1        0.2951
@<TRIPOS>BOND
     1     1     2    1
     2     2     3    1
     3     3     4   ar
     4     4     5   ar
     5     5     6    1
     6     6     7    1
     7     7     8   ar
     8     8     9   ar
     9     9    10   ar
    10    10    11    1
    11    10    12   ar
    12    12    13   ar
    13    13    14    1
    14     5    15   ar
    15    15    16   ar
    16    16    17    1
    17    17    18    1
    18    16    19   ar
    19    19    20    1
    20    20    21    1
    21    21    22    1
    22    22    23    1
    23    23    24    1
    24    24    25    1
    25    25    26    1
    26    26    27    2
    27    26    28    1
    28    19     3   ar
    29    13     7   ar
    30     1    29    1
    31     1    30    1
    32     1    31    1
    33     4    32    1
    34     6    33    1
    35     6    34    1
    36     8    35    1
    37    11    36    1
    38    11    37    1
    39    14    38    1
    40    14    39    1
    41    15    40    1
    42    18    41    1
    43    18    42    1
    44    18    43    1
    45    21    44    1
    46    21    45    1
    47    22    46    1
    48    22    47    1
    49    23    48    1
    50    23    49    1
    51    24    50    1
    52    24    51    1
    53    25    52    1
    54    25    53    1
    55    28    54    1
