@<TRIPOS>MOLECULE
*****
 52 56 0 0 0
SMALL
GASTEIGER

@<TRIPOS>ATOM
      1 C           4.6513   -4.3582   -2.9764 C.3     1  UNL1        0.0125
      2 C           4.4447   -3.2877   -1.9298 C.2     1  UNL1        0.2141
      3 O           5.4478   -2.8981   -1.3064 O.2     1  UNL1       -0.2758
      4 N           3.1706   -2.7510   -1.6682 N.am    1  UNL1       -0.2839
      5 C           2.9344   -1.7410   -0.6901 C.ar    1  UNL1        0.0637
      6 C           3.7885   -1.0917    0.1649 C.ar    1  UNL1        0.0266
      7 N           3.1110   -0.1878    0.9355 N.ar    1  UNL1       -0.3492
      8 C           3.7584    0.6464    1.9329 C.3     1  UNL1        0.0117
      9 C           1.8287   -0.2532    0.5804 C.ar    1  UNL1        0.0581
     10 C           1.6791   -1.1937   -0.4134 C.ar    1  UNL1        0.0813
     11 C           0.2689   -1.2268   -0.7620 C.2     1  UNL1        0.2563
     12 O          -0.2148   -1.9816   -1.6411 O.2     1  UNL1       -0.2694
     13 N          -0.4283   -0.2688    0.0611 N.am    1  UNL1       -0.2387
     14 C          -1.8314   -0.0962   -0.0640 C.ar    1  UNL1        0.1313
     15 C          -2.4261    0.8030   -0.9399 C.ar    1  UNL1       -0.0161
     16 C          -3.7966    0.9318   -1.0203 C.ar    1  UNL1       -0.0164
     17 C          -4.4399    1.8893   -1.9525 C.3     1  UNL1       -0.0374
     18 C          -4.5703    0.1379   -0.2015 C.ar    1  UNL1        0.1345
     19 N          -5.8942   -0.0193    0.0017 N.ar    1  UNL1       -0.1276
     20 N          -6.0948   -0.9415    0.9284 N.ar    1  UNL1       -0.0635
     21 N          -4.9426   -1.4201    1.3652 N.ar    1  UNL1       -0.2297
     22 C          -4.6835   -2.4315    2.3647 C.3     1  UNL1        0.0341
     23 C          -3.9836   -0.7682    0.6816 C.ar    1  UNL1        0.1803
     24 N          -2.6429   -0.8404    0.7066 N.ar    1  UNL1       -0.2108
     25 C           0.5226    0.3710    0.9213 C.3     1  UNL1        0.0986
     26 C           0.5532    1.8328    0.8212 C.ar    1  UNL1       -0.0207
     27 C           0.5797    2.6252    1.9719 C.ar    1  UNL1       -0.0550
     28 C           0.6111    4.0023    1.9135 C.ar    1  UNL1       -0.0431
     29 C           0.6172    4.6479    0.6880 C.ar    1  UNL1        0.0410
     30 CL          0.6566    6.3927    0.5601 Cl      1  UNL1       -0.0835
     31 C           0.5917    3.8971   -0.4549 C.ar    1  UNL1       -0.0431
     32 C           0.5607    2.5309   -0.3697 C.ar    1  UNL1       -0.0550
     33 H           3.6814   -4.8948   -3.1419 H       1  UNL1        0.0323
     34 H           5.3599   -5.0823   -2.5304 H       1  UNL1        0.0323
     35 H           5.0235   -3.9146   -3.9110 H       1  UNL1        0.0323
     36 H           2.3793   -3.1451   -2.2485 H       1  UNL1        0.1549
     37 H           4.8672   -1.2796    0.2156 H       1  UNL1        0.0828
     38 H           3.0726    0.7808    2.7959 H       1  UNL1        0.0456
     39 H           4.6665    0.1327    2.3601 H       1  UNL1        0.0456
     40 H           4.0955    1.6088    1.5438 H       1  UNL1        0.0456
     41 H          -1.8192    1.4096   -1.5676 H       1  UNL1        0.0655
     42 H          -3.7744    2.7617   -2.1257 H       1  UNL1        0.0278
     43 H          -4.6589    1.4086   -2.9460 H       1  UNL1        0.0278
     44 H          -5.4117    2.2438   -1.5696 H       1  UNL1        0.0278
     45 H          -4.3014   -3.3879    1.9053 H       1  UNL1        0.0474
     46 H          -5.6474   -2.6740    2.8778 H       1  UNL1        0.0474
     47 H          -3.9334   -2.1322    3.1006 H       1  UNL1        0.0474
     48 H           0.2292    0.1031    1.9748 H       1  UNL1        0.0620
     49 H           0.5758    2.1519    2.9412 H       1  UNL1        0.0621
     50 H           0.6314    4.6044    2.8077 H       1  UNL1        0.0632
     51 H           0.5965    4.4051   -1.4113 H       1  UNL1        0.0632
     52 H           0.5407    1.9488   -1.2796 H       1  UNL1        0.0621
@<TRIPOS>BOND
     1     1     2    1
     2     2     3    2
     3     2     4   am
     4     4     5    1
     5     5     6   ar
     6     6     7   ar
     7     7     8    1
     8     7     9   ar
     9     9    10   ar
    10    10    11    1
    11    11    12    2
    12    11    13   am
    13    13    14    1
    14    14    15   ar
    15    15    16   ar
    16    16    17    1
    17    16    18   ar
    18    18    19   ar
    19    19    20   ar
    20    20    21   ar
    21    21    22    1
    22    21    23   ar
    23    23    24   ar
    24    13    25    1
    25    25    26    1
    26    26    27   ar
    27    27    28   ar
    28    28    29   ar
    29    29    30    1
    30    29    31   ar
    31    31    32   ar
    32    10     5   ar
    33    24    14   ar
    34    32    26   ar
    35    25     9    1
    36    23    18   ar
    37     1    33    1
    38     1    34    1
    39     1    35    1
    40     4    36    1
    41     6    37    1
    42     8    38    1
    43     8    39    1
    44     8    40    1
    45    15    41    1
    46    17    42    1
    47    17    43    1
    48    17    44    1
    49    22    45    1
    50    22    46    1
    51    22    47    1
    52    25    48    1
    53    27    49    1
    54    28    50    1
    55    31    51    1
    56    32    52    1
