
     RDKit          3D

 52 56  0  0  0  0  0  0  0  0999 V2000
    4.6513   -4.3582   -2.9764 C   0  0  0  0  0  0  0  0  0  0  0  0
    4.4447   -3.2877   -1.9298 C   0  0  0  0  0  0  0  0  0  0  0  0
    5.4478   -2.8981   -1.3064 O   0  0  0  0  0  0  0  0  0  0  0  0
    3.1706   -2.7510   -1.6682 N   0  0  0  0  0  0  0  0  0  0  0  0
    2.9344   -1.7410   -0.6901 C   0  0  0  0  0  0  0  0  0  0  0  0
    3.7885   -1.0917    0.1649 C   0  0  0  0  0  0  0  0  0  0  0  0
    3.1110   -0.1878    0.9355 N   0  0  0  0  0  0  0  0  0  0  0  0
    3.7584    0.6464    1.9329 C   0  0  0  0  0  0  0  0  0  0  0  0
    1.8287   -0.2532    0.5804 C   0  0  0  0  0  0  0  0  0  0  0  0
    1.6791   -1.1937   -0.4134 C   0  0  0  0  0  0  0  0  0  0  0  0
    0.2689   -1.2268   -0.7620 C   0  0  0  0  0  0  0  0  0  0  0  0
   -0.2148   -1.9816   -1.6411 O   0  0  0  0  0  0  0  0  0  0  0  0
   -0.4283   -0.2688    0.0611 N   0  0  0  0  0  0  0  0  0  0  0  0
   -1.8314   -0.0962   -0.0640 C   0  0  0  0  0  0  0  0  0  0  0  0
   -2.4261    0.8030   -0.9399 C   0  0  0  0  0  0  0  0  0  0  0  0
   -3.7966    0.9318   -1.0203 C   0  0  0  0  0  0  0  0  0  0  0  0
   -4.4399    1.8893   -1.9525 C   0  0  0  0  0  0  0  0  0  0  0  0
   -4.5703    0.1379   -0.2015 C   0  0  0  0  0  0  0  0  0  0  0  0
   -5.8942   -0.0193    0.0017 N   0  0  0  0  0  0  0  0  0  0  0  0
   -6.0948   -0.9415    0.9284 N   0  0  0  0  0  0  0  0  0  0  0  0
   -4.9426   -1.4201    1.3652 N   0  0  0  0  0  0  0  0  0  0  0  0
   -4.6835   -2.4315    2.3647 C   0  0  0  0  0  0  0  0  0  0  0  0
   -3.9836   -0.7682    0.6816 C   0  0  0  0  0  0  0  0  0  0  0  0
   -2.6429   -0.8404    0.7066 N   0  0  0  0  0  0  0  0  0  0  0  0
    0.5226    0.3710    0.9213 C   0  0  0  0  0  0  0  0  0  0  0  0
    0.5532    1.8328    0.8212 C   0  0  0  0  0  0  0  0  0  0  0  0
    0.5797    2.6252    1.9719 C   0  0  0  0  0  0  0  0  0  0  0  0
    0.6111    4.0023    1.9135 C   0  0  0  0  0  0  0  0  0  0  0  0
    0.6172    4.6479    0.6880 C   0  0  0  0  0  0  0  0  0  0  0  0
    0.6566    6.3927    0.5601 Cl  0  0  0  0  0  0  0  0  0  0  0  0
    0.5917    3.8971   -0.4549 C   0  0  0  0  0  0  0  0  0  0  0  0
    0.5607    2.5309   -0.3697 C   0  0  0  0  0  0  0  0  0  0  0  0
    3.6814   -4.8948   -3.1419 H   0  0  0  0  0  0  0  0  0  0  0  0
    5.3599   -5.0823   -2.5304 H   0  0  0  0  0  0  0  0  0  0  0  0
    5.0235   -3.9146   -3.9110 H   0  0  0  0  0  0  0  0  0  0  0  0
    2.3793   -3.1451   -2.2485 H   0  0  0  0  0  0  0  0  0  0  0  0
    4.8672   -1.2796    0.2156 H   0  0  0  0  0  0  0  0  0  0  0  0
    3.0726    0.7808    2.7959 H   0  0  0  0  0  0  0  0  0  0  0  0
    4.6665    0.1327    2.3601 H   0  0  0  0  0  0  0  0  0  0  0  0
    4.0955    1.6088    1.5438 H   0  0  0  0  0  0  0  0  0  0  0  0
   -1.8192    1.4096   -1.5676 H   0  0  0  0  0  0  0  0  0  0  0  0
   -3.7744    2.7617   -2.1257 H   0  0  0  0  0  0  0  0  0  0  0  0
   -4.6589    1.4086   -2.9460 H   0  0  0  0  0  0  0  0  0  0  0  0
   -5.4117    2.2438   -1.5696 H   0  0  0  0  0  0  0  0  0  0  0  0
   -4.3014   -3.3879    1.9053 H   0  0  0  0  0  0  0  0  0  0  0  0
   -5.6474   -2.6740    2.8778 H   0  0  0  0  0  0  0  0  0  0  0  0
   -3.9334   -2.1322    3.1006 H   0  0  0  0  0  0  0  0  0  0  0  0
    0.2292    0.1031    1.9748 H   0  0  0  0  0  0  0  0  0  0  0  0
    0.5758    2.1519    2.9412 H   0  0  0  0  0  0  0  0  0  0  0  0
    0.6314    4.6044    2.8077 H   0  0  0  0  0  0  0  0  0  0  0  0
    0.5965    4.4051   -1.4113 H   0  0  0  0  0  0  0  0  0  0  0  0
    0.5407    1.9488   -1.2796 H   0  0  0  0  0  0  0  0  0  0  0  0
  1  2  1  0
  2  3  2  0
  2  4  1  0
  4  5  1  0
  5  6  2  0
  6  7  1  0
  7  8  1  0
  7  9  1  0
  9 10  2  0
 10 11  1  0
 11 12  2  0
 11 13  1  0
 13 14  1  0
 14 15  2  0
 15 16  1  0
 16 17  1  0
 16 18  2  0
 18 19  1  0
 19 20  2  0
 20 21  1  0
 21 22  1  0
 21 23  1  0
 23 24  2  0
 13 25  1  0
 25 26  1  0
 26 27  2  0
 27 28  1  0
 28 29  2  0
 29 30  1  0
 29 31  1  0
 31 32  2  0
 10  5  1  0
 24 14  1  0
 32 26  1  0
 25  9  1  0
 23 18  1  0
  1 33  1  0
  1 34  1  0
  1 35  1  0
  4 36  1  0
  6 37  1  0
  8 38  1  0
  8 39  1  0
  8 40  1  0
 15 41  1  0
 17 42  1  0
 17 43  1  0
 17 44  1  0
 22 45  1  0
 22 46  1  0
 22 47  1  0
 25 48  1  0
 27 49  1  0
 28 50  1  0
 31 51  1  0
 32 52  1  0
M  END
$$$$
