@<TRIPOS>MOLECULE
*****
 59 63 0 0 0
SMALL
GASTEIGER

@<TRIPOS>ATOM
      1 C           6.6826    4.2691   -0.2681 C.3     1  UNL1        0.0788
      2 O           5.8938    3.7024    0.7635 O.3     1  UNL1       -0.4951
      3 C           5.3389    2.4414    0.5191 C.ar    1  UNL1        0.1202
      4 C           5.5004    1.7210   -0.6325 C.ar    1  UNL1       -0.0180
      5 C           4.9016    0.4860   -0.7548 C.ar    1  UNL1       -0.0328
      6 C           4.1417    0.0029    0.3095 C.ar    1  UNL1        0.0664
      7 C           3.9811    0.7341    1.4715 C.ar    1  UNL1       -0.0328
      8 C           4.5890    1.9758    1.5818 C.ar    1  UNL1       -0.0180
      9 N           3.5837   -1.2875    0.0386 N.ar    1  UNL1       -0.2266
     10 N           4.3027   -2.3490   -0.2891 N.ar    1  UNL1       -0.1607
     11 C           3.5042   -3.4144   -0.4827 C.ar    1  UNL1        0.1512
     12 C           3.9387   -4.7699   -0.8581 C.2     1  UNL1        0.2619
     13 N           5.3058   -5.0328   -1.0453 N.am    1  UNL1       -0.3240
     14 O           3.0981   -5.6972   -1.0135 O.2     1  UNL1       -0.2687
     15 C           2.2216   -2.9695   -0.2580 C.ar    1  UNL1        0.0168
     16 C           2.2795   -1.6318    0.0691 C.ar    1  UNL1        0.1335
     17 C           1.0631   -0.8857    0.3627 C.2     1  UNL1        0.2696
     18 O           1.1107    0.3307    0.6606 O.2     1  UNL1       -0.2679
     19 N          -0.1434   -1.6404    0.2825 N.am    1  UNL1       -0.2659
     20 C          -0.2289   -3.0686    0.1892 C.3     1  UNL1        0.0243
     21 C           0.9786   -3.7548   -0.3425 C.3     1  UNL1       -0.0070
     22 C          -1.3846   -0.9034    0.2965 C.ar    1  UNL1        0.0367
     23 C          -2.0294   -0.6147    1.4877 C.ar    1  UNL1       -0.0385
     24 C          -3.2167    0.0929    1.4678 C.ar    1  UNL1       -0.0385
     25 C          -3.7896    0.5283    0.2786 C.ar    1  UNL1        0.0364
     26 C          -3.1235    0.2259   -0.8996 C.ar    1  UNL1       -0.0385
     27 C          -1.9197   -0.4893   -0.9071 C.ar    1  UNL1       -0.0385
     28 N          -5.0088    1.2598    0.1972 N.am    1  UNL1       -0.2714
     29 C          -6.2818    0.5335    0.0685 C.3     1  UNL1        0.0198
     30 C          -7.1988    1.2939   -0.8417 C.3     1  UNL1       -0.0363
     31 C          -7.5106    2.6847   -0.3860 C.3     1  UNL1       -0.0433
     32 C          -6.4324    3.3141    0.4444 C.3     1  UNL1        0.0245
     33 C          -5.1042    2.6957    0.2314 C.2     1  UNL1        0.2198
     34 O          -3.9996    3.2854    0.0692 O.2     1  UNL1       -0.2753
     35 H           6.0705    4.6411   -1.1255 H       1  UNL1        0.0660
     36 H           7.3928    3.5005   -0.5905 H       1  UNL1        0.0660
     37 H           7.2389    5.1375    0.1562 H       1  UNL1        0.0660
     38 H           6.1013    2.1535   -1.4173 H       1  UNL1        0.0655
     39 H           5.0657   -0.0253   -1.6770 H       1  UNL1        0.0640
     40 H           3.3737    0.2632    2.2267 H       1  UNL1        0.0640
     41 H           4.4209    2.4935    2.5196 H       1  UNL1        0.0655
     42 H           6.0364   -5.5765   -0.5242 H       1  UNL1        0.1453
     43 H           6.1777   -4.9212   -1.5950 H       1  UNL1        0.1453
     44 H          -0.5446   -3.4761    1.1833 H       1  UNL1        0.0472
     45 H          -1.0807   -3.2904   -0.5112 H       1  UNL1        0.0472
     46 H           1.1414   -4.6844    0.2740 H       1  UNL1        0.0330
     47 H           0.8186   -4.1234   -1.3968 H       1  UNL1        0.0330
     48 H          -1.6294   -0.9277    2.4306 H       1  UNL1        0.0637
     49 H          -3.7645    0.3469    2.3692 H       1  UNL1        0.0637
     50 H          -3.5176    0.5350   -1.8378 H       1  UNL1        0.0637
     51 H          -1.3887   -0.7327   -1.8165 H       1  UNL1        0.0637
     52 H          -6.7519    0.3249    1.0317 H       1  UNL1        0.0469
     53 H          -6.0357   -0.4211   -0.4439 H       1  UNL1        0.0469
     54 H          -8.1699    0.7251   -0.8552 H       1  UNL1        0.0281
     55 H          -6.8317    1.2520   -1.8965 H       1  UNL1        0.0281
     56 H          -8.5003    2.7405    0.1345 H       1  UNL1        0.0270
     57 H          -7.6565    3.3163   -1.3030 H       1  UNL1        0.0270
     58 H          -6.6939    3.2685    1.5236 H       1  UNL1        0.0358
     59 H          -6.3164    4.4115    0.2171 H       1  UNL1        0.0358
@<TRIPOS>BOND
     1     1     2    1
     2     2     3    1
     3     3     4   ar
     4     4     5   ar
     5     5     6   ar
     6     6     7   ar
     7     7     8   ar
     8     6     9    1
     9     9    10   ar
    10    10    11   ar
    11    11    12    1
    12    12    13   am
    13    12    14    2
    14    11    15   ar
    15    15    16   ar
    16    16    17    1
    17    17    18    2
    18    17    19   am
    19    19    20    1
    20    20    21    1
    21    19    22    1
    22    22    23   ar
    23    23    24   ar
    24    24    25   ar
    25    25    26   ar
    26    26    27   ar
    27    25    28    1
    28    28    29    1
    29    29    30    1
    30    30    31    1
    31    31    32    1
    32    32    33    1
    33    33    34    2
    34     8     3   ar
    35    16     9   ar
    36    27    22   ar
    37    33    28   am
    38    21    15    1
    39     1    35    1
    40     1    36    1
    41     1    37    1
    42     4    38    1
    43     5    39    1
    44     7    40    1
    45     8    41    1
    46    13    42    1
    47    13    43    1
    48    20    44    1
    49    20    45    1
    50    21    46    1
    51    21    47    1
    52    23    48    1
    53    24    49    1
    54    26    50    1
    55    27    51    1
    56    29    52    1
    57    29    53    1
    58    30    54    1
    59    30    55    1
    60    31    56    1
    61    31    57    1
    62    32    58    1
    63    32    59    1
