@<TRIPOS>MOLECULE
*****
 52 54 0 0 0
SMALL
GASTEIGER

@<TRIPOS>ATOM
      1 C          -5.6992    3.0310   -2.3685 C.3     1  UNL1        0.0833
      2 O          -4.8365    2.5829   -1.3590 O.3     1  UNL1       -0.4535
      3 C          -5.1601    1.5947   -0.4627 C.2     1  UNL1        0.4034
      4 O          -6.3397    1.0969   -0.6181 O.2     1  UNL1       -0.2262
      5 N          -4.3734    1.0839    0.5748 N.am    1  UNL1       -0.2523
      6 C          -4.9872    0.0437    1.4293 C.3     1  UNL1        0.1151
      7 C          -4.6876   -1.2530    0.7839 C.2     1  UNL1        0.3224
      8 O          -4.0804   -1.3837   -0.3096 O.2     1  UNL1       -0.2492
      9 O          -5.0956   -2.4474    1.4082 O.3     1  UNL1       -0.4795
     10 C          -3.0190    1.4571    0.8758 C.3     1  UNL1        0.0463
     11 C          -1.9680    0.6515    0.2613 C.ar    1  UNL1        0.0086
     12 C          -1.3435   -0.3394    1.0359 C.ar    1  UNL1       -0.0125
     13 C          -0.3544   -1.1538    0.5347 C.ar    1  UNL1        0.1215
     14 O           0.2476   -2.1304    1.3264 O.3     1  UNL1       -0.4857
     15 C           1.2591   -2.9718    0.8781 C.3     1  UNL1        0.1347
     16 C           2.4718   -2.2235    0.4696 C.ar    1  UNL1        0.1198
     17 N           2.7653   -0.9115    0.5597 N.ar    1  UNL1       -0.2103
     18 C           3.9993   -0.6641    0.0728 C.ar    1  UNL1        0.2278
     19 C           4.6625    0.6443    0.0036 C.ar    1  UNL1        0.0370
     20 C           4.0313    1.7793    0.4543 C.ar    1  UNL1       -0.0481
     21 C           4.6677    3.0260    0.3888 C.ar    1  UNL1       -0.0427
     22 C           5.9456    3.1388   -0.1315 C.ar    1  UNL1        0.0410
     23 CL          6.7460    4.6930   -0.2167 Cl      1  UNL1       -0.0835
     24 C           6.5725    2.0071   -0.5798 C.ar    1  UNL1       -0.0427
     25 C           5.9294    0.7639   -0.5110 C.ar    1  UNL1       -0.0481
     26 O           4.4652   -1.8234   -0.3168 O.2     1  UNL1       -0.4401
     27 C           3.6006   -2.7884   -0.1059 C.ar    1  UNL1        0.1291
     28 C           3.7837   -4.2392   -0.4228 C.3     1  UNL1       -0.0044
     29 C           0.0288   -0.9823   -0.7739 C.ar    1  UNL1       -0.0172
     30 C          -0.5667   -0.0187   -1.5535 C.ar    1  UNL1       -0.0227
     31 C          -1.5735    0.8040   -1.0274 C.ar    1  UNL1        0.1283
     32 F          -2.1018    1.7475   -1.8519 F       1  UNL1       -0.2051
     33 H          -5.7757    2.3218   -3.2218 H       1  UNL1        0.0661
     34 H          -5.3302    4.0272   -2.6972 H       1  UNL1        0.0661
     35 H          -6.7126    3.2087   -1.9220 H       1  UNL1        0.0661
     36 H          -4.5309    0.0807    2.4530 H       1  UNL1        0.0581
     37 H          -6.0748    0.1969    1.4358 H       1  UNL1        0.0581
     38 H          -4.7631   -3.3397    1.0441 H       1  UNL1        0.2951
     39 H          -2.8721    2.5555    0.6442 H       1  UNL1        0.0516
     40 H          -2.9051    1.4159    1.9966 H       1  UNL1        0.0516
     41 H          -1.6580   -0.4601    2.0659 H       1  UNL1        0.0658
     42 H           0.8607   -3.5251   -0.0096 H       1  UNL1        0.0764
     43 H           1.5524   -3.7356    1.6116 H       1  UNL1        0.0764
     44 H           3.0254    1.7172    0.8692 H       1  UNL1        0.0626
     45 H           4.1618    3.9199    0.7476 H       1  UNL1        0.0632
     46 H           7.5828    2.0850   -0.9907 H       1  UNL1        0.0632
     47 H           6.4197   -0.1339   -0.8633 H       1  UNL1        0.0626
     48 H           3.1837   -4.8789    0.2555 H       1  UNL1        0.0308
     49 H           4.8689   -4.4670   -0.3575 H       1  UNL1        0.0308
     50 H           3.4849   -4.3660   -1.4872 H       1  UNL1        0.0308
     51 H           0.7857   -1.5863   -1.2295 H       1  UNL1        0.0655
     52 H          -0.2932    0.1486   -2.5914 H       1  UNL1        0.0647
@<TRIPOS>BOND
     1     1     2    1
     2     2     3    1
     3     3     4    2
     4     3     5   am
     5     5     6    1
     6     6     7    1
     7     7     8    2
     8     7     9    1
     9     5    10    1
    10    10    11    1
    11    11    12   ar
    12    12    13   ar
    13    13    14    1
    14    14    15    1
    15    15    16    1
    16    16    17   ar
    17    17    18   ar
    18    18    19    1
    19    19    20   ar
    20    20    21   ar
    21    21    22   ar
    22    22    23    1
    23    22    24   ar
    24    24    25   ar
    25    18    26   ar
    26    26    27   ar
    27    27    28    1
    28    13    29   ar
    29    29    30   ar
    30    30    31   ar
    31    31    32    1
    32    31    11   ar
    33    27    16   ar
    34    25    19   ar
    35     1    33    1
    36     1    34    1
    37     1    35    1
    38     6    36    1
    39     6    37    1
    40     9    38    1
    41    10    39    1
    42    10    40    1
    43    12    41    1
    44    15    42    1
    45    15    43    1
    46    20    44    1
    47    21    45    1
    48    24    46    1
    49    25    47    1
    50    28    48    1
    51    28    49    1
    52    28    50    1
    53    29    51    1
    54    30    52    1
