
     RDKit          3D

 52 54  0  0  0  0  0  0  0  0999 V2000
   -5.6992    3.0310   -2.3685 C   0  0  0  0  0  0  0  0  0  0  0  0
   -4.8365    2.5829   -1.3590 O   0  0  0  0  0  0  0  0  0  0  0  0
   -5.1601    1.5947   -0.4627 C   0  0  0  0  0  0  0  0  0  0  0  0
   -6.3397    1.0969   -0.6181 O   0  0  0  0  0  0  0  0  0  0  0  0
   -4.3734    1.0839    0.5748 N   0  0  0  0  0  0  0  0  0  0  0  0
   -4.9872    0.0437    1.4293 C   0  0  0  0  0  0  0  0  0  0  0  0
   -4.6876   -1.2530    0.7839 C   0  0  0  0  0  0  0  0  0  0  0  0
   -4.0804   -1.3837   -0.3096 O   0  0  0  0  0  0  0  0  0  0  0  0
   -5.0956   -2.4474    1.4082 O   0  0  0  0  0  0  0  0  0  0  0  0
   -3.0190    1.4571    0.8758 C   0  0  0  0  0  0  0  0  0  0  0  0
   -1.9680    0.6515    0.2613 C   0  0  0  0  0  0  0  0  0  0  0  0
   -1.3435   -0.3394    1.0359 C   0  0  0  0  0  0  0  0  0  0  0  0
   -0.3544   -1.1538    0.5347 C   0  0  0  0  0  0  0  0  0  0  0  0
    0.2476   -2.1304    1.3264 O   0  0  0  0  0  0  0  0  0  0  0  0
    1.2591   -2.9718    0.8781 C   0  0  0  0  0  0  0  0  0  0  0  0
    2.4718   -2.2235    0.4696 C   0  0  0  0  0  0  0  0  0  0  0  0
    2.7653   -0.9115    0.5597 N   0  0  0  0  0  0  0  0  0  0  0  0
    3.9993   -0.6641    0.0728 C   0  0  0  0  0  0  0  0  0  0  0  0
    4.6625    0.6443    0.0036 C   0  0  0  0  0  0  0  0  0  0  0  0
    4.0313    1.7793    0.4543 C   0  0  0  0  0  0  0  0  0  0  0  0
    4.6677    3.0260    0.3888 C   0  0  0  0  0  0  0  0  0  0  0  0
    5.9456    3.1388   -0.1315 C   0  0  0  0  0  0  0  0  0  0  0  0
    6.7460    4.6930   -0.2167 Cl  0  0  0  0  0  0  0  0  0  0  0  0
    6.5725    2.0071   -0.5798 C   0  0  0  0  0  0  0  0  0  0  0  0
    5.9294    0.7639   -0.5110 C   0  0  0  0  0  0  0  0  0  0  0  0
    4.4652   -1.8234   -0.3168 O   0  0  0  0  0  0  0  0  0  0  0  0
    3.6006   -2.7884   -0.1059 C   0  0  0  0  0  0  0  0  0  0  0  0
    3.7837   -4.2392   -0.4228 C   0  0  0  0  0  0  0  0  0  0  0  0
    0.0288   -0.9823   -0.7739 C   0  0  0  0  0  0  0  0  0  0  0  0
   -0.5667   -0.0187   -1.5535 C   0  0  0  0  0  0  0  0  0  0  0  0
   -1.5735    0.8040   -1.0274 C   0  0  0  0  0  0  0  0  0  0  0  0
   -2.1018    1.7475   -1.8519 F   0  0  0  0  0  0  0  0  0  0  0  0
   -5.7757    2.3218   -3.2218 H   0  0  0  0  0  0  0  0  0  0  0  0
   -5.3302    4.0272   -2.6972 H   0  0  0  0  0  0  0  0  0  0  0  0
   -6.7126    3.2087   -1.9220 H   0  0  0  0  0  0  0  0  0  0  0  0
   -4.5309    0.0807    2.4530 H   0  0  0  0  0  0  0  0  0  0  0  0
   -6.0748    0.1969    1.4358 H   0  0  0  0  0  0  0  0  0  0  0  0
   -4.7631   -3.3397    1.0441 H   0  0  0  0  0  0  0  0  0  0  0  0
   -2.8721    2.5555    0.6442 H   0  0  0  0  0  0  0  0  0  0  0  0
   -2.9051    1.4159    1.9966 H   0  0  0  0  0  0  0  0  0  0  0  0
   -1.6580   -0.4601    2.0659 H   0  0  0  0  0  0  0  0  0  0  0  0
    0.8607   -3.5251   -0.0096 H   0  0  0  0  0  0  0  0  0  0  0  0
    1.5524   -3.7356    1.6116 H   0  0  0  0  0  0  0  0  0  0  0  0
    3.0254    1.7172    0.8692 H   0  0  0  0  0  0  0  0  0  0  0  0
    4.1618    3.9199    0.7476 H   0  0  0  0  0  0  0  0  0  0  0  0
    7.5828    2.0850   -0.9907 H   0  0  0  0  0  0  0  0  0  0  0  0
    6.4197   -0.1339   -0.8633 H   0  0  0  0  0  0  0  0  0  0  0  0
    3.1837   -4.8789    0.2555 H   0  0  0  0  0  0  0  0  0  0  0  0
    4.8689   -4.4670   -0.3575 H   0  0  0  0  0  0  0  0  0  0  0  0
    3.4849   -4.3660   -1.4872 H   0  0  0  0  0  0  0  0  0  0  0  0
    0.7857   -1.5863   -1.2295 H   0  0  0  0  0  0  0  0  0  0  0  0
   -0.2932    0.1486   -2.5914 H   0  0  0  0  0  0  0  0  0  0  0  0
  1  2  1  0
  2  3  1  0
  3  4  2  0
  3  5  1  0
  5  6  1  0
  6  7  1  0
  7  8  2  0
  7  9  1  0
  5 10  1  0
 10 11  1  0
 11 12  2  0
 12 13  1  0
 13 14  1  0
 14 15  1  0
 15 16  1  0
 16 17  1  0
 17 18  2  0
 18 19  1  0
 19 20  2  0
 20 21  1  0
 21 22  2  0
 22 23  1  0
 22 24  1  0
 24 25  2  0
 18 26  1  0
 26 27  1  0
 27 28  1  0
 13 29  2  0
 29 30  1  0
 30 31  2  0
 31 32  1  0
 31 11  1  0
 27 16  2  0
 25 19  1  0
  1 33  1  0
  1 34  1  0
  1 35  1  0
  6 36  1  0
  6 37  1  0
  9 38  1  0
 10 39  1  0
 10 40  1  0
 12 41  1  0
 15 42  1  0
 15 43  1  0
 20 44  1  0
 21 45  1  0
 24 46  1  0
 25 47  1  0
 28 48  1  0
 28 49  1  0
 28 50  1  0
 29 51  1  0
 30 52  1  0
M  END
$$$$
