@<TRIPOS>MOLECULE
*****
 39 43 0 0 0
SMALL
GASTEIGER

@<TRIPOS>ATOM
      1 C           6.9535   -0.1291   -0.3241 C.3     1  UNL1        0.0788
      2 O           5.7343    0.5855   -0.3342 O.3     1  UNL1       -0.4951
      3 C           4.4981   -0.0182   -0.2197 C.ar    1  UNL1        0.1208
      4 C           4.4120   -1.3823   -0.0876 C.ar    1  UNL1       -0.0180
      5 C           3.1561   -1.9400    0.0235 C.ar    1  UNL1       -0.0343
      6 C           2.0457   -1.1404    0.0004 C.ar    1  UNL1        0.0475
      7 N           0.7468   -1.4506    0.0903 N.ar    1  UNL1       -0.3515
      8 C          -0.0022   -0.3360    0.0207 C.ar    1  UNL1        0.0867
      9 C           0.8435    0.7351   -0.1194 C.ar    1  UNL1       -0.0096
     10 C           2.1064    0.2295   -0.1310 C.ar    1  UNL1        0.0070
     11 C           3.3782    0.7802   -0.2422 C.ar    1  UNL1       -0.0105
     12 C           0.3954    2.1327   -0.2300 C.3     1  UNL1       -0.0068
     13 C          -1.0682    2.3464   -0.1797 C.3     1  UNL1        0.0322
     14 N          -1.8887    1.1881   -0.0334 N.ar    1  UNL1       -0.2908
     15 C          -1.4348   -0.0721    0.0633 C.ar    1  UNL1        0.1607
     16 N          -2.2821   -1.1092    0.1999 N.ar    1  UNL1       -0.2272
     17 C          -3.6258   -0.9552    0.2481 C.ar    1  UNL1        0.0786
     18 C          -4.4777   -2.0255    0.3880 C.ar    1  UNL1       -0.0355
     19 C          -5.8353   -1.8139    0.4315 C.ar    1  UNL1       -0.0597
     20 C          -6.3394   -0.5356    0.3354 C.ar    1  UNL1       -0.0609
     21 C          -5.4601    0.5084    0.1967 C.ar    1  UNL1       -0.0474
     22 C          -4.0846    0.3420    0.1481 C.ar    1  UNL1        0.0649
     23 C          -3.2238    1.4066    0.0084 C.ar    1  UNL1        0.2621
     24 O          -3.6971    2.5691   -0.0783 O.2     1  UNL1       -0.2669
     25 H           7.0597   -0.6930   -1.2832 H       1  UNL1        0.0660
     26 H           7.7920    0.5670   -0.1480 H       1  UNL1        0.0660
     27 H           6.9615   -0.8927    0.4818 H       1  UNL1        0.0660
     28 H           5.3072   -2.0122   -0.0703 H       1  UNL1        0.0655
     29 H           3.1111   -3.0323    0.1282 H       1  UNL1        0.0639
     30 H           0.3852   -2.4354    0.1997 H       1  UNL1        0.1660
     31 H           3.4519    1.8530   -0.3464 H       1  UNL1        0.0661
     32 H           0.7726    2.5540   -1.2091 H       1  UNL1        0.0331
     33 H           0.9333    2.7639    0.5368 H       1  UNL1        0.0331
     34 H          -1.4361    2.9334   -1.0609 H       1  UNL1        0.0496
     35 H          -1.2922    3.0237    0.6933 H       1  UNL1        0.0496
     36 H          -4.1088   -3.0334    0.4651 H       1  UNL1        0.0639
     37 H          -6.5323   -2.6398    0.5413 H       1  UNL1        0.0618
     38 H          -7.4181   -0.3977    0.3728 H       1  UNL1        0.0618
     39 H          -5.8372    1.5262    0.1191 H       1  UNL1        0.0626
@<TRIPOS>BOND
     1     1     2    1
     2     2     3    1
     3     3     4   ar
     4     4     5   ar
     5     5     6   ar
     6     6     7   ar
     7     7     8   ar
     8     8     9   ar
     9     9    10   ar
    10    10    11   ar
    11     9    12    1
    12    12    13    1
    13    13    14    1
    14    14    15   ar
    15    15    16   ar
    16    16    17   ar
    17    17    18   ar
    18    18    19   ar
    19    19    20   ar
    20    20    21   ar
    21    21    22   ar
    22    22    23   ar
    23    23    24    2
    24    11     3   ar
    25    23    14   ar
    26    10     6   ar
    27    22    17   ar
    28    15     8    1
    29     1    25    1
    30     1    26    1
    31     1    27    1
    32     4    28    1
    33     5    29    1
    34     7    30    1
    35    11    31    1
    36    12    32    1
    37    12    33    1
    38    13    34    1
    39    13    35    1
    40    18    36    1
    41    19    37    1
    42    20    38    1
    43    21    39    1
