
     RDKit          3D

 39 43  0  0  0  0  0  0  0  0999 V2000
    6.9535   -0.1291   -0.3241 C   0  0  0  0  0  0  0  0  0  0  0  0
    5.7343    0.5855   -0.3342 O   0  0  0  0  0  0  0  0  0  0  0  0
    4.4981   -0.0182   -0.2197 C   0  0  0  0  0  0  0  0  0  0  0  0
    4.4120   -1.3823   -0.0876 C   0  0  0  0  0  0  0  0  0  0  0  0
    3.1561   -1.9400    0.0235 C   0  0  0  0  0  0  0  0  0  0  0  0
    2.0457   -1.1404    0.0004 C   0  0  0  0  0  0  0  0  0  0  0  0
    0.7468   -1.4506    0.0903 N   0  0  0  0  0  0  0  0  0  0  0  0
   -0.0022   -0.3360    0.0207 C   0  0  0  0  0  0  0  0  0  0  0  0
    0.8435    0.7351   -0.1194 C   0  0  0  0  0  0  0  0  0  0  0  0
    2.1064    0.2295   -0.1310 C   0  0  0  0  0  0  0  0  0  0  0  0
    3.3782    0.7802   -0.2422 C   0  0  0  0  0  0  0  0  0  0  0  0
    0.3954    2.1327   -0.2300 C   0  0  0  0  0  0  0  0  0  0  0  0
   -1.0682    2.3464   -0.1797 C   0  0  0  0  0  0  0  0  0  0  0  0
   -1.8887    1.1881   -0.0334 N   0  0  0  0  0  0  0  0  0  0  0  0
   -1.4348   -0.0721    0.0633 C   0  0  0  0  0  0  0  0  0  0  0  0
   -2.2821   -1.1092    0.1999 N   0  0  0  0  0  0  0  0  0  0  0  0
   -3.6258   -0.9552    0.2481 C   0  0  0  0  0  0  0  0  0  0  0  0
   -4.4777   -2.0255    0.3880 C   0  0  0  0  0  0  0  0  0  0  0  0
   -5.8353   -1.8139    0.4315 C   0  0  0  0  0  0  0  0  0  0  0  0
   -6.3394   -0.5356    0.3354 C   0  0  0  0  0  0  0  0  0  0  0  0
   -5.4601    0.5084    0.1967 C   0  0  0  0  0  0  0  0  0  0  0  0
   -4.0846    0.3420    0.1481 C   0  0  0  0  0  0  0  0  0  0  0  0
   -3.2238    1.4066    0.0084 C   0  0  0  0  0  0  0  0  0  0  0  0
   -3.6971    2.5691   -0.0783 O   0  0  0  0  0  0  0  0  0  0  0  0
    7.0597   -0.6930   -1.2832 H   0  0  0  0  0  0  0  0  0  0  0  0
    7.7920    0.5670   -0.1480 H   0  0  0  0  0  0  0  0  0  0  0  0
    6.9615   -0.8927    0.4818 H   0  0  0  0  0  0  0  0  0  0  0  0
    5.3072   -2.0122   -0.0703 H   0  0  0  0  0  0  0  0  0  0  0  0
    3.1111   -3.0323    0.1282 H   0  0  0  0  0  0  0  0  0  0  0  0
    0.3852   -2.4354    0.1997 H   0  0  0  0  0  0  0  0  0  0  0  0
    3.4519    1.8530   -0.3464 H   0  0  0  0  0  0  0  0  0  0  0  0
    0.7726    2.5540   -1.2091 H   0  0  0  0  0  0  0  0  0  0  0  0
    0.9333    2.7639    0.5368 H   0  0  0  0  0  0  0  0  0  0  0  0
   -1.4361    2.9334   -1.0609 H   0  0  0  0  0  0  0  0  0  0  0  0
   -1.2922    3.0237    0.6933 H   0  0  0  0  0  0  0  0  0  0  0  0
   -4.1088   -3.0334    0.4651 H   0  0  0  0  0  0  0  0  0  0  0  0
   -6.5323   -2.6398    0.5413 H   0  0  0  0  0  0  0  0  0  0  0  0
   -7.4181   -0.3977    0.3728 H   0  0  0  0  0  0  0  0  0  0  0  0
   -5.8372    1.5262    0.1191 H   0  0  0  0  0  0  0  0  0  0  0  0
  1  2  1  0
  2  3  1  0
  3  4  2  0
  4  5  1  0
  5  6  2  0
  6  7  1  0
  7  8  1  0
  8  9  2  0
  9 10  1  0
 10 11  2  0
  9 12  1  0
 12 13  1  0
 13 14  1  0
 14 15  1  0
 15 16  2  0
 16 17  1  0
 17 18  2  0
 18 19  1  0
 19 20  2  0
 20 21  1  0
 21 22  2  0
 22 23  1  0
 23 24  2  0
 11  3  1  0
 23 14  1  0
 10  6  1  0
 22 17  1  0
 15  8  1  0
  1 25  1  0
  1 26  1  0
  1 27  1  0
  4 28  1  0
  5 29  1  0
  7 30  1  0
 11 31  1  0
 12 32  1  0
 12 33  1  0
 13 34  1  0
 13 35  1  0
 18 36  1  0
 19 37  1  0
 20 38  1  0
 21 39  1  0
M  END
$$$$
