@<TRIPOS>MOLECULE
*****
 43 45 0 0 0
SMALL
GASTEIGER

@<TRIPOS>ATOM
      1 C           6.7985   -1.3258    0.4742 C.3     1  UNL1        0.0788
      2 O           5.5052   -1.7157    0.1375 O.3     1  UNL1       -0.4951
      3 C           4.3940   -0.8890    0.2152 C.ar    1  UNL1        0.1201
      4 C           4.5387    0.4097    0.6492 C.ar    1  UNL1       -0.0197
      5 C           3.4534    1.2527    0.7361 C.ar    1  UNL1       -0.0548
      6 C           2.1562    0.8500    0.3946 C.ar    1  UNL1       -0.0425
      7 C           1.0527    1.8254    0.5374 C.3     1  UNL1        0.0010
      8 C           0.6891    2.4948   -0.7804 C.3     1  UNL1       -0.0287
      9 C          -0.2860    1.7028    0.0210 C.3     1  UNL1        0.0153
     10 N          -0.8677    0.5977   -0.6837 N.3     1  UNL1       -0.3099
     11 C          -2.2981    0.8473   -0.9250 C.3     1  UNL1        0.0080
     12 C          -2.9248   -0.3033   -1.6668 C.3     1  UNL1       -0.0361
     13 C          -3.2311   -1.4277   -0.6694 C.3     1  UNL1       -0.0363
     14 C          -4.4374   -1.0071    0.1268 C.3     1  UNL1        0.0049
     15 N          -4.5916   -1.7843    1.3502 N.3     1  UNL1       -0.3272
     16 C          -4.3945    0.4649    0.3716 C.3     1  UNL1       -0.0363
     17 C          -2.9990    1.0399    0.3878 C.3     1  UNL1       -0.0361
     18 C           2.0223   -0.4460   -0.0364 C.ar    1  UNL1       -0.0548
     19 C           3.1281   -1.3055   -0.1253 C.ar    1  UNL1       -0.0197
     20 H           7.1952   -0.5127   -0.1776 H       1  UNL1        0.0660
     21 H           6.9262   -0.9837    1.5123 H       1  UNL1        0.0660
     22 H           7.4769   -2.1919    0.3322 H       1  UNL1        0.0660
     23 H           5.5360    0.7395    0.9182 H       1  UNL1        0.0654
     24 H           3.5752    2.2752    1.0791 H       1  UNL1        0.0622
     25 H           1.2563    2.5952    1.3347 H       1  UNL1        0.0364
     26 H           0.6214    3.5833   -0.8091 H       1  UNL1        0.0287
     27 H           1.0681    2.0581   -1.7211 H       1  UNL1        0.0287
     28 H          -1.0687    2.3233    0.5551 H       1  UNL1        0.0466
     29 H          -0.3989    0.4359   -1.6198 H       1  UNL1        0.1225
     30 H          -2.3815    1.7919   -1.5004 H       1  UNL1        0.0460
     31 H          -3.8890    0.0138   -2.1032 H       1  UNL1        0.0281
     32 H          -2.3107   -0.6937   -2.4879 H       1  UNL1        0.0281
     33 H          -3.4279   -2.3278   -1.2877 H       1  UNL1        0.0281
     34 H          -2.3704   -1.5997    0.0091 H       1  UNL1        0.0281
     35 H          -5.3610   -1.2357   -0.4790 H       1  UNL1        0.0458
     36 H          -5.0769   -1.2237    2.0863 H       1  UNL1        0.1185
     37 H          -3.6829   -2.1751    1.6804 H       1  UNL1        0.1185
     38 H          -5.0729    1.0205   -0.3147 H       1  UNL1        0.0281
     39 H          -4.8184    0.6379    1.4008 H       1  UNL1        0.0281
     40 H          -3.0970    2.1197    0.6111 H       1  UNL1        0.0281
     41 H          -2.4582    0.5681    1.2354 H       1  UNL1        0.0281
     42 H           1.0426   -0.8090   -0.3016 H       1  UNL1        0.0622
     43 H           3.0085   -2.3255   -0.4672 H       1  UNL1        0.0654
@<TRIPOS>BOND
     1     1     2    1
     2     2     3    1
     3     3     4   ar
     4     4     5   ar
     5     5     6   ar
     6     6     7    1
     7     7     8    1
     8     8     9    1
     9     9    10    1
    10    10    11    1
    11    11    12    1
    12    12    13    1
    13    13    14    1
    14    14    15    1
    15    14    16    1
    16    16    17    1
    17     6    18   ar
    18    18    19   ar
    19    19     3   ar
    20     9     7    1
    21    17    11    1
    22     1    20    1
    23     1    21    1
    24     1    22    1
    25     4    23    1
    26     5    24    1
    27     7    25    1
    28     8    26    1
    29     8    27    1
    30     9    28    1
    31    10    29    1
    32    11    30    1
    33    12    31    1
    34    12    32    1
    35    13    33    1
    36    13    34    1
    37    14    35    1
    38    15    36    1
    39    15    37    1
    40    16    38    1
    41    16    39    1
    42    17    40    1
    43    17    41    1
    44    18    42    1
    45    19    43    1
