
     RDKit          3D

 43 45  0  0  0  0  0  0  0  0999 V2000
    6.7985   -1.3258    0.4742 C   0  0  0  0  0  0  0  0  0  0  0  0
    5.5052   -1.7157    0.1375 O   0  0  0  0  0  0  0  0  0  0  0  0
    4.3940   -0.8890    0.2152 C   0  0  0  0  0  0  0  0  0  0  0  0
    4.5387    0.4097    0.6492 C   0  0  0  0  0  0  0  0  0  0  0  0
    3.4534    1.2527    0.7361 C   0  0  0  0  0  0  0  0  0  0  0  0
    2.1562    0.8500    0.3946 C   0  0  0  0  0  0  0  0  0  0  0  0
    1.0527    1.8254    0.5374 C   0  0  0  0  0  0  0  0  0  0  0  0
    0.6891    2.4948   -0.7804 C   0  0  0  0  0  0  0  0  0  0  0  0
   -0.2860    1.7028    0.0210 C   0  0  0  0  0  0  0  0  0  0  0  0
   -0.8677    0.5977   -0.6837 N   0  0  0  0  0  0  0  0  0  0  0  0
   -2.2981    0.8473   -0.9250 C   0  0  0  0  0  0  0  0  0  0  0  0
   -2.9248   -0.3033   -1.6668 C   0  0  0  0  0  0  0  0  0  0  0  0
   -3.2311   -1.4277   -0.6694 C   0  0  0  0  0  0  0  0  0  0  0  0
   -4.4374   -1.0071    0.1268 C   0  0  0  0  0  0  0  0  0  0  0  0
   -4.5916   -1.7843    1.3502 N   0  0  0  0  0  0  0  0  0  0  0  0
   -4.3945    0.4649    0.3716 C   0  0  0  0  0  0  0  0  0  0  0  0
   -2.9990    1.0399    0.3878 C   0  0  0  0  0  0  0  0  0  0  0  0
    2.0223   -0.4460   -0.0364 C   0  0  0  0  0  0  0  0  0  0  0  0
    3.1281   -1.3055   -0.1253 C   0  0  0  0  0  0  0  0  0  0  0  0
    7.1952   -0.5127   -0.1776 H   0  0  0  0  0  0  0  0  0  0  0  0
    6.9262   -0.9837    1.5123 H   0  0  0  0  0  0  0  0  0  0  0  0
    7.4769   -2.1919    0.3322 H   0  0  0  0  0  0  0  0  0  0  0  0
    5.5360    0.7395    0.9182 H   0  0  0  0  0  0  0  0  0  0  0  0
    3.5752    2.2752    1.0791 H   0  0  0  0  0  0  0  0  0  0  0  0
    1.2563    2.5952    1.3347 H   0  0  0  0  0  0  0  0  0  0  0  0
    0.6214    3.5833   -0.8091 H   0  0  0  0  0  0  0  0  0  0  0  0
    1.0681    2.0581   -1.7211 H   0  0  0  0  0  0  0  0  0  0  0  0
   -1.0687    2.3233    0.5551 H   0  0  0  0  0  0  0  0  0  0  0  0
   -0.3989    0.4359   -1.6198 H   0  0  0  0  0  0  0  0  0  0  0  0
   -2.3815    1.7919   -1.5004 H   0  0  0  0  0  0  0  0  0  0  0  0
   -3.8890    0.0138   -2.1032 H   0  0  0  0  0  0  0  0  0  0  0  0
   -2.3107   -0.6937   -2.4879 H   0  0  0  0  0  0  0  0  0  0  0  0
   -3.4279   -2.3278   -1.2877 H   0  0  0  0  0  0  0  0  0  0  0  0
   -2.3704   -1.5997    0.0091 H   0  0  0  0  0  0  0  0  0  0  0  0
   -5.3610   -1.2357   -0.4790 H   0  0  0  0  0  0  0  0  0  0  0  0
   -5.0769   -1.2237    2.0863 H   0  0  0  0  0  0  0  0  0  0  0  0
   -3.6829   -2.1751    1.6804 H   0  0  0  0  0  0  0  0  0  0  0  0
   -5.0729    1.0205   -0.3147 H   0  0  0  0  0  0  0  0  0  0  0  0
   -4.8184    0.6379    1.4008 H   0  0  0  0  0  0  0  0  0  0  0  0
   -3.0970    2.1197    0.6111 H   0  0  0  0  0  0  0  0  0  0  0  0
   -2.4582    0.5681    1.2354 H   0  0  0  0  0  0  0  0  0  0  0  0
    1.0426   -0.8090   -0.3016 H   0  0  0  0  0  0  0  0  0  0  0  0
    3.0085   -2.3255   -0.4672 H   0  0  0  0  0  0  0  0  0  0  0  0
  1  2  1  0
  2  3  1  0
  3  4  2  0
  4  5  1  0
  5  6  2  0
  6  7  1  0
  7  8  1  0
  8  9  1  0
  9 10  1  0
 10 11  1  0
 11 12  1  0
 12 13  1  0
 13 14  1  0
 14 15  1  0
 14 16  1  0
 16 17  1  0
  6 18  1  0
 18 19  2  0
 19  3  1  0
  9  7  1  0
 17 11  1  0
  1 20  1  0
  1 21  1  0
  1 22  1  0
  4 23  1  0
  5 24  1  0
  7 25  1  0
  8 26  1  0
  8 27  1  0
  9 28  1  0
 10 29  1  0
 11 30  1  0
 12 31  1  0
 12 32  1  0
 13 33  1  0
 13 34  1  0
 14 35  1  0
 15 36  1  0
 15 37  1  0
 16 38  1  0
 16 39  1  0
 17 40  1  0
 17 41  1  0
 18 42  1  0
 19 43  1  0
M  END
$$$$
