@<TRIPOS>MOLECULE
*****
 69 72 0 0 0
SMALL
GASTEIGER

@<TRIPOS>ATOM
      1 C           8.5830    0.9277   -0.8885 C.3     1  UNL1       -0.0641
      2 C           7.8839    1.0671    0.4652 C.3     1  UNL1       -0.0417
      3 C           8.0723   -0.2494    1.1896 C.3     1  UNL1        0.0134
      4 N           7.4806   -1.2965    0.4538 N.3     1  UNL1       -0.2404
      5 N           6.1046   -1.3678    0.4395 N.am    1  UNL1       -0.2469
      6 C           5.1827   -0.7125    1.2624 C.2     1  UNL1        0.2576
      7 O           5.5814    0.0493    2.1710 O.2     1  UNL1       -0.2689
      8 C           3.7461   -0.8849    1.1024 C.ar    1  UNL1        0.0380
      9 C           3.1561   -1.5327    0.0466 C.ar    1  UNL1       -0.0478
     10 C           1.7667   -1.6810   -0.0276 C.ar    1  UNL1       -0.0398
     11 C           0.9434   -1.1949    0.9355 C.ar    1  UNL1        0.0335
     12 N          -0.4742   -1.3386    0.9063 N.am    1  UNL1       -0.2840
     13 C          -1.2530   -0.3283    0.2650 C.2     1  UNL1        0.2379
     14 O          -0.6023    0.6371   -0.2722 O.2     1  UNL1       -0.2734
     15 C          -2.7138   -0.3872    0.2348 C.3     1  UNL1        0.1040
     16 C          -3.3751   -1.4136   -0.6054 C.3     1  UNL1        0.0013
     17 C          -3.0842   -2.8228   -0.3427 C.ar    1  UNL1       -0.0201
     18 C          -3.8160   -3.6385    0.5129 C.ar    1  UNL1        0.0060
     19 N          -3.2471   -4.8420    0.5358 N.ar    1  UNL1       -0.3604
     20 C          -2.1602   -4.8901   -0.2656 C.ar    1  UNL1        0.0467
     21 C          -1.2673   -5.8559   -0.6039 C.ar    1  UNL1       -0.0378
     22 C          -0.2665   -5.5387   -1.5068 C.ar    1  UNL1       -0.0598
     23 C          -0.1676   -4.2956   -2.0491 C.ar    1  UNL1       -0.0611
     24 C          -1.0717   -3.2875   -1.7173 C.ar    1  UNL1       -0.0523
     25 C          -2.0644   -3.6068   -0.8199 C.ar    1  UNL1        0.0029
     26 N          -3.2181    0.9082   -0.2911 N.am    1  UNL1       -0.2997
     27 C          -3.9583    1.7907    0.4936 C.2     1  UNL1        0.2447
     28 O          -4.1799    1.4193    1.6991 O.2     1  UNL1       -0.2702
     29 C          -4.4819    3.0713    0.0470 C.ar    1  UNL1        0.0369
     30 C          -5.1542    3.8935    0.9067 C.ar    1  UNL1       -0.0462
     31 C          -5.6762    5.1185    0.5467 C.ar    1  UNL1       -0.0192
     32 C          -5.5275    5.5636   -0.7437 C.ar    1  UNL1        0.1201
     33 O          -6.0310    6.7815   -1.1462 O.3     1  UNL1       -0.4951
     34 C          -6.7058    7.5869   -0.2057 C.3     1  UNL1        0.0788
     35 C          -4.8416    4.7342   -1.6413 C.ar    1  UNL1       -0.0192
     36 C          -4.3214    3.5073   -1.2709 C.ar    1  UNL1       -0.0462
     37 C           1.5095   -0.5309    2.0185 C.ar    1  UNL1       -0.0398
     38 C           2.8692   -0.3962    2.0722 C.ar    1  UNL1       -0.0478
     39 H           9.5653    1.4868   -0.8602 H       1  UNL1        0.0230
     40 H           7.9185    1.2623   -1.6859 H       1  UNL1        0.0230
     41 H           8.8463   -0.1293   -1.0928 H       1  UNL1        0.0230
     42 H           8.3821    1.8404    1.0820 H       1  UNL1        0.0275
     43 H           6.8607    1.3799    0.3009 H       1  UNL1        0.0275
     44 H           7.8355   -0.2012    2.2691 H       1  UNL1        0.0441
     45 H           9.2004   -0.4139    1.1840 H       1  UNL1        0.0441
     46 H           7.9115   -2.2395    0.6874 H       1  UNL1        0.1442
     47 H           5.7113   -2.0194   -0.3066 H       1  UNL1        0.1693
     48 H           3.7839   -1.9380   -0.7551 H       1  UNL1        0.0626
     49 H           1.3985   -2.2022   -0.8970 H       1  UNL1        0.0636
     50 H          -0.9282   -2.1497    1.3460 H       1  UNL1        0.1549
     51 H          -3.0606   -0.5110    1.2849 H       1  UNL1        0.0598
     52 H          -4.5024   -1.3218   -0.5679 H       1  UNL1        0.0337
     53 H          -3.1670   -1.2238   -1.7084 H       1  UNL1        0.0337
     54 H          -4.7032   -3.2921    1.0475 H       1  UNL1        0.0810
     55 H          -3.5844   -5.6710    1.1078 H       1  UNL1        0.1653
     56 H          -1.3414   -6.8571   -0.1718 H       1  UNL1        0.0638
     57 H           0.4459   -6.3186   -1.7780 H       1  UNL1        0.0618
     58 H           0.6474   -4.1144   -2.7551 H       1  UNL1        0.0618
     59 H          -1.0090   -2.3067   -2.1329 H       1  UNL1        0.0624
     60 H          -2.9917    1.1362   -1.2758 H       1  UNL1        0.1498
     61 H          -5.2989    3.5853    1.9440 H       1  UNL1        0.0626
     62 H          -6.2057    5.7560    1.2417 H       1  UNL1        0.0654
     63 H          -6.0730    7.7454    0.7142 H       1  UNL1        0.0660
     64 H          -7.6945    7.1949    0.0145 H       1  UNL1        0.0660
     65 H          -6.8205    8.6151   -0.6606 H       1  UNL1        0.0660
     66 H          -4.7231    5.0799   -2.6618 H       1  UNL1        0.0654
     67 H          -3.7986    2.8658   -1.9426 H       1  UNL1        0.0626
     68 H           0.8478   -0.1317    2.7986 H       1  UNL1        0.0636
     69 H           3.3268    0.1295    2.9245 H       1  UNL1        0.0626
@<TRIPOS>BOND
     1     1     2    1
     2     2     3    1
     3     3     4    1
     4     4     5    1
     5     5     6   am
     6     6     7    2
     7     6     8    1
     8     8     9   ar
     9     9    10   ar
    10    10    11   ar
    11    11    12    1
    12    12    13   am
    13    13    14    2
    14    13    15    1
    15    15    16    1
    16    16    17    1
    17    17    18   ar
    18    18    19   ar
    19    19    20   ar
    20    20    21   ar
    21    21    22   ar
    22    22    23   ar
    23    23    24   ar
    24    24    25   ar
    25    15    26    1
    26    26    27   am
    27    27    28    2
    28    27    29    1
    29    29    30   ar
    30    30    31   ar
    31    31    32   ar
    32    32    33    1
    33    33    34    1
    34    32    35   ar
    35    35    36   ar
    36    11    37   ar
    37    37    38   ar
    38    38     8   ar
    39    25    17   ar
    40    36    29   ar
    41    25    20   ar
    42     1    39    1
    43     1    40    1
    44     1    41    1
    45     2    42    1
    46     2    43    1
    47     3    44    1
    48     3    45    1
    49     4    46    1
    50     5    47    1
    51     9    48    1
    52    10    49    1
    53    12    50    1
    54    15    51    1
    55    16    52    1
    56    16    53    1
    57    18    54    1
    58    19    55    1
    59    21    56    1
    60    22    57    1
    61    23    58    1
    62    24    59    1
    63    26    60    1
    64    30    61    1
    65    31    62    1
    66    34    63    1
    67    34    64    1
    68    34    65    1
    69    35    66    1
    70    36    67    1
    71    37    68    1
    72    38    69    1
