
     RDKit          3D

 56 58  0  0  0  0  0  0  0  0999 V2000
    7.9403   -1.7120    1.3883 O   0  0  0  0  0  0  0  0  0  0  0  0
    7.3787   -1.0270    0.4999 C   0  0  0  0  0  0  0  0  0  0  0  0
    7.7805   -1.1934   -0.8112 O   0  0  0  0  0  0  0  0  0  0  0  0
    6.3113   -0.0758    0.9207 C   0  0  0  0  0  0  0  0  0  0  0  0
    5.8502    0.5533   -0.2060 O   0  0  0  0  0  0  0  0  0  0  0  0
    4.8558    1.4836   -0.0192 C   0  0  0  0  0  0  0  0  0  0  0  0
    3.5922    0.8998    0.6063 C   0  0  1  0  0  0  0  0  0  0  0  0
    2.5762    1.9437    0.7726 C   0  0  0  0  0  0  0  0  0  0  0  0
    1.2091    1.6865    0.1714 C   0  0  0  0  0  0  0  0  0  0  0  0
    1.3638    0.8709   -1.0482 C   0  0  2  0  0  0  0  0  0  0  0  0
    0.2442    0.7737   -2.0029 C   0  0  0  0  0  0  0  0  0  0  0  0
   -0.9568    0.2549   -1.6379 O   0  0  0  0  0  0  0  0  0  0  0  0
   -1.9392    0.5864   -0.7777 C   0  0  0  0  0  0  0  0  0  0  0  0
   -1.7474    1.6641   -0.1161 O   0  0  0  0  0  0  0  0  0  0  0  0
   -3.1466   -0.1073   -0.5200 N   0  0  0  0  0  0  0  0  0  0  0  0
   -3.5703   -1.3089   -1.1253 C   0  0  0  0  0  0  0  0  0  0  0  0
   -4.7767   -1.8976   -0.7914 C   0  0  0  0  0  0  0  0  0  0  0  0
   -5.2441   -3.0535   -1.3361 C   0  0  0  0  0  0  0  0  0  0  0  0
   -4.4889   -3.7038   -2.2851 C   0  0  0  0  0  0  0  0  0  0  0  0
   -3.2811   -3.1598   -2.6524 C   0  0  0  0  0  0  0  0  0  0  0  0
   -2.8280   -1.9656   -2.0709 C   0  0  0  0  0  0  0  0  0  0  0  0
   -4.0286    0.4657    0.4523 C   0  0  0  0  0  0  0  0  0  0  0  0
   -4.9975    1.3634    0.0782 C   0  0  0  0  0  0  0  0  0  0  0  0
   -5.8551    1.9222    1.0145 C   0  0  0  0  0  0  0  0  0  0  0  0
   -5.7519    1.5855    2.3511 C   0  0  0  0  0  0  0  0  0  0  0  0
   -6.7947    2.2486    3.5778 Cl  0  0  0  0  0  0  0  0  0  0  0  0
   -4.7844    0.6874    2.7340 C   0  0  0  0  0  0  0  0  0  0  0  0
   -3.9246    0.1296    1.7819 C   0  0  0  0  0  0  0  0  0  0  0  0
    1.8330   -0.4905   -0.5471 C   0  0  0  0  0  0  0  0  0  0  0  0
    3.2388   -0.3485   -0.0839 C   0  0  0  0  0  0  0  0  0  0  0  0
    8.5326   -1.7660   -1.1292 H   0  0  0  0  0  0  0  0  0  0  0  0
    5.5363   -0.5885    1.5298 H   0  0  0  0  0  0  0  0  0  0  0  0
    6.8226    0.6724    1.5848 H   0  0  0  0  0  0  0  0  0  0  0  0
    5.2182    2.3593    0.5937 H   0  0  0  0  0  0  0  0  0  0  0  0
    4.6333    1.9234   -1.0207 H   0  0  0  0  0  0  0  0  0  0  0  0
    3.9259    0.6214    1.6558 H   0  0  0  0  0  0  0  0  0  0  0  0
    2.3812    2.2445    1.8377 H   0  0  0  0  0  0  0  0  0  0  0  0
    2.9293    2.9033    0.2896 H   0  0  0  0  0  0  0  0  0  0  0  0
    0.6529    1.1134    0.9381 H   0  0  0  0  0  0  0  0  0  0  0  0
    0.7059    2.6662    0.0329 H   0  0  0  0  0  0  0  0  0  0  0  0
    2.2293    1.3294   -1.6290 H   0  0  0  0  0  0  0  0  0  0  0  0
    0.6289    0.1261   -2.8640 H   0  0  0  0  0  0  0  0  0  0  0  0
    0.1731    1.7826   -2.5100 H   0  0  0  0  0  0  0  0  0  0  0  0
   -5.3977   -1.4093   -0.0449 H   0  0  0  0  0  0  0  0  0  0  0  0
   -6.1893   -3.4847   -1.0527 H   0  0  0  0  0  0  0  0  0  0  0  0
   -4.8756   -4.6318   -2.7152 H   0  0  0  0  0  0  0  0  0  0  0  0
   -2.6880   -3.6698   -3.3973 H   0  0  0  0  0  0  0  0  0  0  0  0
   -1.8781   -1.6320   -2.4281 H   0  0  0  0  0  0  0  0  0  0  0  0
   -5.1167    1.6568   -0.9523 H   0  0  0  0  0  0  0  0  0  0  0  0
   -6.6259    2.6301    0.7502 H   0  0  0  0  0  0  0  0  0  0  0  0
   -4.6935    0.4167    3.7724 H   0  0  0  0  0  0  0  0  0  0  0  0
   -3.1922   -0.5668    2.1608 H   0  0  0  0  0  0  0  0  0  0  0  0
    1.7358   -1.2256   -1.3530 H   0  0  0  0  0  0  0  0  0  0  0  0
    1.1373   -0.7743    0.2752 H   0  0  0  0  0  0  0  0  0  0  0  0
    3.8908   -0.5009   -0.9971 H   0  0  0  0  0  0  0  0  0  0  0  0
    3.4650   -1.2716    0.5321 H   0  0  0  0  0  0  0  0  0  0  0  0
  1  2  2  0
  2  3  1  0
  2  4  1  0
  4  5  1  0
  5  6  1  0
  6  7  1  0
  7  8  1  0
  8  9  1  0
  9 10  1  0
 10 11  1  0
 11 12  1  0
 12 13  1  0
 13 14  2  0
 13 15  1  0
 15 16  1  0
 16 17  2  0
 17 18  1  0
 18 19  2  0
 19 20  1  0
 20 21  2  0
 15 22  1  0
 22 23  2  0
 23 24  1  0
 24 25  2  0
 25 26  1  0
 25 27  1  0
 27 28  2  0
 10 29  1  0
 29 30  1  0
 30  7  1  0
 21 16  1  0
 28 22  1  0
  3 31  1  0
  4 32  1  0
  4 33  1  0
  6 34  1  0
  6 35  1  0
  7 36  1  1
  8 37  1  0
  8 38  1  0
  9 39  1  0
  9 40  1  0
 10 41  1  6
 11 42  1  0
 11 43  1  0
 17 44  1  0
 18 45  1  0
 19 46  1  0
 20 47  1  0
 21 48  1  0
 23 49  1  0
 24 50  1  0
 27 51  1  0
 28 52  1  0
 29 53  1  0
 29 54  1  0
 30 55  1  0
 30 56  1  0
M  END
$$$$
