@<TRIPOS>MOLECULE
*****
 56 58 0 0 0
SMALL
GASTEIGER

@<TRIPOS>ATOM
      1 O           7.9403   -1.7120    1.3883 O.2     1  UNL1       -0.2484
      2 C           7.3787   -1.0270    0.4999 C.2     1  UNL1        0.3308
      3 O           7.7805   -1.1934   -0.8112 O.3     1  UNL1       -0.4790
      4 C           6.3113   -0.0758    0.9207 C.3     1  UNL1        0.1443
      5 O           5.8502    0.5533   -0.2060 O.3     1  UNL1       -0.3684
      6 C           4.8558    1.4836   -0.0192 C.3     1  UNL1        0.0512
      7 C           3.5922    0.8998    0.6063 C.3     1  UNL1       -0.0175
      8 C           2.5762    1.9437    0.7726 C.3     1  UNL1       -0.0478
      9 C           1.2091    1.6865    0.1714 C.3     1  UNL1       -0.0468
     10 C           1.3638    0.8709   -1.0482 C.3     1  UNL1       -0.0066
     11 C           0.2442    0.7737   -2.0029 C.3     1  UNL1        0.0969
     12 O          -0.9568    0.2549   -1.6379 O.3     1  UNL1       -0.4495
     13 C          -1.9392    0.5864   -0.7777 C.2     1  UNL1        0.4117
     14 O          -1.7474    1.6641   -0.1161 O.2     1  UNL1       -0.2255
     15 N          -3.1466   -0.1073   -0.5200 N.am    1  UNL1       -0.2062
     16 C          -3.5703   -1.3089   -1.1253 C.ar    1  UNL1        0.0445
     17 C          -4.7767   -1.8976   -0.7914 C.ar    1  UNL1       -0.0398
     18 C          -5.2441   -3.0535   -1.3361 C.ar    1  UNL1       -0.0600
     19 C          -4.4889   -3.7038   -2.2851 C.ar    1  UNL1       -0.0616
     20 C          -3.2811   -3.1598   -2.6524 C.ar    1  UNL1       -0.0600
     21 C          -2.8280   -1.9656   -2.0709 C.ar    1  UNL1       -0.0398
     22 C          -4.0286    0.4657    0.4523 C.ar    1  UNL1        0.0446
     23 C          -4.9975    1.3634    0.0782 C.ar    1  UNL1       -0.0384
     24 C          -5.8551    1.9222    1.0145 C.ar    1  UNL1       -0.0416
     25 C          -5.7519    1.5855    2.3511 C.ar    1  UNL1        0.0411
     26 CL         -6.7947    2.2486    3.5778 Cl      1  UNL1       -0.0835
     27 C          -4.7844    0.6874    2.7340 C.ar    1  UNL1       -0.0416
     28 C          -3.9246    0.1296    1.7819 C.ar    1  UNL1       -0.0384
     29 C           1.8330   -0.4905   -0.5471 C.3     1  UNL1       -0.0468
     30 C           3.2388   -0.3485   -0.0839 C.3     1  UNL1       -0.0478
     31 H           8.5326   -1.7660   -1.1292 H       1  UNL1        0.2951
     32 H           5.5363   -0.5885    1.5298 H       1  UNL1        0.0676
     33 H           6.8226    0.6724    1.5848 H       1  UNL1        0.0676
     34 H           5.2182    2.3593    0.5937 H       1  UNL1        0.0563
     35 H           4.6333    1.9234   -1.0207 H       1  UNL1        0.0563
     36 H           3.9259    0.6214    1.6558 H       1  UNL1        0.0323
     37 H           2.3812    2.2445    1.8377 H       1  UNL1        0.0269
     38 H           2.9293    2.9033    0.2896 H       1  UNL1        0.0269
     39 H           0.6529    1.1134    0.9381 H       1  UNL1        0.0269
     40 H           0.7059    2.6662    0.0329 H       1  UNL1        0.0269
     41 H           2.2293    1.3294   -1.6290 H       1  UNL1        0.0334
     42 H           0.6289    0.1261   -2.8640 H       1  UNL1        0.0701
     43 H           0.1731    1.7826   -2.5100 H       1  UNL1        0.0701
     44 H          -5.3977   -1.4093   -0.0449 H       1  UNL1        0.0636
     45 H          -6.1893   -3.4847   -1.0527 H       1  UNL1        0.0618
     46 H          -4.8756   -4.6318   -2.7152 H       1  UNL1        0.0618
     47 H          -2.6880   -3.6698   -3.3973 H       1  UNL1        0.0618
     48 H          -1.8781   -1.6320   -2.4281 H       1  UNL1        0.0636
     49 H          -5.1167    1.6568   -0.9523 H       1  UNL1        0.0637
     50 H          -6.6259    2.6301    0.7502 H       1  UNL1        0.0633
     51 H          -4.6935    0.4167    3.7724 H       1  UNL1        0.0633
     52 H          -3.1922   -0.5668    2.1608 H       1  UNL1        0.0637
     53 H           1.7358   -1.2256   -1.3530 H       1  UNL1        0.0269
     54 H           1.1373   -0.7743    0.2752 H       1  UNL1        0.0269
     55 H           3.8908   -0.5009   -0.9971 H       1  UNL1        0.0269
     56 H           3.4650   -1.2716    0.5321 H       1  UNL1        0.0269
@<TRIPOS>BOND
     1     1     2    2
     2     2     3    1
     3     2     4    1
     4     4     5    1
     5     5     6    1
     6     6     7    1
     7     7     8    1
     8     8     9    1
     9     9    10    1
    10    10    11    1
    11    11    12    1
    12    12    13    1
    13    13    14    2
    14    13    15   am
    15    15    16    1
    16    16    17   ar
    17    17    18   ar
    18    18    19   ar
    19    19    20   ar
    20    20    21   ar
    21    15    22    1
    22    22    23   ar
    23    23    24   ar
    24    24    25   ar
    25    25    26    1
    26    25    27   ar
    27    27    28   ar
    28    10    29    1
    29    29    30    1
    30    30     7    1
    31    21    16   ar
    32    28    22   ar
    33     3    31    1
    34     4    32    1
    35     4    33    1
    36     6    34    1
    37     6    35    1
    38     7    36    1
    39     8    37    1
    40     8    38    1
    41     9    39    1
    42     9    40    1
    43    10    41    1
    44    11    42    1
    45    11    43    1
    46    17    44    1
    47    18    45    1
    48    19    46    1
    49    20    47    1
    50    21    48    1
    51    23    49    1
    52    24    50    1
    53    27    51    1
    54    28    52    1
    55    29    53    1
    56    29    54    1
    57    30    55    1
    58    30    56    1
