
     RDKit          3D

 45 45  0  0  0  0  0  0  0  0999 V2000
    0.1916    0.9631   -0.3076 C   0  0  2  0  0  0  0  0  0  0  0  0
   -0.1669    2.4114    0.0246 C   0  0  0  0  0  0  0  0  0  0  0  0
   -1.5412    2.7589   -0.5083 C   0  0  0  0  0  0  0  0  0  0  0  0
   -1.8283    4.2009   -0.1443 C   0  0  0  0  0  0  0  0  0  0  0  0
   -3.1995    4.6001   -0.6577 C   0  0  0  0  0  0  0  0  0  0  0  0
   -0.7703    0.0888    0.2868 N   0  0  0  0  0  0  0  0  0  0  0  0
   -1.5764   -0.7799   -0.5024 C   0  0  0  0  0  0  0  0  0  0  0  0
   -1.4197   -0.7584   -1.7444 O   0  0  0  0  0  0  0  0  0  0  0  0
   -2.5600   -1.6671    0.1707 C   0  0  0  0  0  0  0  0  0  0  0  0
   -3.2985   -2.4951   -0.8552 C   0  0  0  0  0  0  0  0  0  0  0  0
   -4.2923   -3.3906   -0.1672 C   0  0  0  0  0  0  0  0  0  0  0  0
   -5.0366   -4.2061   -1.0209 O   0  0  0  0  0  0  0  0  0  0  0  0
   -4.4491   -3.4105    1.0903 O   0  0  0  0  0  0  0  0  0  0  0  0
    1.8735    0.6714    0.2900 P   0  0  2  0  0  5  0  0  0  0  0  0
    2.1387    1.4611    1.7630 O   0  0  0  0  0  0  0  0  0  0  0  0
    2.8999    1.1909   -0.6917 O   0  0  0  0  0  0  0  0  0  0  0  0
    2.1847   -0.9796    0.5587 O   0  0  0  0  0  0  0  0  0  0  0  0
    3.5022   -1.4125    0.4843 C   0  0  0  0  0  0  0  0  0  0  0  0
    3.6076   -2.7298    0.0316 C   0  0  0  0  0  0  0  0  0  0  0  0
    4.8492   -3.3315   -0.1060 C   0  0  0  0  0  0  0  0  0  0  0  0
    5.9887   -2.6510    0.1970 C   0  0  0  0  0  0  0  0  0  0  0  0
    5.8821   -1.3448    0.6458 C   0  0  0  0  0  0  0  0  0  0  0  0
    4.6580   -0.7177    0.7932 C   0  0  0  0  0  0  0  0  0  0  0  0
    0.2433    0.8968   -1.4142 H   0  0  0  0  0  0  0  0  0  0  0  0
   -0.1295    2.5809    1.1121 H   0  0  0  0  0  0  0  0  0  0  0  0
    0.5494    3.1166   -0.4360 H   0  0  0  0  0  0  0  0  0  0  0  0
   -1.5661    2.6451   -1.6066 H   0  0  0  0  0  0  0  0  0  0  0  0
   -2.3235    2.0927   -0.0957 H   0  0  0  0  0  0  0  0  0  0  0  0
   -1.0620    4.8586   -0.5554 H   0  0  0  0  0  0  0  0  0  0  0  0
   -1.7749    4.2657    0.9656 H   0  0  0  0  0  0  0  0  0  0  0  0
   -3.3830    4.0087   -1.5928 H   0  0  0  0  0  0  0  0  0  0  0  0
   -3.1417    5.6620   -0.9859 H   0  0  0  0  0  0  0  0  0  0  0  0
   -3.9386    4.4114    0.1249 H   0  0  0  0  0  0  0  0  0  0  0  0
   -0.8195    0.1507    1.3278 H   0  0  0  0  0  0  0  0  0  0  0  0
   -3.3493   -1.0302    0.6613 H   0  0  0  0  0  0  0  0  0  0  0  0
   -2.0949   -2.3187    0.9212 H   0  0  0  0  0  0  0  0  0  0  0  0
   -2.6246   -3.1383   -1.4386 H   0  0  0  0  0  0  0  0  0  0  0  0
   -3.9051   -1.8513   -1.5247 H   0  0  0  0  0  0  0  0  0  0  0  0
   -5.6733   -4.9110   -0.6288 H   0  0  0  0  0  0  0  0  0  0  0  0
    1.3324    1.3629    2.3478 H   0  0  0  0  0  0  0  0  0  0  0  0
    2.7882   -3.3897   -0.2457 H   0  0  0  0  0  0  0  0  0  0  0  0
    5.0005   -4.3507   -0.4522 H   0  0  0  0  0  0  0  0  0  0  0  0
    6.9952   -3.0671    0.1104 H   0  0  0  0  0  0  0  0  0  0  0  0
    6.7593   -0.7491    0.9041 H   0  0  0  0  0  0  0  0  0  0  0  0
    4.4805    0.2819    1.1311 H   0  0  0  0  0  0  0  0  0  0  0  0
  1  2  1  0
  2  3  1  0
  3  4  1  0
  4  5  1  0
  1  6  1  0
  6  7  1  0
  7  8  2  0
  7  9  1  0
  9 10  1  0
 10 11  1  0
 11 12  1  0
 11 13  2  0
  1 14  1  0
 14 15  1  1
 14 16  2  0
 14 17  1  0
 17 18  1  0
 18 19  2  0
 19 20  1  0
 20 21  2  0
 21 22  1  0
 22 23  2  0
 23 18  1  0
  1 24  1  6
  2 25  1  0
  2 26  1  0
  3 27  1  0
  3 28  1  0
  4 29  1  0
  4 30  1  0
  5 31  1  0
  5 32  1  0
  5 33  1  0
  6 34  1  0
  9 35  1  0
  9 36  1  0
 10 37  1  0
 10 38  1  0
 12 39  1  0
 15 40  1  0
 19 41  1  0
 20 42  1  0
 21 43  1  0
 22 44  1  0
 23 45  1  0
M  END
$$$$
