@<TRIPOS>MOLECULE
*****
 49 52 0 0 0
SMALL
GASTEIGER

@<TRIPOS>ATOM
      1 C          -4.2307    3.8246    0.3704 C.3     1  UNL1       -0.0200
      2 C          -4.9053    2.7672    1.1662 C.ar    1  UNL1        0.0674
      3 N          -6.0858    2.8644    1.8179 N.ar    1  UNL1       -0.1780
      4 N          -6.3758    1.7193    2.4223 N.ar    1  UNL1       -0.2767
      5 C          -5.3946    0.8149    2.1936 C.ar    1  UNL1        0.0660
      6 C          -5.1995   -0.4982    2.5787 C.ar    1  UNL1       -0.0357
      7 C          -4.0615   -1.1674    2.1691 C.ar    1  UNL1       -0.0520
      8 C          -3.1316   -0.5270    1.3832 C.ar    1  UNL1       -0.0156
      9 C          -1.9419   -1.2909    0.9793 C.ar    1  UNL1        0.0037
     10 C          -1.4458   -2.2520    1.8279 C.ar    1  UNL1        0.0355
     11 N          -0.3606   -2.9188    1.4126 N.ar    1  UNL1       -0.2590
     12 C           0.2349   -2.6637    0.2020 C.ar    1  UNL1        0.0692
     13 C          -0.2322   -1.7160   -0.6623 C.ar    1  UNL1        0.1392
     14 O           0.3033   -1.4111   -1.8598 O.3     1  UNL1       -0.4889
     15 C           1.3903   -1.8388   -2.5801 C.3     1  UNL1        0.1050
     16 C           2.6878   -1.5071   -1.8887 C.3     1  UNL1        0.0434
     17 N           3.8352   -1.9612   -2.6576 N.3     1  UNL1       -0.3242
     18 C           2.7025    0.0024   -1.7281 C.3     1  UNL1       -0.0093
     19 C           3.9381    0.4708   -1.0545 C.ar    1  UNL1       -0.0458
     20 C           5.0775    0.8086   -1.7536 C.ar    1  UNL1       -0.0585
     21 C           6.2292    1.2445   -1.1338 C.ar    1  UNL1       -0.0615
     22 C           6.2885    1.3624    0.2392 C.ar    1  UNL1       -0.0617
     23 C           5.1597    1.0295    0.9573 C.ar    1  UNL1       -0.0615
     24 C           4.0027    0.5915    0.3326 C.ar    1  UNL1       -0.0585
     25 C          -1.3659   -1.0143   -0.2378 C.ar    1  UNL1       -0.0093
     26 C          -3.3458    0.7716    1.0147 C.ar    1  UNL1       -0.0430
     27 C          -4.4845    1.4783    1.4106 C.ar    1  UNL1        0.0230
     28 H          -4.5019    4.8422    0.7161 H       1  UNL1        0.0293
     29 H          -3.1088    3.7584    0.4658 H       1  UNL1        0.0293
     30 H          -4.4467    3.6644   -0.7080 H       1  UNL1        0.0293
     31 H          -7.2282    1.5139    2.9977 H       1  UNL1        0.1889
     32 H          -5.9170   -1.0174    3.1947 H       1  UNL1        0.0639
     33 H          -3.9459   -2.1956    2.4921 H       1  UNL1        0.0624
     34 H          -1.9384   -2.4270    2.7719 H       1  UNL1        0.0836
     35 H           1.0945   -3.2650   -0.0655 H       1  UNL1        0.0867
     36 H           1.3381   -2.9416   -2.8068 H       1  UNL1        0.0712
     37 H           1.4179   -1.3051   -3.5861 H       1  UNL1        0.0712
     38 H           2.7283   -2.0029   -0.9181 H       1  UNL1        0.0495
     39 H           3.8613   -3.0006   -2.5925 H       1  UNL1        0.1186
     40 H           3.7290   -1.7460   -3.6828 H       1  UNL1        0.1186
     41 H           2.5443    0.4836   -2.7172 H       1  UNL1        0.0329
     42 H           1.7934    0.2542   -1.1271 H       1  UNL1        0.0329
     43 H           5.0168    0.7108   -2.8405 H       1  UNL1        0.0620
     44 H           7.1169    1.5065   -1.6960 H       1  UNL1        0.0618
     45 H           7.1906    1.7048    0.7386 H       1  UNL1        0.0618
     46 H           5.2272    1.1292    2.0353 H       1  UNL1        0.0618
     47 H           3.1137    0.3306    0.9158 H       1  UNL1        0.0620
     48 H          -1.7647   -0.2518   -0.9042 H       1  UNL1        0.0661
     49 H          -2.6090    1.2709    0.3953 H       1  UNL1        0.0631
@<TRIPOS>BOND
     1     1     2    1
     2     2     3   ar
     3     3     4   ar
     4     4     5   ar
     5     5     6   ar
     6     6     7   ar
     7     7     8   ar
     8     8     9    1
     9     9    10   ar
    10    10    11   ar
    11    11    12   ar
    12    12    13   ar
    13    13    14    1
    14    14    15    1
    15    15    16    1
    16    16    17    1
    17    16    18    1
    18    18    19    1
    19    19    20   ar
    20    20    21   ar
    21    21    22   ar
    22    22    23   ar
    23    23    24   ar
    24    13    25   ar
    25     8    26   ar
    26    26    27   ar
    27    27     2   ar
    28    27     5   ar
    29    25     9   ar
    30    24    19   ar
    31     1    28    1
    32     1    29    1
    33     1    30    1
    34     4    31    1
    35     6    32    1
    36     7    33    1
    37    10    34    1
    38    12    35    1
    39    15    36    1
    40    15    37    1
    41    16    38    1
    42    17    39    1
    43    17    40    1
    44    18    41    1
    45    18    42    1
    46    20    43    1
    47    21    44    1
    48    22    45    1
    49    23    46    1
    50    24    47    1
    51    25    48    1
    52    26    49    1
