
     RDKit          3D

 65 69  0  0  0  0  0  0  0  0999 V2000
    6.3254   -2.1598    2.3028 C   0  0  0  0  0  0  0  0  0  0  0  0
    7.3375   -1.6331    1.3500 C   0  0  0  0  0  0  0  0  0  0  0  0
    8.6523   -2.0229    1.4156 C   0  0  0  0  0  0  0  0  0  0  0  0
    9.5625   -1.5108    0.5149 C   0  0  0  0  0  0  0  0  0  0  0  0
    9.1706   -0.6094   -0.4546 C   0  0  0  0  0  0  0  0  0  0  0  0
    7.8415   -0.1982   -0.5417 C   0  0  0  0  0  0  0  0  0  0  0  0
    7.4171    0.7754   -1.5887 C   0  0  0  0  0  0  0  0  0  0  0  0
    6.9643   -0.7272    0.3690 C   0  0  0  0  0  0  0  0  0  0  0  0
    5.5602   -0.3423    0.3306 C   0  0  0  0  0  0  0  0  0  0  0  0
    4.6318   -1.0226   -0.4286 C   0  0  0  0  0  0  0  0  0  0  0  0
    3.3132   -0.6788   -0.4731 C   0  0  0  0  0  0  0  0  0  0  0  0
    2.2863   -1.3719   -1.2667 C   0  0  0  0  0  0  0  0  0  0  0  0
    2.8969    0.4164    0.2916 C   0  0  0  0  0  0  0  0  0  0  0  0
    1.6313    0.8173    0.3076 N   0  0  0  0  0  0  0  0  0  0  0  0
    1.1312    1.8449    1.0018 C   0  0  0  0  0  0  0  0  0  0  0  0
   -0.2007    2.2806    1.0322 N   0  0  0  0  0  0  0  0  0  0  0  0
   -1.2474    1.7476    0.2978 C   0  0  0  0  0  0  0  0  0  0  0  0
   -2.5396    2.1376    0.6256 C   0  0  0  0  0  0  0  0  0  0  0  0
   -3.6369    1.6590   -0.0703 C   0  0  0  0  0  0  0  0  0  0  0  0
   -3.5174    0.7792   -1.1139 C   0  0  0  0  0  0  0  0  0  0  0  0
   -4.5571    0.2660   -1.8355 O   0  0  0  0  0  0  0  0  0  0  0  0
   -5.9000    0.5102   -1.6162 C   0  0  0  0  0  0  0  0  0  0  0  0
   -6.4773    0.0118   -0.3363 C   0  0  0  0  0  0  0  0  0  0  0  0
   -7.9047    0.3796   -0.2765 N   0  0  0  0  0  0  0  0  0  0  0  0
   -8.6532   -0.3512   -1.2569 C   0  0  0  0  0  0  0  0  0  0  0  0
   -9.9552   -0.7505   -0.6095 C   0  0  0  0  0  0  0  0  0  0  0  0
   -9.6073   -0.8728    0.8354 C   0  0  0  0  0  0  0  0  0  0  0  0
   -8.4381    0.0475    1.0139 C   0  0  0  0  0  0  0  0  0  0  0  0
   -2.1968    0.4008   -1.4261 C   0  0  0  0  0  0  0  0  0  0  0  0
   -1.0991    0.8732   -0.7388 C   0  0  0  0  0  0  0  0  0  0  0  0
    2.0745    2.5123    1.7540 N   0  0  0  0  0  0  0  0  0  0  0  0
    3.3397    2.1530    1.7706 N   0  0  0  0  0  0  0  0  0  0  0  0
    3.8038    1.1226    1.0660 C   0  0  0  0  0  0  0  0  0  0  0  0
    5.1312    0.7338    1.0769 C   0  0  0  0  0  0  0  0  0  0  0  0
    5.7306   -1.2922    2.7099 H   0  0  0  0  0  0  0  0  0  0  0  0
    6.8229   -2.6738    3.1451 H   0  0  0  0  0  0  0  0  0  0  0  0
    5.5945   -2.7821    1.7662 H   0  0  0  0  0  0  0  0  0  0  0  0
    8.9118   -2.7308    2.1917 H   0  0  0  0  0  0  0  0  0  0  0  0
   10.6005   -1.8131    0.5601 H   0  0  0  0  0  0  0  0  0  0  0  0
    9.8812   -0.2048   -1.1633 H   0  0  0  0  0  0  0  0  0  0  0  0
    8.1888    1.5447   -1.7683 H   0  0  0  0  0  0  0  0  0  0  0  0
    6.5174    1.3315   -1.2167 H   0  0  0  0  0  0  0  0  0  0  0  0
    7.1208    0.2057   -2.4740 H   0  0  0  0  0  0  0  0  0  0  0  0
    4.9511   -1.8789   -1.0284 H   0  0  0  0  0  0  0  0  0  0  0  0
    1.8322   -0.6787   -2.0008 H   0  0  0  0  0  0  0  0  0  0  0  0
    2.6841   -2.2924   -1.7477 H   0  0  0  0  0  0  0  0  0  0  0  0
    1.4711   -1.6683   -0.5785 H   0  0  0  0  0  0  0  0  0  0  0  0
   -0.4030    3.0987    1.6851 H   0  0  0  0  0  0  0  0  0  0  0  0
   -2.7086    2.8386    1.4514 H   0  0  0  0  0  0  0  0  0  0  0  0
   -4.6296    2.0168    0.2068 H   0  0  0  0  0  0  0  0  0  0  0  0
   -6.1074    1.6308   -1.6376 H   0  0  0  0  0  0  0  0  0  0  0  0
   -6.5154    0.0786   -2.4510 H   0  0  0  0  0  0  0  0  0  0  0  0
   -6.4712   -1.1325   -0.3616 H   0  0  0  0  0  0  0  0  0  0  0  0
   -5.9768    0.2890    0.5713 H   0  0  0  0  0  0  0  0  0  0  0  0
   -8.8985    0.3220   -2.1030 H   0  0  0  0  0  0  0  0  0  0  0  0
   -8.0484   -1.2023   -1.5831 H   0  0  0  0  0  0  0  0  0  0  0  0
  -10.3206   -1.7317   -1.0325 H   0  0  0  0  0  0  0  0  0  0  0  0
  -10.7274    0.0387   -0.7134 H   0  0  0  0  0  0  0  0  0  0  0  0
  -10.4601   -0.5778    1.5007 H   0  0  0  0  0  0  0  0  0  0  0  0
   -9.3508   -1.9125    1.1390 H   0  0  0  0  0  0  0  0  0  0  0  0
   -7.6856   -0.4306    1.6790 H   0  0  0  0  0  0  0  0  0  0  0  0
   -8.7721    0.9652    1.5557 H   0  0  0  0  0  0  0  0  0  0  0  0
   -2.0903   -0.3010   -2.2586 H   0  0  0  0  0  0  0  0  0  0  0  0
   -0.1004    0.5215   -1.0667 H   0  0  0  0  0  0  0  0  0  0  0  0
    5.8189    1.3156    1.7005 H   0  0  0  0  0  0  0  0  0  0  0  0
  1  2  1  0
  2  3  2  0
  3  4  1  0
  4  5  2  0
  5  6  1  0
  6  7  1  0
  6  8  2  0
  8  9  1  0
  9 10  2  0
 10 11  1  0
 11 12  1  0
 11 13  2  0
 13 14  1  0
 14 15  2  0
 15 16  1  0
 16 17  1  0
 17 18  2  0
 18 19  1  0
 19 20  2  0
 20 21  1  0
 21 22  1  0
 22 23  1  0
 23 24  1  0
 24 25  1  0
 25 26  1  0
 26 27  1  0
 27 28  1  0
 20 29  1  0
 29 30  2  0
 15 31  1  0
 31 32  2  0
 32 33  1  0
 33 34  2  0
  8  2  1  0
 34  9  1  0
 33 13  1  0
 30 17  1  0
 28 24  1  0
  1 35  1  0
  1 36  1  0
  1 37  1  0
  3 38  1  0
  4 39  1  0
  5 40  1  0
  7 41  1  0
  7 42  1  0
  7 43  1  0
 10 44  1  0
 12 45  1  0
 12 46  1  0
 12 47  1  0
 16 48  1  0
 18 49  1  0
 19 50  1  0
 22 51  1  0
 22 52  1  0
 23 53  1  0
 23 54  1  0
 25 55  1  0
 25 56  1  0
 26 57  1  0
 26 58  1  0
 27 59  1  0
 27 60  1  0
 28 61  1  0
 28 62  1  0
 29 63  1  0
 30 64  1  0
 34 65  1  0
M  END
$$$$
