@<TRIPOS>MOLECULE
*****
 65 69 0 0 0
SMALL
GASTEIGER

@<TRIPOS>ATOM
      1 C           6.3254   -2.1598    2.3028 C.3     1  UNL1       -0.0391
      2 C           7.3375   -1.6331    1.3500 C.ar    1  UNL1       -0.0425
      3 C           8.6523   -2.0229    1.4156 C.ar    1  UNL1       -0.0582
      4 C           9.5625   -1.5108    0.5149 C.ar    1  UNL1       -0.0612
      5 C           9.1706   -0.6094   -0.4546 C.ar    1  UNL1       -0.0582
      6 C           7.8415   -0.1982   -0.5417 C.ar    1  UNL1       -0.0425
      7 C           7.4171    0.7754   -1.5887 C.3     1  UNL1       -0.0391
      8 C           6.9643   -0.7272    0.3690 C.ar    1  UNL1       -0.0120
      9 C           5.5602   -0.3423    0.3306 C.ar    1  UNL1       -0.0149
     10 C           4.6318   -1.0226   -0.4286 C.ar    1  UNL1       -0.0489
     11 C           3.3132   -0.6788   -0.4731 C.ar    1  UNL1       -0.0223
     12 C           2.2863   -1.3719   -1.2667 C.3     1  UNL1       -0.0376
     13 C           2.8969    0.4164    0.2916 C.ar    1  UNL1        0.0975
     14 N           1.6313    0.8173    0.3076 N.ar    1  UNL1       -0.2112
     15 C           1.1312    1.8449    1.0018 C.ar    1  UNL1        0.2398
     16 N          -0.2007    2.2806    1.0322 N.pl3   1  UNL1       -0.2824
     17 C          -1.2474    1.7476    0.2978 C.ar    1  UNL1        0.0338
     18 C          -2.5396    2.1376    0.6256 C.ar    1  UNL1       -0.0370
     19 C          -3.6369    1.6590   -0.0703 C.ar    1  UNL1       -0.0182
     20 C          -3.5174    0.7792   -1.1139 C.ar    1  UNL1        0.1207
     21 O          -4.5571    0.2660   -1.8355 O.3     1  UNL1       -0.4907
     22 C          -5.9000    0.5102   -1.6162 C.3     1  UNL1        0.1022
     23 C          -6.4773    0.0118   -0.3363 C.3     1  UNL1        0.0331
     24 N          -7.9047    0.3796   -0.2765 N.3     1  UNL1       -0.2991
     25 C          -8.6532   -0.3512   -1.2569 C.3     1  UNL1       -0.0010
     26 C          -9.9552   -0.7505   -0.6095 C.3     1  UNL1       -0.0390
     27 C          -9.6073   -0.8728    0.8354 C.3     1  UNL1       -0.0390
     28 C          -8.4381    0.0475    1.0139 C.3     1  UNL1       -0.0010
     29 C          -2.1968    0.4008   -1.4261 C.ar    1  UNL1       -0.0182
     30 C          -1.0991    0.8732   -0.7388 C.ar    1  UNL1       -0.0370
     31 N           2.0745    2.5123    1.7540 N.ar    1  UNL1       -0.1123
     32 N           3.3397    2.1530    1.7706 N.ar    1  UNL1       -0.1444
     33 C           3.8038    1.1226    1.0660 C.ar    1  UNL1        0.1125
     34 C           5.1312    0.7338    1.0769 C.ar    1  UNL1       -0.0247
     35 H           5.7306   -1.2922    2.7099 H       1  UNL1        0.0278
     36 H           6.8229   -2.6738    3.1451 H       1  UNL1        0.0278
     37 H           5.5945   -2.7821    1.7662 H       1  UNL1        0.0278
     38 H           8.9118   -2.7308    2.1917 H       1  UNL1        0.0620
     39 H          10.6005   -1.8131    0.5601 H       1  UNL1        0.0618
     40 H           9.8812   -0.2048   -1.1633 H       1  UNL1        0.0620
     41 H           8.1888    1.5447   -1.7683 H       1  UNL1        0.0278
     42 H           6.5174    1.3315   -1.2167 H       1  UNL1        0.0278
     43 H           7.1208    0.2057   -2.4740 H       1  UNL1        0.0278
     44 H           4.9511   -1.8789   -1.0284 H       1  UNL1        0.0627
     45 H           1.8322   -0.6787   -2.0008 H       1  UNL1        0.0278
     46 H           2.6841   -2.2924   -1.7477 H       1  UNL1        0.0278
     47 H           1.4711   -1.6683   -0.5785 H       1  UNL1        0.0278
     48 H          -0.4030    3.0987    1.6851 H       1  UNL1        0.1551
     49 H          -2.7086    2.8386    1.4514 H       1  UNL1        0.0637
     50 H          -4.6296    2.0168    0.2068 H       1  UNL1        0.0655
     51 H          -6.1074    1.6308   -1.6376 H       1  UNL1        0.0709
     52 H          -6.5154    0.0786   -2.4510 H       1  UNL1        0.0709
     53 H          -6.4712   -1.1325   -0.3616 H       1  UNL1        0.0460
     54 H          -5.9768    0.2890    0.5713 H       1  UNL1        0.0460
     55 H          -8.8985    0.3220   -2.1030 H       1  UNL1        0.0427
     56 H          -8.0484   -1.2023   -1.5831 H       1  UNL1        0.0427
     57 H         -10.3206   -1.7317   -1.0325 H       1  UNL1        0.0278
     58 H         -10.7274    0.0387   -0.7134 H       1  UNL1        0.0278
     59 H         -10.4601   -0.5778    1.5007 H       1  UNL1        0.0278
     60 H          -9.3508   -1.9125    1.1390 H       1  UNL1        0.0278
     61 H          -7.6856   -0.4306    1.6790 H       1  UNL1        0.0427
     62 H          -8.7721    0.9652    1.5557 H       1  UNL1        0.0427
     63 H          -2.0903   -0.3010   -2.2586 H       1  UNL1        0.0655
     64 H          -0.1004    0.5215   -1.0667 H       1  UNL1        0.0637
     65 H           5.8189    1.3156    1.7005 H       1  UNL1        0.0646
@<TRIPOS>BOND
     1     1     2    1
     2     2     3   ar
     3     3     4   ar
     4     4     5   ar
     5     5     6   ar
     6     6     7    1
     7     6     8   ar
     8     8     9    1
     9     9    10   ar
    10    10    11   ar
    11    11    12    1
    12    11    13   ar
    13    13    14   ar
    14    14    15   ar
    15    15    16    1
    16    16    17    1
    17    17    18   ar
    18    18    19   ar
    19    19    20   ar
    20    20    21    1
    21    21    22    1
    22    22    23    1
    23    23    24    1
    24    24    25    1
    25    25    26    1
    26    26    27    1
    27    27    28    1
    28    20    29   ar
    29    29    30   ar
    30    15    31   ar
    31    31    32   ar
    32    32    33   ar
    33    33    34   ar
    34     8     2   ar
    35    34     9   ar
    36    33    13   ar
    37    30    17   ar
    38    28    24    1
    39     1    35    1
    40     1    36    1
    41     1    37    1
    42     3    38    1
    43     4    39    1
    44     5    40    1
    45     7    41    1
    46     7    42    1
    47     7    43    1
    48    10    44    1
    49    12    45    1
    50    12    46    1
    51    12    47    1
    52    16    48    1
    53    18    49    1
    54    19    50    1
    55    22    51    1
    56    22    52    1
    57    23    53    1
    58    23    54    1
    59    25    55    1
    60    25    56    1
    61    26    57    1
    62    26    58    1
    63    27    59    1
    64    27    60    1
    65    28    61    1
    66    28    62    1
    67    29    63    1
    68    30    64    1
    69    34    65    1
