@<TRIPOS>MOLECULE
*****
 29 30 0 0 0
SMALL
GASTEIGER

@<TRIPOS>ATOM
      1 O5*        -2.5245   -0.8931    2.3524 O.3     1    U1       -0.3924
      2 C5*        -2.7609    0.3752    1.8411 C.3     1    U1        0.0730
      3 C4*        -1.9665    0.5793    0.5770 C.3     1    U1        0.1126
      4 O4*        -0.6305    0.4356    0.9034 O.3     1    U1       -0.3456
      5 C1*        -0.0327    0.4584   -0.3790 C.3     1    U1        0.1679
      6 C2*        -0.8355   -0.4610   -1.2019 C.3     1    U1        0.1286
      7 O2*        -1.1089    0.1306   -2.4305 O.3     1    U1       -0.3847
      8 C3*        -2.1723   -0.4766   -0.4573 C.3     1    U1        0.1135
      9 O3*        -3.2386   -0.1243   -1.2547 O.3     1    U1       -0.3864
     10 N1          1.3445    0.1958   -0.1946 N.ar    1    U1       -0.2715
     11 C6          1.9625    0.6730    0.9194 C.ar    1    U1        0.0171
     12 C5          3.3138    0.4417    1.1463 C.ar    1    U1        0.0192
     13 C4          4.0327   -0.2816    0.2265 C.ar    1    U1        0.2539
     14 O4          5.2519   -0.4654    0.4742 O.2     1    U1       -0.2677
     15 N3          3.4256   -0.7532   -0.8727 N.ar    1    U1       -0.2749
     16 C2          2.1155   -0.4953   -1.0341 C.ar    1    U1        0.3314
     17 O2          1.6068   -0.9647   -2.0840 O.2     1    U1       -0.2464
     18 H5*        -1.5855   -1.1303    2.1446 H       1    U1        0.2095
     19 H5*1       -3.8339    0.5421    1.6297 H       1    U1        0.0584
     20 H5*2       -2.4431    1.1702    2.5420 H       1    U1        0.0584
     21 H4*        -2.1213    1.5813    0.1725 H       1    U1        0.0647
     22 H1*        -0.2179    1.5115   -0.7286 H       1    U1        0.0867
     23 H2*        -0.5196   -1.5004   -1.2718 H       1    U1        0.0665
     24 H2*        -0.8420   -0.3871   -3.2120 H       1    U1        0.2101
     25 H3*        -2.3856   -1.4707   -0.0068 H       1    U1        0.0647
     26 H3*        -2.9499    0.5082   -1.9480 H       1    U1        0.2100
     27 H6          1.3785    1.2448    1.6393 H       1    U1        0.0813
     28 H5          3.7368    0.8525    2.0545 H       1    U1        0.0686
     29 H3          4.0004   -1.2964   -1.5471 H       1    U1        0.1734
@<TRIPOS>BOND
     1     1     2    1
     2     2     3    1
     3     3     4    1
     4     4     5    1
     5     5     6    1
     6     6     7    1
     7     6     8    1
     8     8     9    1
     9     5    10    1
    10    10    11   ar
    11    11    12   ar
    12    12    13   ar
    13    13    14    2
    14    13    15   ar
    15    15    16   ar
    16    16    17    2
    17     8     3    1
    18    16    10   ar
    19     1    18    1
    20     2    19    1
    21     2    20    1
    22     3    21    1
    23     5    22    1
    24     6    23    1
    25     7    24    1
    26     8    25    1
    27     9    26    1
    28    11    27    1
    29    12    28    1
    30    15    29    1
