@<TRIPOS>MOLECULE
*****
 53 55 0 0 0
SMALL
GASTEIGER

@<TRIPOS>ATOM
      1 C           8.2854   -0.8300    0.0156 C.3     1  UNL1        0.0788
      2 O           7.4260   -1.4220   -0.9580 O.3     1  UNL1       -0.4951
      3 C           6.0503   -1.2077   -0.8107 C.ar    1  UNL1        0.1201
      4 C           5.5397   -0.4605    0.2230 C.ar    1  UNL1       -0.0194
      5 C           4.1860   -0.2649    0.3466 C.ar    1  UNL1       -0.0506
      6 C           3.2853   -0.8093   -0.5592 C.ar    1  UNL1       -0.0176
      7 C           1.8625   -0.5720   -0.3824 C.ar    1  UNL1       -0.0170
      8 C           0.9146   -1.4992   -0.7700 C.ar    1  UNL1       -0.0505
      9 C          -0.4433   -1.3031   -0.6135 C.ar    1  UNL1       -0.0187
     10 C          -0.8473   -0.1263   -0.0445 C.ar    1  UNL1        0.1314
     11 O          -2.1925    0.1150    0.1320 O.3     1  UNL1       -0.4900
     12 C          -3.1981   -0.8146   -0.2524 C.3     1  UNL1        0.1023
     13 C          -4.5192   -0.1618    0.1023 C.3     1  UNL1        0.0334
     14 N          -5.5748   -1.0429   -0.2601 N.3     1  UNL1       -0.2923
     15 C          -5.7507   -1.2438   -1.6602 C.3     1  UNL1       -0.0121
     16 C          -5.7862   -2.1776    0.5609 C.3     1  UNL1        0.0966
     17 C          -6.2920   -1.8484    1.9182 C.2     1  UNL1        0.3189
     18 O          -6.4747   -0.6500    2.2664 O.2     1  UNL1       -0.2496
     19 O          -6.5815   -2.8337    2.8492 O.3     1  UNL1       -0.4797
     20 C           0.0499    0.8492    0.3679 C.ar    1  UNL1        0.0649
     21 C          -0.3600    2.0964    0.9756 C.2     1  UNL1        0.2032
     22 O          -1.2262    2.0662    1.8733 O.2     1  UNL1       -0.2860
     23 C           0.1909    3.3620    0.5856 C.ar    1  UNL1        0.0595
     24 C          -0.0522    4.6334    1.0749 C.ar    1  UNL1       -0.0438
     25 C           0.5883    5.6619    0.5336 C.ar    1  UNL1       -0.0540
     26 C           1.4765    5.4401   -0.4987 C.ar    1  UNL1       -0.0236
     27 S           1.3693    3.6471   -0.6847 S.2     1  UNL1       -0.0934
     28 C           1.3977    0.6138    0.1935 C.ar    1  UNL1       -0.0396
     29 C           3.7900   -1.5445   -1.5762 C.ar    1  UNL1       -0.0506
     30 C           5.1497   -1.7516   -1.7163 C.ar    1  UNL1       -0.0194
     31 H           9.3305   -1.1331   -0.1232 H       1  UNL1        0.0660
     32 H           8.1734    0.2609    0.0327 H       1  UNL1        0.0660
     33 H           7.9102   -1.2124    1.0031 H       1  UNL1        0.0660
     34 H           6.2302   -0.0338    0.9322 H       1  UNL1        0.0654
     35 H           3.7793    0.3327    1.1743 H       1  UNL1        0.0625
     36 H           1.3319   -2.4133   -1.2173 H       1  UNL1        0.0625
     37 H          -1.1404   -2.0785   -0.9423 H       1  UNL1        0.0654
     38 H          -3.1002   -1.6634    0.4751 H       1  UNL1        0.0709
     39 H          -3.1186   -1.1408   -1.2876 H       1  UNL1        0.0709
     40 H          -4.4857   -0.0182    1.2140 H       1  UNL1        0.0460
     41 H          -4.6179    0.8418   -0.3792 H       1  UNL1        0.0460
     42 H          -5.8017   -0.2750   -2.2124 H       1  UNL1        0.0391
     43 H          -6.6751   -1.8673   -1.8190 H       1  UNL1        0.0391
     44 H          -4.8841   -1.8131   -2.0503 H       1  UNL1        0.0391
     45 H          -4.8303   -2.7194    0.7018 H       1  UNL1        0.0541
     46 H          -6.4625   -2.8810    0.0256 H       1  UNL1        0.0541
     47 H          -6.4089   -2.7065    3.8438 H       1  UNL1        0.2951
     48 H          -0.7982    4.7281    1.9275 H       1  UNL1        0.0630
     49 H           0.4410    6.7093    0.8781 H       1  UNL1        0.0623
     50 H           2.1057    6.1160   -1.0887 H       1  UNL1        0.0693
     51 H           2.1330    1.3611    0.5065 H       1  UNL1        0.0632
     52 H           3.1014   -1.9758   -2.2933 H       1  UNL1        0.0625
     53 H           5.5238   -2.3392   -2.5330 H       1  UNL1        0.0654
@<TRIPOS>BOND
     1     1     2    1
     2     2     3    1
     3     3     4   ar
     4     4     5   ar
     5     5     6   ar
     6     6     7    1
     7     7     8   ar
     8     8     9   ar
     9     9    10   ar
    10    10    11    1
    11    11    12    1
    12    12    13    1
    13    13    14    1
    14    14    15    1
    15    14    16    1
    16    16    17    1
    17    17    18    2
    18    17    19    1
    19    10    20   ar
    20    20    21    1
    21    21    22    2
    22    21    23    1
    23    23    24   ar
    24    24    25   ar
    25    25    26   ar
    26    26    27   ar
    27    20    28   ar
    28     6    29   ar
    29    29    30   ar
    30    30     3   ar
    31    28     7   ar
    32    27    23   ar
    33     1    31    1
    34     1    32    1
    35     1    33    1
    36     4    34    1
    37     5    35    1
    38     8    36    1
    39     9    37    1
    40    12    38    1
    41    12    39    1
    42    13    40    1
    43    13    41    1
    44    15    42    1
    45    15    43    1
    46    15    44    1
    47    16    45    1
    48    16    46    1
    49    19    47    1
    50    24    48    1
    51    25    49    1
    52    26    50    1
    53    28    51    1
    54    29    52    1
    55    30    53    1
