
     RDKit          3D

 53 55  0  0  0  0  0  0  0  0999 V2000
    8.2854   -0.8300    0.0156 C   0  0  0  0  0  0  0  0  0  0  0  0
    7.4260   -1.4220   -0.9580 O   0  0  0  0  0  0  0  0  0  0  0  0
    6.0503   -1.2077   -0.8107 C   0  0  0  0  0  0  0  0  0  0  0  0
    5.5397   -0.4605    0.2230 C   0  0  0  0  0  0  0  0  0  0  0  0
    4.1860   -0.2649    0.3466 C   0  0  0  0  0  0  0  0  0  0  0  0
    3.2853   -0.8093   -0.5592 C   0  0  0  0  0  0  0  0  0  0  0  0
    1.8625   -0.5720   -0.3824 C   0  0  0  0  0  0  0  0  0  0  0  0
    0.9146   -1.4992   -0.7700 C   0  0  0  0  0  0  0  0  0  0  0  0
   -0.4433   -1.3031   -0.6135 C   0  0  0  0  0  0  0  0  0  0  0  0
   -0.8473   -0.1263   -0.0445 C   0  0  0  0  0  0  0  0  0  0  0  0
   -2.1925    0.1150    0.1320 O   0  0  0  0  0  0  0  0  0  0  0  0
   -3.1981   -0.8146   -0.2524 C   0  0  0  0  0  0  0  0  0  0  0  0
   -4.5192   -0.1618    0.1023 C   0  0  0  0  0  0  0  0  0  0  0  0
   -5.5748   -1.0429   -0.2601 N   0  0  0  0  0  0  0  0  0  0  0  0
   -5.7507   -1.2438   -1.6602 C   0  0  0  0  0  0  0  0  0  0  0  0
   -5.7862   -2.1776    0.5609 C   0  0  0  0  0  0  0  0  0  0  0  0
   -6.2920   -1.8484    1.9182 C   0  0  0  0  0  0  0  0  0  0  0  0
   -6.4747   -0.6500    2.2664 O   0  0  0  0  0  0  0  0  0  0  0  0
   -6.5815   -2.8337    2.8492 O   0  0  0  0  0  0  0  0  0  0  0  0
    0.0499    0.8492    0.3679 C   0  0  0  0  0  0  0  0  0  0  0  0
   -0.3600    2.0964    0.9756 C   0  0  0  0  0  0  0  0  0  0  0  0
   -1.2262    2.0662    1.8733 O   0  0  0  0  0  0  0  0  0  0  0  0
    0.1909    3.3620    0.5856 C   0  0  0  0  0  0  0  0  0  0  0  0
   -0.0522    4.6334    1.0749 C   0  0  0  0  0  0  0  0  0  0  0  0
    0.5883    5.6619    0.5336 C   0  0  0  0  0  0  0  0  0  0  0  0
    1.4765    5.4401   -0.4987 C   0  0  0  0  0  0  0  0  0  0  0  0
    1.3693    3.6471   -0.6847 S   0  0  0  0  0  0  0  0  0  0  0  0
    1.3977    0.6138    0.1935 C   0  0  0  0  0  0  0  0  0  0  0  0
    3.7900   -1.5445   -1.5762 C   0  0  0  0  0  0  0  0  0  0  0  0
    5.1497   -1.7516   -1.7163 C   0  0  0  0  0  0  0  0  0  0  0  0
    9.3305   -1.1331   -0.1232 H   0  0  0  0  0  0  0  0  0  0  0  0
    8.1734    0.2609    0.0327 H   0  0  0  0  0  0  0  0  0  0  0  0
    7.9102   -1.2124    1.0031 H   0  0  0  0  0  0  0  0  0  0  0  0
    6.2302   -0.0338    0.9322 H   0  0  0  0  0  0  0  0  0  0  0  0
    3.7793    0.3327    1.1743 H   0  0  0  0  0  0  0  0  0  0  0  0
    1.3319   -2.4133   -1.2173 H   0  0  0  0  0  0  0  0  0  0  0  0
   -1.1404   -2.0785   -0.9423 H   0  0  0  0  0  0  0  0  0  0  0  0
   -3.1002   -1.6634    0.4751 H   0  0  0  0  0  0  0  0  0  0  0  0
   -3.1186   -1.1408   -1.2876 H   0  0  0  0  0  0  0  0  0  0  0  0
   -4.4857   -0.0182    1.2140 H   0  0  0  0  0  0  0  0  0  0  0  0
   -4.6179    0.8418   -0.3792 H   0  0  0  0  0  0  0  0  0  0  0  0
   -5.8017   -0.2750   -2.2124 H   0  0  0  0  0  0  0  0  0  0  0  0
   -6.6751   -1.8673   -1.8190 H   0  0  0  0  0  0  0  0  0  0  0  0
   -4.8841   -1.8131   -2.0503 H   0  0  0  0  0  0  0  0  0  0  0  0
   -4.8303   -2.7194    0.7018 H   0  0  0  0  0  0  0  0  0  0  0  0
   -6.4625   -2.8810    0.0256 H   0  0  0  0  0  0  0  0  0  0  0  0
   -6.4089   -2.7065    3.8438 H   0  0  0  0  0  0  0  0  0  0  0  0
   -0.7982    4.7281    1.9275 H   0  0  0  0  0  0  0  0  0  0  0  0
    0.4410    6.7093    0.8781 H   0  0  0  0  0  0  0  0  0  0  0  0
    2.1057    6.1160   -1.0887 H   0  0  0  0  0  0  0  0  0  0  0  0
    2.1330    1.3611    0.5065 H   0  0  0  0  0  0  0  0  0  0  0  0
    3.1014   -1.9758   -2.2933 H   0  0  0  0  0  0  0  0  0  0  0  0
    5.5238   -2.3392   -2.5330 H   0  0  0  0  0  0  0  0  0  0  0  0
  1  2  1  0
  2  3  1  0
  3  4  2  0
  4  5  1  0
  5  6  2  0
  6  7  1  0
  7  8  2  0
  8  9  1  0
  9 10  2  0
 10 11  1  0
 11 12  1  0
 12 13  1  0
 13 14  1  0
 14 15  1  0
 14 16  1  0
 16 17  1  0
 17 18  2  0
 17 19  1  0
 10 20  1  0
 20 21  1  0
 21 22  2  0
 21 23  1  0
 23 24  2  0
 24 25  1  0
 25 26  2  0
 26 27  1  0
 20 28  2  0
  6 29  1  0
 29 30  2  0
 30  3  1  0
 28  7  1  0
 27 23  1  0
  1 31  1  0
  1 32  1  0
  1 33  1  0
  4 34  1  0
  5 35  1  0
  8 36  1  0
  9 37  1  0
 12 38  1  0
 12 39  1  0
 13 40  1  0
 13 41  1  0
 15 42  1  0
 15 43  1  0
 15 44  1  0
 16 45  1  0
 16 46  1  0
 19 47  1  0
 24 48  1  0
 25 49  1  0
 26 50  1  0
 28 51  1  0
 29 52  1  0
 30 53  1  0
M  END
$$$$
