@<TRIPOS>MOLECULE
*****
 25 25 0 0 0
SMALL
GASTEIGER

@<TRIPOS>ATOM
      1 N           3.4518   -1.2622    0.3969 N.am    1  UNL1       -0.2950
      2 C           2.4589   -0.2451    0.6442 C.2     1  UNL1        0.3991
      3 O           2.5052    0.6478    1.5188 O.2     1  UNL1       -0.2267
      4 O           1.3935   -0.3404   -0.2087 O.3     1  UNL1       -0.4310
      5 C           0.2608    0.4644   -0.2596 C.3     1  UNL1        0.1745
      6 C          -0.4977    0.4175    1.0249 C.3     1  UNL1       -0.0013
      7 C          -1.1941   -0.9235    1.0929 C.3     1  UNL1       -0.0485
      8 C          -2.3085   -0.9505    0.0838 C.3     1  UNL1       -0.0527
      9 C          -2.0276   -0.0948   -1.1189 C.3     1  UNL1       -0.0485
     10 C          -0.5595    0.0327   -1.4446 C.3     1  UNL1       -0.0013
     11 C           0.7351    1.8605   -0.4239 C.1     1  UNL1       -0.0581
     12 C           1.1395    2.9890   -0.5581 C.1     1  UNL1       -0.1153
     13 H           4.1637   -1.1296   -0.3789 H       1  UNL1        0.1482
     14 H           3.3876   -2.0878    1.0320 H       1  UNL1        0.1482
     15 H          -1.2379    1.2410    1.0786 H       1  UNL1        0.0314
     16 H           0.2144    0.4635    1.8675 H       1  UNL1        0.0314
     17 H          -1.5967   -1.0304    2.1362 H       1  UNL1        0.0267
     18 H          -0.4650   -1.7259    0.9341 H       1  UNL1        0.0267
     19 H          -2.5182   -2.0001   -0.1731 H       1  UNL1        0.0265
     20 H          -3.2194   -0.5502    0.5752 H       1  UNL1        0.0265
     21 H          -2.4877   -0.6128   -1.9852 H       1  UNL1        0.0267
     22 H          -2.4722    0.9138   -1.0084 H       1  UNL1        0.0267
     23 H          -0.1585   -0.8853   -1.9343 H       1  UNL1        0.0314
     24 H          -0.4758    0.8270   -2.2204 H       1  UNL1        0.0314
     25 H           1.5086    3.9811   -0.6712 H       1  UNL1        0.1229
@<TRIPOS>BOND
     1     1     2   am
     2     2     3    2
     3     2     4    1
     4     4     5    1
     5     5     6    1
     6     6     7    1
     7     7     8    1
     8     8     9    1
     9     9    10    1
    10     5    11    1
    11    11    12    3
    12    10     5    1
    13     1    13    1
    14     1    14    1
    15     6    15    1
    16     6    16    1
    17     7    17    1
    18     7    18    1
    19     8    19    1
    20     8    20    1
    21     9    21    1
    22     9    22    1
    23    10    23    1
    24    10    24    1
    25    12    25    1
