@<TRIPOS>MOLECULE
*****
 97 100 0 0 0
SMALL
GASTEIGER

@<TRIPOS>ATOM
      1 C          -3.9552   -5.5247   -1.2777 C.3     1  UNL1        0.0372
      2 O          -3.1028   -4.5950   -1.8573 O.3     1  UNL1       -0.3753
      3 C          -2.4523   -3.8154   -0.8564 C.3     1  UNL1        0.0854
      4 C          -0.9669   -4.1569   -0.8093 C.2     1  UNL1       -0.0208
      5 C          -0.1204   -4.6548   -1.6187 C.2     1  UNL1        0.0882
      6 O           1.3221   -4.9333   -1.4472 O.2     1  UNL1       -0.4528
      7 C           2.2126   -3.9942   -1.1201 C.3     1  UNL1        0.3143
      8 C           1.8343   -3.3332    0.2209 C.3     1  UNL1        0.0210
      9 O           3.6035   -4.1814   -1.1117 O.3     1  UNL1       -0.4436
     10 C           3.9968   -2.8001   -0.7515 C.ar    1  UNL1        0.1435
     11 C           4.9769   -2.3327    0.0649 C.ar    1  UNL1        0.0342
     12 C           5.9733   -3.2200    0.7607 C.3     1  UNL1       -0.0327
     13 C           5.0238   -0.9597    0.2307 C.ar    1  UNL1        0.1346
     14 O           6.0386   -0.4680    1.0800 O.3     1  UNL1       -0.5057
     15 C           4.1452   -0.0614   -0.3800 C.ar    1  UNL1        0.0714
     16 C           4.1774    1.3035    0.0802 C.ar    1  UNL1        0.1494
     17 O           5.3640    1.4185    0.9065 O.3     1  UNL1       -0.5042
     18 C           3.2228    2.1937   -0.2969 C.ar    1  UNL1        0.0798
     19 C           2.2723    1.6499   -1.1899 C.ar    1  UNL1        0.0053
     20 C           2.2327    0.3384   -1.6441 C.ar    1  UNL1        0.1274
     21 O           1.0968    0.1838   -2.5625 O.3     1  UNL1       -0.5061
     22 C           3.1593   -0.5563   -1.2334 C.ar    1  UNL1        0.0449
     23 C           3.1212   -1.9324   -1.4009 C.ar    1  UNL1        0.0788
     24 C           2.2545   -2.8004   -2.1279 C.2     1  UNL1        0.2505
     25 O           1.5725   -3.0053   -3.1363 O.2     1  UNL1       -0.2836
     26 N           2.7823    3.4284    0.4008 N.am    1  UNL1       -0.2787
     27 C           2.7925    3.6197    1.7959 C.2     1  UNL1        0.2441
     28 O           3.5393    2.6277    2.2704 O.2     1  UNL1       -0.2702
     29 C           2.2975    4.3550    2.9111 C.2     1  UNL1        0.0115
     30 C           3.2042    4.5920    4.1481 C.3     1  UNL1       -0.0348
     31 C           1.0769    4.8502    2.9773 C.2     1  UNL1       -0.0542
     32 C          -0.0643    4.7644    2.0570 C.2     1  UNL1       -0.0649
     33 C          -0.4175    4.2519    0.9511 C.2     1  UNL1       -0.0787
     34 C          -1.6270    4.1783    0.0328 C.3     1  UNL1        0.0009
     35 C          -2.8354    4.9305    0.2487 C.3     1  UNL1       -0.0566
     36 C          -1.9585    2.6665   -0.0600 C.3     1  UNL1        0.0661
     37 O          -0.8023    2.0466   -0.5703 O.3     1  UNL1       -0.3909
     38 C          -3.1296    2.2589   -0.8410 C.3     1  UNL1        0.0091
     39 C          -3.0864    2.9530   -2.2138 C.3     1  UNL1       -0.0577
     40 C          -3.0173    0.7322   -1.2187 C.3     1  UNL1        0.0661
     41 O          -1.8212    0.5853   -1.8557 O.3     1  UNL1       -0.3910
     42 C          -3.3544   -0.1048   -0.0958 C.3     1  UNL1        0.0200
     43 C          -4.7749   -0.0363    0.3761 C.3     1  UNL1       -0.0567
     44 C          -2.7284   -1.4942    0.0575 C.3     1  UNL1        0.1131
     45 O          -1.3378   -1.2720    0.4027 O.3     1  UNL1       -0.4608
     46 C          -0.9624   -1.3952    1.7453 C.2     1  UNL1        0.3042
     47 C           0.4013   -1.1679    2.2553 C.3     1  UNL1        0.0332
     48 O          -1.8631   -1.7162    2.5632 O.2     1  UNL1       -0.2512
     49 C          -2.8761   -2.4283   -1.0409 C.3     1  UNL1        0.0236
     50 C          -4.3590   -2.4827   -1.4663 C.3     1  UNL1       -0.0564
     51 H          -3.3641   -6.2173   -0.6229 H       1  UNL1        0.0524
     52 H          -4.4758   -6.0798   -2.0649 H       1  UNL1        0.0524
     53 H          -4.7120   -5.0831   -0.5935 H       1  UNL1        0.0524
     54 H          -2.9406   -4.2192    0.0871 H       1  UNL1        0.0645
     55 H          -0.7686   -3.8600    0.2954 H       1  UNL1        0.0628
     56 H          -0.2454   -5.0224   -2.6884 H       1  UNL1        0.1022
     57 H           1.0937   -2.5600   -0.0795 H       1  UNL1        0.0309
     58 H           2.6969   -2.7971    0.6024 H       1  UNL1        0.0309
     59 H           1.4399   -4.0497    0.9414 H       1  UNL1        0.0309
     60 H           6.9643   -2.7272    0.7550 H       1  UNL1        0.0280
     61 H           5.9850   -4.2207    0.3257 H       1  UNL1        0.0280
     62 H           5.6682   -3.2989    1.8297 H       1  UNL1        0.0280
     63 H           6.9999   -0.6941    0.9452 H       1  UNL1        0.2922
     64 H           6.2384    1.7249    0.4882 H       1  UNL1        0.2923
     65 H           1.4507    2.1602   -1.7804 H       1  UNL1        0.0674
     66 H           1.1473    0.7931   -3.3868 H       1  UNL1        0.2922
     67 H           2.5923    4.3708   -0.2018 H       1  UNL1        0.1552
     68 H           2.5088    4.4837    4.9978 H       1  UNL1        0.0279
     69 H           3.9783    3.8079    4.1537 H       1  UNL1        0.0279
     70 H           3.6035    5.6005    4.1057 H       1  UNL1        0.0279
     71 H           0.9107    5.4553    3.9326 H       1  UNL1        0.0622
     72 H          -0.8497    5.4259    2.6490 H       1  UNL1        0.0615
     73 H           0.2696    3.5803    0.2977 H       1  UNL1        0.0576
     74 H          -1.2773    4.4419   -1.0252 H       1  UNL1        0.0365
     75 H          -3.2117    5.3892   -0.6693 H       1  UNL1        0.0236
     76 H          -3.6663    4.3728    0.7841 H       1  UNL1        0.0236
     77 H          -2.6673    5.8121    0.9462 H       1  UNL1        0.0236
     78 H          -1.9933    2.3368    1.0169 H       1  UNL1        0.0602
     79 H          -0.6677    2.4883   -1.4578 H       1  UNL1        0.2098
     80 H          -4.0999    2.4654   -0.4109 H       1  UNL1        0.0348
     81 H          -2.1095    3.3532   -2.4728 H       1  UNL1        0.0234
     82 H          -3.8472    3.7612   -2.2834 H       1  UNL1        0.0234
     83 H          -3.3520    2.2242   -3.0150 H       1  UNL1        0.0234
     84 H          -3.7865    0.6505   -2.0795 H       1  UNL1        0.0600
     85 H          -1.8743    0.1668   -2.7371 H       1  UNL1        0.2098
     86 H          -2.7985    0.4346    0.8109 H       1  UNL1        0.0359
     87 H          -5.5410   -0.0280   -0.4011 H       1  UNL1        0.0234
     88 H          -4.9598   -0.9517    1.0150 H       1  UNL1        0.0234
     89 H          -4.9536    0.8043    1.1148 H       1  UNL1        0.0234
     90 H          -3.2367   -1.8764    0.9826 H       1  UNL1        0.0741
     91 H           1.0824   -0.7528    1.4789 H       1  UNL1        0.0342
     92 H           0.8788   -2.0824    2.6605 H       1  UNL1        0.0342
     93 H           0.3358   -0.4649    3.1274 H       1  UNL1        0.0342
     94 H          -2.3243   -2.0639   -1.9858 H       1  UNL1        0.0362
     95 H          -4.5113   -3.3444   -2.1858 H       1  UNL1        0.0234
     96 H          -5.0268   -2.6773   -0.6162 H       1  UNL1        0.0234
     97 H          -4.6646   -1.5381   -1.9390 H       1  UNL1        0.0234
@<TRIPOS>BOND
     1     1     2    1
     2     2     3    1
     3     3     4    1
     4     4     5    2
     5     5     6    1
     6     6     7    1
     7     7     8    1
     8     7     9    1
     9     9    10    1
    10    10    11   ar
    11    11    12    1
    12    11    13   ar
    13    13    14    1
    14    13    15   ar
    15    15    16   ar
    16    16    17    1
    17    16    18   ar
    18    18    19   ar
    19    19    20   ar
    20    20    21    1
    21    20    22   ar
    22    22    23   ar
    23    23    24    1
    24    24    25    2
    25    18    26    1
    26    26    27   am
    27    27    28    2
    28    27    29    1
    29    29    30    1
    30    29    31    2
    31    31    32    1
    32    32    33    2
    33    33    34    1
    34    34    35    1
    35    34    36    1
    36    36    37    1
    37    36    38    1
    38    38    39    1
    39    38    40    1
    40    40    41    1
    41    40    42    1
    42    42    43    1
    43    42    44    1
    44    44    45    1
    45    45    46    1
    46    46    47    1
    47    46    48    2
    48    44    49    1
    49    49    50    1
    50    49     3    1
    51    24     7    1
    52    23    10   ar
    53    22    15   ar
    54     1    51    1
    55     1    52    1
    56     1    53    1
    57     3    54    1
    58     4    55    1
    59     5    56    1
    60     8    57    1
    61     8    58    1
    62     8    59    1
    63    12    60    1
    64    12    61    1
    65    12    62    1
    66    14    63    1
    67    17    64    1
    68    19    65    1
    69    21    66    1
    70    26    67    1
    71    30    68    1
    72    30    69    1
    73    30    70    1
    74    31    71    1
    75    32    72    1
    76    33    73    1
    77    34    74    1
    78    35    75    1
    79    35    76    1
    80    35    77    1
    81    36    78    1
    82    37    79    1
    83    38    80    1
    84    39    81    1
    85    39    82    1
    86    39    83    1
    87    40    84    1
    88    41    85    1
    89    42    86    1
    90    43    87    1
    91    43    88    1
    92    43    89    1
    93    44    90    1
    94    47    91    1
    95    47    92    1
    96    47    93    1
    97    49    94    1
    98    50    95    1
    99    50    96    1
   100    50    97    1
