@<TRIPOS>MOLECULE
*****
 40 42 0 0 0
SMALL
GASTEIGER

@<TRIPOS>ATOM
      1 O          -1.3095    3.7040    0.6587 O.3     1  UNL1       -0.4771
      2 C          -0.8605    2.6841   -0.1807 C.2     1  UNL1        0.3389
      3 O          -0.2878    2.9659   -1.2741 O.2     1  UNL1       -0.2451
      4 C          -1.0314    1.2640    0.1647 C.ar    1  UNL1        0.0845
      5 C          -2.1434    0.5367   -0.1994 C.ar    1  UNL1       -0.0284
      6 C          -3.1867    1.2825   -0.9791 C.3     1  UNL1       -0.0266
      7 C          -3.7198    0.2334   -1.9634 C.3     1  UNL1       -0.0487
      8 C          -4.4152   -0.8187   -1.1473 C.3     1  UNL1       -0.0488
      9 C          -3.4787   -1.5949   -0.2507 C.3     1  UNL1       -0.0274
     10 C          -2.2889   -0.7938    0.1320 C.ar    1  UNL1       -0.0433
     11 C          -1.2971   -1.4235    0.8489 C.ar    1  UNL1       -0.0565
     12 C          -0.2049   -0.6523    1.1892 C.ar    1  UNL1       -0.0383
     13 C           0.0116    0.6788    0.8949 C.ar    1  UNL1        0.0623
     14 N           1.1881    1.3436    1.3188 N.pl3   1  UNL1       -0.2154
     15 S           2.6343    0.6675    1.9225 S.O2    1  UNL1        0.0724
     16 O           2.3437   -0.1446    3.1751 O.2     1  UNL1       -0.1500
     17 O           3.5877    1.7988    2.2565 O.2     1  UNL1       -0.1500
     18 C           3.4192   -0.3702    0.7583 C.ar    1  UNL1        0.1085
     19 C           3.2958   -1.7368    0.6204 C.ar    1  UNL1       -0.0351
     20 C           3.9913   -2.4029   -0.3674 C.ar    1  UNL1       -0.0599
     21 C           4.8322   -1.7808   -1.2604 C.ar    1  UNL1       -0.0616
     22 C           4.9646   -0.4099   -1.1324 C.ar    1  UNL1       -0.0599
     23 C           4.2676    0.2479   -0.1446 C.ar    1  UNL1       -0.0351
     24 H          -1.2814    4.6671    0.3077 H       1  UNL1        0.2954
     25 H          -4.0384    1.5493   -0.3290 H       1  UNL1        0.0313
     26 H          -2.7538    2.1309   -1.5145 H       1  UNL1        0.0313
     27 H          -4.4167    0.6381   -2.6924 H       1  UNL1        0.0268
     28 H          -2.7878   -0.1971   -2.4318 H       1  UNL1        0.0268
     29 H          -5.1527   -0.3085   -0.4983 H       1  UNL1        0.0268
     30 H          -4.9268   -1.4962   -1.8776 H       1  UNL1        0.0268
     31 H          -4.0208   -1.9634    0.6628 H       1  UNL1        0.0313
     32 H          -3.1682   -2.5246   -0.7726 H       1  UNL1        0.0313
     33 H          -1.3473   -2.4636    1.1415 H       1  UNL1        0.0621
     34 H           0.5672   -1.1551    1.7565 H       1  UNL1        0.0637
     35 H           1.0875    2.3919    1.2221 H       1  UNL1        0.1737
     36 H           2.6454   -2.2106    1.3182 H       1  UNL1        0.0637
     37 H           3.8526   -3.4787   -0.4256 H       1  UNL1        0.0618
     38 H           5.3786   -2.2796   -2.0314 H       1  UNL1        0.0618
     39 H           5.6208    0.0997   -1.8241 H       1  UNL1        0.0618
     40 H           4.4297    1.3217   -0.1153 H       1  UNL1        0.0637
@<TRIPOS>BOND
     1     1     2    1
     2     2     3    2
     3     2     4    1
     4     4     5   ar
     5     5     6    1
     6     6     7    1
     7     7     8    1
     8     8     9    1
     9     9    10    1
    10    10    11   ar
    11    11    12   ar
    12    12    13   ar
    13    13    14    1
    14    14    15    1
    15    15    16    2
    16    15    17    2
    17    15    18    1
    18    18    19   ar
    19    19    20   ar
    20    20    21   ar
    21    21    22   ar
    22    22    23   ar
    23    13     4   ar
    24    23    18   ar
    25    10     5   ar
    26     1    24    1
    27     6    25    1
    28     6    26    1
    29     7    27    1
    30     7    28    1
    31     8    29    1
    32     8    30    1
    33     9    31    1
    34     9    32    1
    35    11    33    1
    36    12    34    1
    37    14    35    1
    38    19    36    1
    39    20    37    1
    40    21    38    1
    41    22    39    1
    42    23    40    1
