@<TRIPOS>MOLECULE
*****
 30 30 0 0 0
SMALL
GASTEIGER

@<TRIPOS>ATOM
      1 O          -4.2411   -0.9920    1.2405 O.2     1  UNL1       -0.2562
      2 P          -3.4086    0.0855    0.5826 P.3     1  UNL1        0.3596
      3 O          -3.1879    1.3222    1.6835 O.3     1  UNL1       -0.3224
      4 O          -4.2953    0.6044   -0.7864 O.3     1  UNL1       -0.3224
      5 C          -1.8203   -0.6303    0.0396 C.3     1  UNL1        0.2245
      6 N          -0.7279    0.2834    0.3043 N.pl3   1  UNL1       -0.3213
      7 C           0.6318   -0.0084    0.0772 C.ar    1  UNL1        0.0287
      8 C           1.0751   -1.2145   -0.4071 C.ar    1  UNL1       -0.0408
      9 C           2.4375   -1.4560   -0.6222 C.ar    1  UNL1       -0.0595
     10 C           3.3625   -0.4708   -0.3457 C.ar    1  UNL1       -0.0500
     11 C           2.9275    0.7402    0.1398 C.ar    1  UNL1        0.0565
     12 C           3.9212    1.7997    0.4373 C.3     1  UNL1        0.4175
     13 F           4.6989    1.3681    1.4945 F       1  UNL1       -0.1659
     14 F           3.3374    2.9969    0.7160 F       1  UNL1       -0.1659
     15 F           4.7287    1.9329   -0.6833 F       1  UNL1       -0.1659
     16 C           1.5794    0.9529    0.3429 C.ar    1  UNL1       -0.0292
     17 P          -1.9018   -1.1229   -1.6993 P.3     1  UNL1        0.3596
     18 O          -3.2238   -0.6303   -2.2489 O.2     1  UNL1       -0.2562
     19 O          -1.9173   -2.8008   -1.8388 O.3     1  UNL1       -0.3224
     20 O          -0.6720   -0.3950   -2.5722 O.3     1  UNL1       -0.3224
     21 H          -2.9738    2.1931    1.2941 H       1  UNL1        0.2198
     22 H          -4.0759    1.5493   -0.9805 H       1  UNL1        0.2198
     23 H          -1.6504   -1.5385    0.6436 H       1  UNL1        0.0754
     24 H          -0.9892    1.2194    0.6906 H       1  UNL1        0.1475
     25 H           0.3913   -1.9919   -0.6248 H       1  UNL1        0.0636
     26 H           2.7892   -2.3951   -1.0001 H       1  UNL1        0.0618
     27 H           4.4219   -0.6433   -0.5074 H       1  UNL1        0.0623
     28 H           1.3158    1.9422    0.7311 H       1  UNL1        0.0641
     29 H          -2.1282   -3.1760   -0.9660 H       1  UNL1        0.2198
     30 H          -0.4046    0.4753   -2.2373 H       1  UNL1        0.2198
@<TRIPOS>BOND
     1     1     2    2
     2     2     3    1
     3     2     4    1
     4     2     5    1
     5     5     6    1
     6     6     7    1
     7     7     8   ar
     8     8     9   ar
     9     9    10   ar
    10    10    11   ar
    11    11    12    1
    12    12    13    1
    13    12    14    1
    14    12    15    1
    15    11    16   ar
    16     5    17    1
    17    17    18    2
    18    17    19    1
    19    17    20    1
    20    16     7   ar
    21     3    21    1
    22     4    22    1
    23     5    23    1
    24     6    24    1
    25     8    25    1
    26     9    26    1
    27    10    27    1
    28    16    28    1
    29    19    29    1
    30    20    30    1
