@<TRIPOS>MOLECULE
*****
 36 38 0 0 0
SMALL
GASTEIGER

@<TRIPOS>ATOM
      1 C          -5.5351    1.5002   -0.5586 C.3     1  UNL1        0.0790
      2 O          -4.7506    0.3915   -0.1281 O.3     1  UNL1       -0.4914
      3 C          -3.3648    0.4240   -0.2292 C.ar    1  UNL1        0.1635
      4 C          -2.7516    1.5371   -0.7490 C.ar    1  UNL1        0.0098
      5 C          -1.3851    1.5486   -0.8398 C.ar    1  UNL1        0.0797
      6 N          -0.7178    2.5957   -1.3331 N.ar    1  UNL1       -0.2352
      7 C           0.6186    2.6457   -1.4374 C.ar    1  UNL1        0.1187
      8 N           1.3327    1.5940   -1.0279 N.ar    1  UNL1       -0.2200
      9 C           0.7433    0.4953   -0.5172 C.ar    1  UNL1        0.1340
     10 N           1.5062   -0.6191   -0.0831 N.pl3   1  UNL1       -0.2988
     11 C           2.9233   -0.5145   -0.0858 C.ar    1  UNL1        0.0334
     12 C           3.6648   -1.6807   -0.3066 C.ar    1  UNL1       -0.0404
     13 C           5.0425   -1.6874   -0.3064 C.ar    1  UNL1       -0.0590
     14 C           5.7361   -0.5206   -0.0840 C.ar    1  UNL1       -0.0476
     15 C           5.0292    0.6391    0.1359 C.ar    1  UNL1        0.0196
     16 BR          6.0097    2.2376    0.4409 Br      1  UNL1       -0.0502
     17 C           3.6249    0.6368    0.1344 C.ar    1  UNL1       -0.0265
     18 C          -0.6293    0.4487   -0.4119 C.ar    1  UNL1        0.0441
     19 C          -1.2836   -0.6469    0.1029 C.ar    1  UNL1       -0.0038
     20 C          -2.6836   -0.6790    0.2048 C.ar    1  UNL1        0.1623
     21 O          -3.3237   -1.7906    0.7255 O.3     1  UNL1       -0.4914
     22 C          -2.5887   -2.9255    1.1694 C.3     1  UNL1        0.0790
     23 H          -5.1062    2.3878   -0.0490 H       1  UNL1        0.0660
     24 H          -5.4222    1.6116   -1.6426 H       1  UNL1        0.0660
     25 H          -6.5769    1.2950   -0.2391 H       1  UNL1        0.0660
     26 H          -3.2839    2.4045   -1.0908 H       1  UNL1        0.0677
     27 H           1.1050    3.5422   -1.8544 H       1  UNL1        0.1048
     28 H           1.0985   -1.5241    0.2398 H       1  UNL1        0.1536
     29 H           3.1707   -2.6269   -0.4868 H       1  UNL1        0.0636
     30 H           5.6270   -2.5853   -0.4764 H       1  UNL1        0.0618
     31 H           6.8328   -0.5092   -0.0809 H       1  UNL1        0.0629
     32 H           3.1403    1.5762    0.3273 H       1  UNL1        0.0647
     33 H          -0.7598   -1.5105    0.4450 H       1  UNL1        0.0663
     34 H          -1.9355   -2.6842    2.0246 H       1  UNL1        0.0660
     35 H          -3.2268   -3.7924    1.3303 H       1  UNL1        0.0660
     36 H          -1.8806   -3.2146    0.3377 H       1  UNL1        0.0660
@<TRIPOS>BOND
     1     1     2    1
     2     2     3    1
     3     3     4   ar
     4     4     5   ar
     5     5     6   ar
     6     6     7   ar
     7     7     8   ar
     8     8     9   ar
     9     9    10    1
    10    10    11    1
    11    11    12   ar
    12    12    13   ar
    13    13    14   ar
    14    14    15   ar
    15    15    16    1
    16    15    17   ar
    17     9    18   ar
    18    18    19   ar
    19    19    20   ar
    20    20    21    1
    21    21    22    1
    22    20     3   ar
    23    18     5   ar
    24    17    11   ar
    25     1    23    1
    26     1    24    1
    27     1    25    1
    28     4    26    1
    29     7    27    1
    30    10    28    1
    31    12    29    1
    32    13    30    1
    33    14    31    1
    34    17    32    1
    35    19    33    1
    36    22    34    1
    37    22    35    1
    38    22    36    1
