@<TRIPOS>MOLECULE
*****
 53 57 0 0 0
SMALL
GASTEIGER

@<TRIPOS>ATOM
      1 C           2.8141    2.7053   -0.6903 C.3     1  UNL1       -0.0443
      2 C           2.8608    1.7760    0.4989 C.3     1  UNL1        0.0454
      3 C           4.2945    1.7439    1.0314 C.3     1  UNL1        0.0660
      4 O           4.5525    0.5127    1.6358 O.3     1  UNL1       -0.3764
      5 C           4.5918   -0.5481    0.7570 C.3     1  UNL1        0.0634
      6 C           3.6165   -0.3760   -0.3953 C.3     1  UNL1        0.0373
      7 N           2.5081    0.4371    0.0245 N.pl3   1  UNL1       -0.3079
      8 C           1.1799   -0.0264   -0.0091 C.ar    1  UNL1        0.1258
      9 C           0.8457   -1.3319   -0.2630 C.ar    1  UNL1        0.0019
     10 C          -0.4858   -1.7668   -0.2960 C.ar    1  UNL1        0.0740
     11 C          -0.8207   -3.1911   -0.5756 C.3     1  UNL1        0.1293
     12 S          -2.1560   -3.3851   -1.7572 S.O2    1  UNL1       -0.0227
     13 C          -2.5062   -5.0933   -2.0473 C.3     1  UNL1        0.0555
     14 O          -3.3584   -2.7062   -1.1488 O.2     1  UNL1       -0.1737
     15 O          -1.7743   -2.6518   -3.0031 O.2     1  UNL1       -0.1737
     16 C          -0.9262   -4.1593    0.5785 C.3     1  UNL1       -0.0199
     17 C           0.1685   -4.2583   -0.4819 C.3     1  UNL1       -0.0199
     18 N          -1.4273   -0.8476   -0.0673 N.ar    1  UNL1       -0.2299
     19 C          -1.1476    0.4652    0.1906 C.ar    1  UNL1        0.1627
     20 C          -2.2513    1.3880    0.4288 C.ar    1  UNL1        0.0283
     21 C          -3.5574    0.9364    0.4112 C.ar    1  UNL1       -0.0504
     22 C          -4.6312    1.7751    0.6297 C.ar    1  UNL1       -0.0591
     23 C          -4.4315    3.1065    0.8755 C.ar    1  UNL1       -0.0378
     24 C          -3.1342    3.5878    0.8993 C.ar    1  UNL1        0.0471
     25 N          -2.6343    4.8202    1.1092 N.ar    1  UNL1       -0.3606
     26 C          -1.2981    4.7904    1.0318 C.ar    1  UNL1        0.0028
     27 C          -0.9160    3.4976    0.7630 C.ar    1  UNL1       -0.0360
     28 C          -2.0508    2.7242    0.6753 C.ar    1  UNL1        0.0103
     29 N           0.1218    0.8093    0.2074 N.ar    1  UNL1       -0.2126
     30 H           2.9359    3.7654   -0.3762 H       1  UNL1        0.0248
     31 H           1.8726    2.5872   -1.2613 H       1  UNL1        0.0248
     32 H           3.6616    2.5019   -1.3822 H       1  UNL1        0.0248
     33 H           2.1713    2.1246    1.2693 H       1  UNL1        0.0520
     34 H           5.0200    1.9859    0.2389 H       1  UNL1        0.0578
     35 H           4.3779    2.5042    1.8275 H       1  UNL1        0.0578
     36 H           5.6256   -0.7179    0.3510 H       1  UNL1        0.0575
     37 H           4.3194   -1.4659    1.3101 H       1  UNL1        0.0575
     38 H           3.3638   -1.3360   -0.8579 H       1  UNL1        0.0487
     39 H           4.1373    0.2179   -1.1944 H       1  UNL1        0.0487
     40 H           1.5969   -2.0815   -0.4451 H       1  UNL1        0.0671
     41 H          -1.8384   -5.6848   -1.3772 H       1  UNL1        0.0464
     42 H          -3.5613   -5.3078   -1.7689 H       1  UNL1        0.0464
     43 H          -2.3389   -5.3251   -3.1105 H       1  UNL1        0.0464
     44 H          -0.6615   -3.7573    1.5619 H       1  UNL1        0.0291
     45 H          -1.6503   -4.9921    0.5441 H       1  UNL1        0.0291
     46 H           0.1111   -5.0784   -1.2251 H       1  UNL1        0.0291
     47 H           1.1768   -4.1048   -0.0815 H       1  UNL1        0.0291
     48 H          -3.7006   -0.1223    0.2154 H       1  UNL1        0.0625
     49 H          -5.6494    1.3863    0.6093 H       1  UNL1        0.0618
     50 H          -5.2581    3.7723    1.0474 H       1  UNL1        0.0638
     51 H          -3.2425    5.6495    1.3015 H       1  UNL1        0.1653
     52 H          -0.6099    5.6321    1.1570 H       1  UNL1        0.0807
     53 H           0.0936    3.1129    0.6340 H       1  UNL1        0.0639
@<TRIPOS>BOND
     1     1     2    1
     2     2     3    1
     3     3     4    1
     4     4     5    1
     5     5     6    1
     6     6     7    1
     7     7     8    1
     8     8     9   ar
     9     9    10   ar
    10    10    11    1
    11    11    12    1
    12    12    13    1
    13    12    14    2
    14    12    15    2
    15    11    16    1
    16    16    17    1
    17    10    18   ar
    18    18    19   ar
    19    19    20    1
    20    20    21   ar
    21    21    22   ar
    22    22    23   ar
    23    23    24   ar
    24    24    25   ar
    25    25    26   ar
    26    26    27   ar
    27    27    28   ar
    28    19    29   ar
    29     7     2    1
    30    29     8   ar
    31    17    11    1
    32    28    20   ar
    33    28    24   ar
    34     1    30    1
    35     1    31    1
    36     1    32    1
    37     2    33    1
    38     3    34    1
    39     3    35    1
    40     5    36    1
    41     5    37    1
    42     6    38    1
    43     6    39    1
    44     9    40    1
    45    13    41    1
    46    13    42    1
    47    13    43    1
    48    16    44    1
    49    16    45    1
    50    17    46    1
    51    17    47    1
    52    21    48    1
    53    22    49    1
    54    23    50    1
    55    25    51    1
    56    26    52    1
    57    27    53    1
