
     RDKit          3D

 53 57  0  0  0  0  0  0  0  0999 V2000
    2.8141    2.7053   -0.6903 C   0  0  0  0  0  0  0  0  0  0  0  0
    2.8608    1.7760    0.4989 C   0  0  2  0  0  0  0  0  0  0  0  0
    4.2945    1.7439    1.0314 C   0  0  0  0  0  0  0  0  0  0  0  0
    4.5525    0.5127    1.6358 O   0  0  0  0  0  0  0  0  0  0  0  0
    4.5918   -0.5481    0.7570 C   0  0  0  0  0  0  0  0  0  0  0  0
    3.6165   -0.3760   -0.3953 C   0  0  0  0  0  0  0  0  0  0  0  0
    2.5081    0.4371    0.0245 N   0  0  0  0  0  0  0  0  0  0  0  0
    1.1799   -0.0264   -0.0091 C   0  0  0  0  0  0  0  0  0  0  0  0
    0.8457   -1.3319   -0.2630 C   0  0  0  0  0  0  0  0  0  0  0  0
   -0.4858   -1.7668   -0.2960 C   0  0  0  0  0  0  0  0  0  0  0  0
   -0.8207   -3.1911   -0.5756 C   0  0  0  0  0  0  0  0  0  0  0  0
   -2.1560   -3.3851   -1.7572 S   0  0  0  0  0  6  0  0  0  0  0  0
   -2.5062   -5.0933   -2.0473 C   0  0  0  0  0  0  0  0  0  0  0  0
   -3.3584   -2.7062   -1.1488 O   0  0  0  0  0  0  0  0  0  0  0  0
   -1.7743   -2.6518   -3.0031 O   0  0  0  0  0  0  0  0  0  0  0  0
   -0.9262   -4.1593    0.5785 C   0  0  0  0  0  0  0  0  0  0  0  0
    0.1685   -4.2583   -0.4819 C   0  0  0  0  0  0  0  0  0  0  0  0
   -1.4273   -0.8476   -0.0673 N   0  0  0  0  0  0  0  0  0  0  0  0
   -1.1476    0.4652    0.1906 C   0  0  0  0  0  0  0  0  0  0  0  0
   -2.2513    1.3880    0.4288 C   0  0  0  0  0  0  0  0  0  0  0  0
   -3.5574    0.9364    0.4112 C   0  0  0  0  0  0  0  0  0  0  0  0
   -4.6312    1.7751    0.6297 C   0  0  0  0  0  0  0  0  0  0  0  0
   -4.4315    3.1065    0.8755 C   0  0  0  0  0  0  0  0  0  0  0  0
   -3.1342    3.5878    0.8993 C   0  0  0  0  0  0  0  0  0  0  0  0
   -2.6343    4.8202    1.1092 N   0  0  0  0  0  0  0  0  0  0  0  0
   -1.2981    4.7904    1.0318 C   0  0  0  0  0  0  0  0  0  0  0  0
   -0.9160    3.4976    0.7630 C   0  0  0  0  0  0  0  0  0  0  0  0
   -2.0508    2.7242    0.6753 C   0  0  0  0  0  0  0  0  0  0  0  0
    0.1218    0.8093    0.2074 N   0  0  0  0  0  0  0  0  0  0  0  0
    2.9359    3.7654   -0.3762 H   0  0  0  0  0  0  0  0  0  0  0  0
    1.8726    2.5872   -1.2613 H   0  0  0  0  0  0  0  0  0  0  0  0
    3.6616    2.5019   -1.3822 H   0  0  0  0  0  0  0  0  0  0  0  0
    2.1713    2.1246    1.2693 H   0  0  0  0  0  0  0  0  0  0  0  0
    5.0200    1.9859    0.2389 H   0  0  0  0  0  0  0  0  0  0  0  0
    4.3779    2.5042    1.8275 H   0  0  0  0  0  0  0  0  0  0  0  0
    5.6256   -0.7179    0.3510 H   0  0  0  0  0  0  0  0  0  0  0  0
    4.3194   -1.4659    1.3101 H   0  0  0  0  0  0  0  0  0  0  0  0
    3.3638   -1.3360   -0.8579 H   0  0  0  0  0  0  0  0  0  0  0  0
    4.1373    0.2179   -1.1944 H   0  0  0  0  0  0  0  0  0  0  0  0
    1.5969   -2.0815   -0.4451 H   0  0  0  0  0  0  0  0  0  0  0  0
   -1.8384   -5.6848   -1.3772 H   0  0  0  0  0  0  0  0  0  0  0  0
   -3.5613   -5.3078   -1.7689 H   0  0  0  0  0  0  0  0  0  0  0  0
   -2.3389   -5.3251   -3.1105 H   0  0  0  0  0  0  0  0  0  0  0  0
   -0.6615   -3.7573    1.5619 H   0  0  0  0  0  0  0  0  0  0  0  0
   -1.6503   -4.9921    0.5441 H   0  0  0  0  0  0  0  0  0  0  0  0
    0.1111   -5.0784   -1.2251 H   0  0  0  0  0  0  0  0  0  0  0  0
    1.1768   -4.1048   -0.0815 H   0  0  0  0  0  0  0  0  0  0  0  0
   -3.7006   -0.1223    0.2154 H   0  0  0  0  0  0  0  0  0  0  0  0
   -5.6494    1.3863    0.6093 H   0  0  0  0  0  0  0  0  0  0  0  0
   -5.2581    3.7723    1.0474 H   0  0  0  0  0  0  0  0  0  0  0  0
   -3.2425    5.6495    1.3015 H   0  0  0  0  0  0  0  0  0  0  0  0
   -0.6099    5.6321    1.1570 H   0  0  0  0  0  0  0  0  0  0  0  0
    0.0936    3.1129    0.6340 H   0  0  0  0  0  0  0  0  0  0  0  0
  1  2  1  0
  2  3  1  0
  3  4  1  0
  4  5  1  0
  5  6  1  0
  6  7  1  0
  7  8  1  0
  8  9  2  0
  9 10  1  0
 10 11  1  0
 11 12  1  0
 12 13  1  0
 12 14  2  0
 12 15  2  0
 11 16  1  0
 16 17  1  0
 10 18  2  0
 18 19  1  0
 19 20  1  0
 20 21  2  0
 21 22  1  0
 22 23  2  0
 23 24  1  0
 24 25  1  0
 25 26  1  0
 26 27  2  0
 27 28  1  0
 19 29  2  0
  7  2  1  0
 29  8  1  0
 17 11  1  0
 28 20  1  0
 28 24  2  0
  1 30  1  0
  1 31  1  0
  1 32  1  0
  2 33  1  1
  3 34  1  0
  3 35  1  0
  5 36  1  0
  5 37  1  0
  6 38  1  0
  6 39  1  0
  9 40  1  0
 13 41  1  0
 13 42  1  0
 13 43  1  0
 16 44  1  0
 16 45  1  0
 17 46  1  0
 17 47  1  0
 21 48  1  0
 22 49  1  0
 23 50  1  0
 25 51  1  0
 26 52  1  0
 27 53  1  0
M  END
$$$$
