@<TRIPOS>MOLECULE
*****
 56 59 0 0 0
SMALL
GASTEIGER

@<TRIPOS>ATOM
      1 C          -7.9558   -0.9690   -1.0316 C.3     1  UNL1        0.0596
      2 S          -7.1232   -2.3396   -0.2263 S.O2    1  UNL1       -0.0059
      3 O          -7.3987   -3.5999   -0.9972 O.2     1  UNL1       -0.1696
      4 O          -7.6144   -2.4497    1.1951 O.2     1  UNL1       -0.1696
      5 C          -5.4121   -1.9656   -0.2564 C.ar    1  UNL1        0.0879
      6 C          -4.8134   -1.2647    0.7685 C.ar    1  UNL1       -0.0363
      7 C          -3.4653   -0.9687    0.7470 C.ar    1  UNL1       -0.0521
      8 C          -2.6509   -1.3622   -0.3056 C.ar    1  UNL1       -0.0143
      9 C          -1.2276   -1.0440   -0.3178 C.ar    1  UNL1        0.0244
     10 C          -0.2704   -1.9748   -0.6609 C.ar    1  UNL1       -0.0498
     11 C           1.0885   -1.6915   -0.6785 C.ar    1  UNL1       -0.0488
     12 C           1.5307   -0.4319   -0.3428 C.ar    1  UNL1        0.0405
     13 C           2.9431   -0.0840   -0.3456 C.2     1  UNL1        0.2484
     14 O           3.2702    1.0942   -0.0250 O.2     1  UNL1       -0.2699
     15 N           4.0008   -0.9609   -0.6805 N.am    1  UNL1       -0.2808
     16 C           5.3755   -0.5166   -0.6523 C.ar    1  UNL1        0.0477
     17 C           6.0043    0.0393   -1.7337 C.ar    1  UNL1       -0.0397
     18 C           7.3180    0.4349   -1.6166 C.ar    1  UNL1       -0.0600
     19 C           8.0002    0.2783   -0.4326 C.ar    1  UNL1       -0.0609
     20 C           7.3878   -0.2773    0.6644 C.ar    1  UNL1       -0.0460
     21 C           6.0621   -0.6740    0.5386 C.ar    1  UNL1        0.0800
     22 C           5.4039   -1.2619    1.6829 C.2     1  UNL1        0.3386
     23 O           6.0180   -1.4047    2.7576 O.2     1  UNL1       -0.2451
     24 O           4.0906   -1.6702    1.5956 O.3     1  UNL1       -0.4771
     25 C           0.5618    0.5119    0.0049 C.ar    1  UNL1       -0.0066
     26 C          -0.7837    0.2149    0.0176 C.ar    1  UNL1        0.1368
     27 O          -1.7498    1.1491    0.3623 O.3     1  UNL1       -0.4554
     28 C          -1.3665    2.4312    0.7090 C.ar    1  UNL1        0.1285
     29 C          -1.2720    3.3815   -0.3032 C.ar    1  UNL1       -0.0193
     30 C          -0.8917    4.6650    0.0213 C.ar    1  UNL1       -0.0583
     31 C          -0.6008    5.0424    1.3145 C.ar    1  UNL1       -0.0615
     32 C          -0.7025    4.0782    2.3027 C.ar    1  UNL1       -0.0583
     33 C          -1.0816    2.7857    2.0025 C.ar    1  UNL1       -0.0193
     34 C          -3.2650   -2.0631   -1.3241 C.ar    1  UNL1       -0.0521
     35 C          -4.6119   -2.3612   -1.3070 C.ar    1  UNL1       -0.0363
     36 H          -7.7838   -1.0907   -2.1196 H       1  UNL1        0.0468
     37 H          -9.0213   -0.9568   -0.8087 H       1  UNL1        0.0468
     38 H          -7.4969   -0.0234   -0.6932 H       1  UNL1        0.0468
     39 H          -5.4521   -0.9509    1.6034 H       1  UNL1        0.0637
     40 H          -3.0131   -0.4186    1.5589 H       1  UNL1        0.0624
     41 H          -0.5748   -2.9740   -0.9306 H       1  UNL1        0.0625
     42 H           1.8205   -2.4439   -0.9528 H       1  UNL1        0.0625
     43 H           3.7616   -1.9374   -0.9485 H       1  UNL1        0.1552
     44 H           5.4499    0.1548   -2.6595 H       1  UNL1        0.0636
     45 H           7.8075    0.8724   -2.4734 H       1  UNL1        0.0618
     46 H           9.0470    0.5907   -0.3306 H       1  UNL1        0.0618
     47 H           7.9489   -0.3880    1.5822 H       1  UNL1        0.0626
     48 H           3.6980   -2.4051    2.1797 H       1  UNL1        0.2954
     49 H           0.9128    1.4908    0.2653 H       1  UNL1        0.0662
     50 H          -1.5013    3.0939   -1.3399 H       1  UNL1        0.0654
     51 H          -0.8125    5.4143   -0.7451 H       1  UNL1        0.0619
     52 H          -0.3063    6.0607    1.5236 H       1  UNL1        0.0618
     53 H          -0.4696    4.3854    3.3296 H       1  UNL1        0.0619
     54 H          -1.1565    2.0380    2.7950 H       1  UNL1        0.0654
     55 H          -2.6205   -2.3721   -2.1526 H       1  UNL1        0.0624
     56 H          -5.0356   -2.9110   -2.1301 H       1  UNL1        0.0637
@<TRIPOS>BOND
     1     1     2    1
     2     2     3    2
     3     2     4    2
     4     2     5    1
     5     5     6   ar
     6     6     7   ar
     7     7     8   ar
     8     8     9    1
     9     9    10   ar
    10    10    11   ar
    11    11    12   ar
    12    12    13    1
    13    13    14    2
    14    13    15   am
    15    15    16    1
    16    16    17   ar
    17    17    18   ar
    18    18    19   ar
    19    19    20   ar
    20    20    21   ar
    21    21    22    1
    22    22    23    2
    23    22    24    1
    24    12    25   ar
    25    25    26   ar
    26    26    27    1
    27    27    28    1
    28    28    29   ar
    29    29    30   ar
    30    30    31   ar
    31    31    32   ar
    32    32    33   ar
    33     8    34   ar
    34    34    35   ar
    35    35     5   ar
    36    26     9   ar
    37    33    28   ar
    38    21    16   ar
    39     1    36    1
    40     1    37    1
    41     1    38    1
    42     6    39    1
    43     7    40    1
    44    10    41    1
    45    11    42    1
    46    15    43    1
    47    17    44    1
    48    18    45    1
    49    19    46    1
    50    20    47    1
    51    24    48    1
    52    25    49    1
    53    29    50    1
    54    30    51    1
    55    31    52    1
    56    32    53    1
    57    33    54    1
    58    34    55    1
    59    35    56    1
