@<TRIPOS>MOLECULE
*****
 73 76 0 0 0
SMALL
GASTEIGER

@<TRIPOS>ATOM
      1 C           6.0591    0.2624    0.0619 C.3     1  UNL1       -0.0405
      2 C           4.5659   -0.1316    0.2893 C.3     1  UNL1        0.0795
      3 C           4.3525   -1.3460   -0.5616 C.3     1  UNL1       -0.0405
      4 C           4.4295   -0.5377    1.7236 C.3     1  UNL1       -0.0405
      5 S           3.6587    1.2899   -0.1482 S.O2    1  UNL1       -0.0245
      6 O           4.2060    2.4190    0.7695 O.2     1  UNL1       -0.1738
      7 O           4.0882    1.7392   -1.5198 O.2     1  UNL1       -0.1738
      8 C           1.9126    1.2048    0.0558 C.3     1  UNL1        0.0851
      9 C           1.2862    0.1320   -0.7466 C.3     1  UNL1        0.0488
     10 C           1.4855    0.3144   -2.2188 C.3     1  UNL1       -0.0208
     11 C           0.8332   -0.7725   -3.1379 C.3     1  UNL1       -0.0482
     12 C           0.4894    0.6752   -3.2099 C.3     1  UNL1       -0.0482
     13 N          -0.0271   -0.3129   -0.3350 N.am    1  UNL1       -0.2885
     14 C          -0.1131   -1.6780    0.1829 C.2     1  UNL1        0.2228
     15 O           0.9221   -2.1582    0.7300 O.2     1  UNL1       -0.2750
     16 C          -1.3334   -2.5036    0.0960 C.3     1  UNL1        0.0550
     17 C          -1.4218   -3.3287   -1.1685 C.3     1  UNL1       -0.0507
     18 C          -1.4587   -3.4755    1.2382 C.3     1  UNL1        0.0584
     19 C          -0.3288   -4.4254    1.2826 C.2     1  UNL1        0.3057
     20 O           0.6747   -4.3253    2.0335 O.2     1  UNL1       -0.2510
     21 O          -0.2996   -5.5633    0.4439 O.3     1  UNL1       -0.4806
     22 C          -2.5710   -1.6106    0.1829 C.3     1  UNL1       -0.0299
     23 C          -2.1601   -0.2669    0.7405 C.3     1  UNL1        0.0079
     24 C          -3.3289    0.5682    1.0056 C.ar    1  UNL1       -0.0408
     25 C          -3.5127    1.1114    2.2504 C.ar    1  UNL1       -0.0582
     26 C          -4.5910    1.9028    2.5596 C.ar    1  UNL1       -0.0601
     27 C          -5.5377    2.1711    1.5858 C.ar    1  UNL1       -0.0434
     28 C          -5.3809    1.6396    0.3252 C.ar    1  UNL1        0.0412
     29 CL         -6.5740    1.9713   -0.9174 Cl      1  UNL1       -0.0835
     30 C          -4.2735    0.8371    0.0374 C.ar    1  UNL1       -0.0399
     31 C          -1.2572    0.3820   -0.3554 C.3     1  UNL1        0.0583
     32 C          -1.2681    1.8296   -0.1332 C.ar    1  UNL1       -0.0263
     33 C          -1.7553    2.7124   -1.0655 C.ar    1  UNL1       -0.0554
     34 C          -1.8120    4.0920   -0.8296 C.ar    1  UNL1       -0.0431
     35 C          -1.3665    4.5859    0.3743 C.ar    1  UNL1        0.0410
     36 CL         -1.4371    6.3071    0.6670 Cl      1  UNL1       -0.0835
     37 C          -0.8728    3.6863    1.3189 C.ar    1  UNL1       -0.0431
     38 C          -0.8289    2.3367    1.0598 C.ar    1  UNL1       -0.0554
     39 H           6.6406   -0.6454    0.2132 H       1  UNL1        0.0251
     40 H           6.2594    1.0636    0.7966 H       1  UNL1        0.0251
     41 H           6.0758    0.6310   -0.9838 H       1  UNL1        0.0251
     42 H           3.7604   -2.1393   -0.0119 H       1  UNL1        0.0251
     43 H           4.0203   -1.1707   -1.5817 H       1  UNL1        0.0251
     44 H           5.3706   -1.8581   -0.6616 H       1  UNL1        0.0251
     45 H           4.1986    0.2902    2.4124 H       1  UNL1        0.0251
     46 H           5.3895   -1.0159    2.0307 H       1  UNL1        0.0251
     47 H           3.6518   -1.3487    1.8292 H       1  UNL1        0.0251
     48 H           1.7356    0.9891    1.1282 H       1  UNL1        0.0519
     49 H           1.5651    2.2337   -0.2463 H       1  UNL1        0.0519
     50 H           1.9863   -0.7638   -0.5206 H       1  UNL1        0.0519
     51 H           2.5644    0.4676   -2.5265 H       1  UNL1        0.0319
     52 H           0.1641   -1.4698   -2.6015 H       1  UNL1        0.0269
     53 H           1.4557   -1.2360   -3.9022 H       1  UNL1        0.0269
     54 H          -0.5535    0.9343   -3.0603 H       1  UNL1        0.0269
     55 H           0.8797    1.1595   -4.1647 H       1  UNL1        0.0269
     56 H          -1.9957   -4.2543   -1.0312 H       1  UNL1        0.0240
     57 H          -1.8540   -2.6809   -1.9655 H       1  UNL1        0.0240
     58 H          -0.3812   -3.6682   -1.4464 H       1  UNL1        0.0240
     59 H          -1.5344   -2.9640    2.2222 H       1  UNL1        0.0388
     60 H          -2.4225   -4.0358    1.0484 H       1  UNL1        0.0388
     61 H           0.6137   -5.8306    0.0702 H       1  UNL1        0.2951
     62 H          -2.9844   -1.4733   -0.8234 H       1  UNL1        0.0282
     63 H          -3.3549   -2.0235    0.8386 H       1  UNL1        0.0282
     64 H          -1.5287   -0.3989    1.6159 H       1  UNL1        0.0370
     65 H          -2.7858    0.9111    3.0148 H       1  UNL1        0.0620
     66 H          -4.7020    2.3211    3.5742 H       1  UNL1        0.0618
     67 H          -6.3858    2.8036    1.8590 H       1  UNL1        0.0632
     68 H          -4.2003    0.4486   -0.9610 H       1  UNL1        0.0635
     69 H          -1.8101    0.1511   -1.2834 H       1  UNL1        0.0556
     70 H          -2.1230    2.3723   -2.0290 H       1  UNL1        0.0621
     71 H          -2.2061    4.7317   -1.6039 H       1  UNL1        0.0632
     72 H          -0.5155    4.0602    2.2792 H       1  UNL1        0.0632
     73 H          -0.4472    1.6745    1.8050 H       1  UNL1        0.0621
@<TRIPOS>BOND
     1     1     2    1
     2     2     3    1
     3     2     4    1
     4     2     5    1
     5     5     6    2
     6     5     7    2
     7     5     8    1
     8     8     9    1
     9     9    10    1
    10    10    11    1
    11    11    12    1
    12     9    13    1
    13    13    14   am
    14    14    15    2
    15    14    16    1
    16    16    17    1
    17    16    18    1
    18    18    19    1
    19    19    20    2
    20    19    21    1
    21    16    22    1
    22    22    23    1
    23    23    24    1
    24    24    25   ar
    25    25    26   ar
    26    26    27   ar
    27    27    28   ar
    28    28    29    1
    29    28    30   ar
    30    23    31    1
    31    31    32    1
    32    32    33   ar
    33    33    34   ar
    34    34    35   ar
    35    35    36    1
    36    35    37   ar
    37    37    38   ar
    38    12    10    1
    39    31    13    1
    40    38    32   ar
    41    30    24   ar
    42     1    39    1
    43     1    40    1
    44     1    41    1
    45     3    42    1
    46     3    43    1
    47     3    44    1
    48     4    45    1
    49     4    46    1
    50     4    47    1
    51     8    48    1
    52     8    49    1
    53     9    50    1
    54    10    51    1
    55    11    52    1
    56    11    53    1
    57    12    54    1
    58    12    55    1
    59    17    56    1
    60    17    57    1
    61    17    58    1
    62    18    59    1
    63    18    60    1
    64    21    61    1
    65    22    62    1
    66    22    63    1
    67    23    64    1
    68    25    65    1
    69    26    66    1
    70    27    67    1
    71    30    68    1
    72    31    69    1
    73    33    70    1
    74    34    71    1
    75    37    72    1
    76    38    73    1
