
     RDKit          3D

 73 76  0  0  0  0  0  0  0  0999 V2000
    6.0591    0.2624    0.0619 C   0  0  0  0  0  0  0  0  0  0  0  0
    4.5659   -0.1316    0.2893 C   0  0  0  0  0  0  0  0  0  0  0  0
    4.3525   -1.3460   -0.5616 C   0  0  0  0  0  0  0  0  0  0  0  0
    4.4295   -0.5377    1.7236 C   0  0  0  0  0  0  0  0  0  0  0  0
    3.6587    1.2899   -0.1482 S   0  0  0  0  0  6  0  0  0  0  0  0
    4.2060    2.4190    0.7695 O   0  0  0  0  0  0  0  0  0  0  0  0
    4.0882    1.7392   -1.5198 O   0  0  0  0  0  0  0  0  0  0  0  0
    1.9126    1.2048    0.0558 C   0  0  0  0  0  0  0  0  0  0  0  0
    1.2862    0.1320   -0.7466 C   0  0  2  0  0  0  0  0  0  0  0  0
    1.4855    0.3144   -2.2188 C   0  0  0  0  0  0  0  0  0  0  0  0
    0.8332   -0.7725   -3.1379 C   0  0  0  0  0  0  0  0  0  0  0  0
    0.4894    0.6752   -3.2099 C   0  0  0  0  0  0  0  0  0  0  0  0
   -0.0271   -0.3129   -0.3350 N   0  0  0  0  0  0  0  0  0  0  0  0
   -0.1131   -1.6780    0.1829 C   0  0  0  0  0  0  0  0  0  0  0  0
    0.9221   -2.1582    0.7300 O   0  0  0  0  0  0  0  0  0  0  0  0
   -1.3334   -2.5036    0.0960 C   0  0  1  0  0  0  0  0  0  0  0  0
   -1.4218   -3.3287   -1.1685 C   0  0  0  0  0  0  0  0  0  0  0  0
   -1.4587   -3.4755    1.2382 C   0  0  0  0  0  0  0  0  0  0  0  0
   -0.3288   -4.4254    1.2826 C   0  0  0  0  0  0  0  0  0  0  0  0
    0.6747   -4.3253    2.0335 O   0  0  0  0  0  0  0  0  0  0  0  0
   -0.2996   -5.5633    0.4439 O   0  0  0  0  0  0  0  0  0  0  0  0
   -2.5710   -1.6106    0.1829 C   0  0  0  0  0  0  0  0  0  0  0  0
   -2.1601   -0.2669    0.7405 C   0  0  2  0  0  0  0  0  0  0  0  0
   -3.3289    0.5682    1.0056 C   0  0  0  0  0  0  0  0  0  0  0  0
   -3.5127    1.1114    2.2504 C   0  0  0  0  0  0  0  0  0  0  0  0
   -4.5910    1.9028    2.5596 C   0  0  0  0  0  0  0  0  0  0  0  0
   -5.5377    2.1711    1.5858 C   0  0  0  0  0  0  0  0  0  0  0  0
   -5.3809    1.6396    0.3252 C   0  0  0  0  0  0  0  0  0  0  0  0
   -6.5740    1.9713   -0.9174 Cl  0  0  0  0  0  0  0  0  0  0  0  0
   -4.2735    0.8371    0.0374 C   0  0  0  0  0  0  0  0  0  0  0  0
   -1.2572    0.3820   -0.3554 C   0  0  1  0  0  0  0  0  0  0  0  0
   -1.2681    1.8296   -0.1332 C   0  0  0  0  0  0  0  0  0  0  0  0
   -1.7553    2.7124   -1.0655 C   0  0  0  0  0  0  0  0  0  0  0  0
   -1.8120    4.0920   -0.8296 C   0  0  0  0  0  0  0  0  0  0  0  0
   -1.3665    4.5859    0.3743 C   0  0  0  0  0  0  0  0  0  0  0  0
   -1.4371    6.3071    0.6670 Cl  0  0  0  0  0  0  0  0  0  0  0  0
   -0.8728    3.6863    1.3189 C   0  0  0  0  0  0  0  0  0  0  0  0
   -0.8289    2.3367    1.0598 C   0  0  0  0  0  0  0  0  0  0  0  0
    6.6406   -0.6454    0.2132 H   0  0  0  0  0  0  0  0  0  0  0  0
    6.2594    1.0636    0.7966 H   0  0  0  0  0  0  0  0  0  0  0  0
    6.0758    0.6310   -0.9838 H   0  0  0  0  0  0  0  0  0  0  0  0
    3.7604   -2.1393   -0.0119 H   0  0  0  0  0  0  0  0  0  0  0  0
    4.0203   -1.1707   -1.5817 H   0  0  0  0  0  0  0  0  0  0  0  0
    5.3706   -1.8581   -0.6616 H   0  0  0  0  0  0  0  0  0  0  0  0
    4.1986    0.2902    2.4124 H   0  0  0  0  0  0  0  0  0  0  0  0
    5.3895   -1.0159    2.0307 H   0  0  0  0  0  0  0  0  0  0  0  0
    3.6518   -1.3487    1.8292 H   0  0  0  0  0  0  0  0  0  0  0  0
    1.7356    0.9891    1.1282 H   0  0  0  0  0  0  0  0  0  0  0  0
    1.5651    2.2337   -0.2463 H   0  0  0  0  0  0  0  0  0  0  0  0
    1.9863   -0.7638   -0.5206 H   0  0  0  0  0  0  0  0  0  0  0  0
    2.5644    0.4676   -2.5265 H   0  0  0  0  0  0  0  0  0  0  0  0
    0.1641   -1.4698   -2.6015 H   0  0  0  0  0  0  0  0  0  0  0  0
    1.4557   -1.2360   -3.9022 H   0  0  0  0  0  0  0  0  0  0  0  0
   -0.5535    0.9343   -3.0603 H   0  0  0  0  0  0  0  0  0  0  0  0
    0.8797    1.1595   -4.1647 H   0  0  0  0  0  0  0  0  0  0  0  0
   -1.9957   -4.2543   -1.0312 H   0  0  0  0  0  0  0  0  0  0  0  0
   -1.8540   -2.6809   -1.9655 H   0  0  0  0  0  0  0  0  0  0  0  0
   -0.3812   -3.6682   -1.4464 H   0  0  0  0  0  0  0  0  0  0  0  0
   -1.5344   -2.9640    2.2222 H   0  0  0  0  0  0  0  0  0  0  0  0
   -2.4225   -4.0358    1.0484 H   0  0  0  0  0  0  0  0  0  0  0  0
    0.6137   -5.8306    0.0702 H   0  0  0  0  0  0  0  0  0  0  0  0
   -2.9844   -1.4733   -0.8234 H   0  0  0  0  0  0  0  0  0  0  0  0
   -3.3549   -2.0235    0.8386 H   0  0  0  0  0  0  0  0  0  0  0  0
   -1.5287   -0.3989    1.6159 H   0  0  0  0  0  0  0  0  0  0  0  0
   -2.7858    0.9111    3.0148 H   0  0  0  0  0  0  0  0  0  0  0  0
   -4.7020    2.3211    3.5742 H   0  0  0  0  0  0  0  0  0  0  0  0
   -6.3858    2.8036    1.8590 H   0  0  0  0  0  0  0  0  0  0  0  0
   -4.2003    0.4486   -0.9610 H   0  0  0  0  0  0  0  0  0  0  0  0
   -1.8101    0.1511   -1.2834 H   0  0  0  0  0  0  0  0  0  0  0  0
   -2.1230    2.3723   -2.0290 H   0  0  0  0  0  0  0  0  0  0  0  0
   -2.2061    4.7317   -1.6039 H   0  0  0  0  0  0  0  0  0  0  0  0
   -0.5155    4.0602    2.2792 H   0  0  0  0  0  0  0  0  0  0  0  0
   -0.4472    1.6745    1.8050 H   0  0  0  0  0  0  0  0  0  0  0  0
  1  2  1  0
  2  3  1  0
  2  4  1  0
  2  5  1  0
  5  6  2  0
  5  7  2  0
  5  8  1  0
  8  9  1  0
  9 10  1  0
 10 11  1  0
 11 12  1  0
  9 13  1  0
 13 14  1  0
 14 15  2  0
 14 16  1  0
 16 17  1  6
 16 18  1  0
 18 19  1  0
 19 20  2  0
 19 21  1  0
 16 22  1  0
 22 23  1  0
 23 24  1  0
 24 25  2  0
 25 26  1  0
 26 27  2  0
 27 28  1  0
 28 29  1  0
 28 30  2  0
 23 31  1  0
 31 32  1  0
 32 33  2  0
 33 34  1  0
 34 35  2  0
 35 36  1  0
 35 37  1  0
 37 38  2  0
 12 10  1  0
 31 13  1  0
 38 32  1  0
 30 24  1  0
  1 39  1  0
  1 40  1  0
  1 41  1  0
  3 42  1  0
  3 43  1  0
  3 44  1  0
  4 45  1  0
  4 46  1  0
  4 47  1  0
  8 48  1  0
  8 49  1  0
  9 50  1  1
 10 51  1  0
 11 52  1  0
 11 53  1  0
 12 54  1  0
 12 55  1  0
 17 56  1  0
 17 57  1  0
 17 58  1  0
 18 59  1  0
 18 60  1  0
 21 61  1  0
 22 62  1  0
 22 63  1  0
 23 64  1  1
 25 65  1  0
 26 66  1  0
 27 67  1  0
 30 68  1  0
 31 69  1  6
 33 70  1  0
 34 71  1  0
 37 72  1  0
 38 73  1  0
M  END
$$$$
