@<TRIPOS>MOLECULE
*****
 47 49 0 0 0
SMALL
GASTEIGER

@<TRIPOS>ATOM
      1 C           4.5400   -1.8083   -0.8322 C.3     1  UNL1       -0.0499
      2 C           4.4674   -0.3638   -0.4792 C.3     1  UNL1        0.0020
      3 C           5.4485    0.0249    0.6054 C.3     1  UNL1       -0.0499
      4 N           3.1462    0.1243   -0.2241 N.3     1  UNL1       -0.3138
      5 C           2.4359   -0.4866    0.8539 C.3     1  UNL1       -0.0038
      6 C           1.0957    0.1421    1.1833 C.3     1  UNL1       -0.0389
      7 C           0.2176    0.0689    0.0045 C.3     1  UNL1       -0.0297
      8 C          -1.1379    0.5914    0.0754 C.3     1  UNL1        0.0975
      9 C          -1.0427    2.0643    0.4185 C.2     1  UNL1        0.2254
     10 N          -0.7571    2.5011    1.7422 N.am    1  UNL1       -0.3283
     11 O          -1.1742    3.1266   -0.2791 O.2     1  UNL1       -0.2747
     12 C          -2.1775    0.0661    0.9034 C.ar    1  UNL1       -0.0204
     13 C          -2.2885   -0.2443    2.2497 C.ar    1  UNL1       -0.0567
     14 C          -3.4342   -0.7468    2.8175 C.ar    1  UNL1       -0.0614
     15 C          -4.5574   -0.9712    2.0498 C.ar    1  UNL1       -0.0612
     16 C          -4.5225   -0.6868    0.7003 C.ar    1  UNL1       -0.0537
     17 C          -3.3397   -0.1798    0.1733 C.ar    1  UNL1       -0.0131
     18 C          -3.1171    0.1847   -1.2404 C.ar    1  UNL1       -0.0131
     19 C          -3.8708    0.1663   -2.3975 C.ar    1  UNL1       -0.0537
     20 C          -3.2714    0.6143   -3.5826 C.ar    1  UNL1       -0.0612
     21 C          -1.9638    1.0565   -3.5699 C.ar    1  UNL1       -0.0614
     22 C          -1.2167    1.0724   -2.4122 C.ar    1  UNL1       -0.0567
     23 C          -1.8099    0.6331   -1.2576 C.ar    1  UNL1       -0.0204
     24 H           4.3983   -1.9168   -1.9489 H       1  UNL1        0.0245
     25 H           3.7636   -2.4252   -0.3847 H       1  UNL1        0.0245
     26 H           5.5555   -2.2234   -0.6357 H       1  UNL1        0.0245
     27 H           4.8098    0.1983   -1.4023 H       1  UNL1        0.0455
     28 H           4.8991    0.6138    1.3970 H       1  UNL1        0.0245
     29 H           5.9214   -0.8311    1.0907 H       1  UNL1        0.0245
     30 H           6.2260    0.7137    0.2214 H       1  UNL1        0.0245
     31 H           2.6358    0.0627   -1.1411 H       1  UNL1        0.1222
     32 H           2.2838   -1.5768    0.5720 H       1  UNL1        0.0424
     33 H           3.0880   -0.5592    1.7546 H       1  UNL1        0.0424
     34 H           0.7302   -0.4336    2.0632 H       1  UNL1        0.0278
     35 H           1.3269    1.2029    1.4553 H       1  UNL1        0.0278
     36 H           0.1571   -1.0089   -0.2968 H       1  UNL1        0.0282
     37 H           0.7530    0.5591   -0.8392 H       1  UNL1        0.0282
     38 H          -0.2584    2.7007    2.6200 H       1  UNL1        0.1450
     39 H          -1.3651    2.9599    2.4634 H       1  UNL1        0.1450
     40 H          -1.4730   -0.1075    2.9443 H       1  UNL1        0.0621
     41 H          -3.5749   -1.0038    3.8521 H       1  UNL1        0.0618
     42 H          -5.4901   -1.3633    2.4347 H       1  UNL1        0.0618
     43 H          -5.3940   -0.8604    0.0858 H       1  UNL1        0.0624
     44 H          -4.8809   -0.1914   -2.3281 H       1  UNL1        0.0624
     45 H          -3.9474    0.5538   -4.4140 H       1  UNL1        0.0618
     46 H          -1.6370    1.3731   -4.5688 H       1  UNL1        0.0618
     47 H          -0.1977    1.4368   -2.4975 H       1  UNL1        0.0621
@<TRIPOS>BOND
     1     1     2    1
     2     2     3    1
     3     2     4    1
     4     4     5    1
     5     5     6    1
     6     6     7    1
     7     7     8    1
     8     8     9    1
     9     9    10   am
    10     9    11    2
    11     8    12    1
    12    12    13   ar
    13    13    14   ar
    14    14    15   ar
    15    15    16   ar
    16    16    17   ar
    17    17    18    1
    18    18    19   ar
    19    19    20   ar
    20    20    21   ar
    21    21    22   ar
    22    22    23   ar
    23    23     8    1
    24    17    12   ar
    25    23    18   ar
    26     1    24    1
    27     1    25    1
    28     1    26    1
    29     2    27    1
    30     3    28    1
    31     3    29    1
    32     3    30    1
    33     4    31    1
    34     5    32    1
    35     5    33    1
    36     6    34    1
    37     6    35    1
    38     7    36    1
    39     7    37    1
    40    10    38    1
    41    10    39    1
    42    13    40    1
    43    14    41    1
    44    15    42    1
    45    16    43    1
    46    19    44    1
    47    20    45    1
    48    21    46    1
    49    22    47    1
