
     RDKit          3D

 47 49  0  0  0  0  0  0  0  0999 V2000
    4.5400   -1.8083   -0.8322 C   0  0  0  0  0  0  0  0  0  0  0  0
    4.4674   -0.3638   -0.4792 C   0  0  0  0  0  0  0  0  0  0  0  0
    5.4485    0.0249    0.6054 C   0  0  0  0  0  0  0  0  0  0  0  0
    3.1462    0.1243   -0.2241 N   0  0  0  0  0  0  0  0  0  0  0  0
    2.4359   -0.4866    0.8539 C   0  0  0  0  0  0  0  0  0  0  0  0
    1.0957    0.1421    1.1833 C   0  0  0  0  0  0  0  0  0  0  0  0
    0.2176    0.0689    0.0045 C   0  0  0  0  0  0  0  0  0  0  0  0
   -1.1379    0.5914    0.0754 C   0  0  0  0  0  0  0  0  0  0  0  0
   -1.0427    2.0643    0.4185 C   0  0  0  0  0  0  0  0  0  0  0  0
   -0.7571    2.5011    1.7422 N   0  0  0  0  0  0  0  0  0  0  0  0
   -1.1742    3.1266   -0.2791 O   0  0  0  0  0  0  0  0  0  0  0  0
   -2.1775    0.0661    0.9034 C   0  0  0  0  0  0  0  0  0  0  0  0
   -2.2885   -0.2443    2.2497 C   0  0  0  0  0  0  0  0  0  0  0  0
   -3.4342   -0.7468    2.8175 C   0  0  0  0  0  0  0  0  0  0  0  0
   -4.5574   -0.9712    2.0498 C   0  0  0  0  0  0  0  0  0  0  0  0
   -4.5225   -0.6868    0.7003 C   0  0  0  0  0  0  0  0  0  0  0  0
   -3.3397   -0.1798    0.1733 C   0  0  0  0  0  0  0  0  0  0  0  0
   -3.1171    0.1847   -1.2404 C   0  0  0  0  0  0  0  0  0  0  0  0
   -3.8708    0.1663   -2.3975 C   0  0  0  0  0  0  0  0  0  0  0  0
   -3.2714    0.6143   -3.5826 C   0  0  0  0  0  0  0  0  0  0  0  0
   -1.9638    1.0565   -3.5699 C   0  0  0  0  0  0  0  0  0  0  0  0
   -1.2167    1.0724   -2.4122 C   0  0  0  0  0  0  0  0  0  0  0  0
   -1.8099    0.6331   -1.2576 C   0  0  0  0  0  0  0  0  0  0  0  0
    4.3983   -1.9168   -1.9489 H   0  0  0  0  0  0  0  0  0  0  0  0
    3.7636   -2.4252   -0.3847 H   0  0  0  0  0  0  0  0  0  0  0  0
    5.5555   -2.2234   -0.6357 H   0  0  0  0  0  0  0  0  0  0  0  0
    4.8098    0.1983   -1.4023 H   0  0  0  0  0  0  0  0  0  0  0  0
    4.8991    0.6138    1.3970 H   0  0  0  0  0  0  0  0  0  0  0  0
    5.9214   -0.8311    1.0907 H   0  0  0  0  0  0  0  0  0  0  0  0
    6.2260    0.7137    0.2214 H   0  0  0  0  0  0  0  0  0  0  0  0
    2.6358    0.0627   -1.1411 H   0  0  0  0  0  0  0  0  0  0  0  0
    2.2838   -1.5768    0.5720 H   0  0  0  0  0  0  0  0  0  0  0  0
    3.0880   -0.5592    1.7546 H   0  0  0  0  0  0  0  0  0  0  0  0
    0.7302   -0.4336    2.0632 H   0  0  0  0  0  0  0  0  0  0  0  0
    1.3269    1.2029    1.4553 H   0  0  0  0  0  0  0  0  0  0  0  0
    0.1571   -1.0089   -0.2968 H   0  0  0  0  0  0  0  0  0  0  0  0
    0.7530    0.5591   -0.8392 H   0  0  0  0  0  0  0  0  0  0  0  0
   -0.2584    2.7007    2.6200 H   0  0  0  0  0  0  0  0  0  0  0  0
   -1.3651    2.9599    2.4634 H   0  0  0  0  0  0  0  0  0  0  0  0
   -1.4730   -0.1075    2.9443 H   0  0  0  0  0  0  0  0  0  0  0  0
   -3.5749   -1.0038    3.8521 H   0  0  0  0  0  0  0  0  0  0  0  0
   -5.4901   -1.3633    2.4347 H   0  0  0  0  0  0  0  0  0  0  0  0
   -5.3940   -0.8604    0.0858 H   0  0  0  0  0  0  0  0  0  0  0  0
   -4.8809   -0.1914   -2.3281 H   0  0  0  0  0  0  0  0  0  0  0  0
   -3.9474    0.5538   -4.4140 H   0  0  0  0  0  0  0  0  0  0  0  0
   -1.6370    1.3731   -4.5688 H   0  0  0  0  0  0  0  0  0  0  0  0
   -0.1977    1.4368   -2.4975 H   0  0  0  0  0  0  0  0  0  0  0  0
  1  2  1  0
  2  3  1  0
  2  4  1  0
  4  5  1  0
  5  6  1  0
  6  7  1  0
  7  8  1  0
  8  9  1  0
  9 10  1  0
  9 11  2  0
  8 12  1  0
 12 13  2  0
 13 14  1  0
 14 15  2  0
 15 16  1  0
 16 17  2  0
 17 18  1  0
 18 19  2  0
 19 20  1  0
 20 21  2  0
 21 22  1  0
 22 23  2  0
 23  8  1  0
 17 12  1  0
 23 18  1  0
  1 24  1  0
  1 25  1  0
  1 26  1  0
  2 27  1  0
  3 28  1  0
  3 29  1  0
  3 30  1  0
  4 31  1  0
  5 32  1  0
  5 33  1  0
  6 34  1  0
  6 35  1  0
  7 36  1  0
  7 37  1  0
 10 38  1  0
 10 39  1  0
 13 40  1  0
 14 41  1  0
 15 42  1  0
 16 43  1  0
 19 44  1  0
 20 45  1  0
 21 46  1  0
 22 47  1  0
M  END
$$$$
