@<TRIPOS>MOLECULE
*****
 49 51 0 0 0
SMALL
GASTEIGER

@<TRIPOS>ATOM
      1 C          -3.2980   -2.8646    1.2062 C.3     1  UNL1       -0.0157
      2 N          -3.6987   -1.7799    0.3558 N.3     1  UNL1       -0.3165
      3 C          -3.0036   -0.5397    0.6541 C.3     1  UNL1        0.0237
      4 C          -1.5584   -0.7618    0.2530 C.3     1  UNL1        0.0901
      5 O          -1.5690   -1.0579   -1.0956 O.3     1  UNL1       -0.3884
      6 C          -0.7149    0.4620    0.4930 C.3     1  UNL1        0.0759
      7 C          -1.3116    1.6442   -0.1842 C.ar    1  UNL1       -0.0246
      8 C          -1.2320    1.8740   -1.5393 C.ar    1  UNL1       -0.0567
      9 C          -1.8209    3.0011   -2.0685 C.ar    1  UNL1       -0.0614
     10 C          -2.4921    3.9194   -1.3017 C.ar    1  UNL1       -0.0617
     11 C          -2.5742    3.6936    0.0573 C.ar    1  UNL1       -0.0614
     12 C          -1.9918    2.5747    0.5946 C.ar    1  UNL1       -0.0567
     13 N           0.6390    0.1858    0.0688 N.pl3   1  UNL1       -0.3170
     14 C           1.1975   -0.2214   -1.1982 C.3     1  UNL1        0.0222
     15 C           2.3700   -1.1253   -0.8191 C.3     1  UNL1        0.0076
     16 C           3.4049   -1.0654   -1.8922 C.3     1  UNL1       -0.0543
     17 C           1.8544   -2.5134   -0.5715 C.3     1  UNL1       -0.0543
     18 C           2.8232   -0.4755    0.4557 C.ar    1  UNL1       -0.0164
     19 C           4.0117   -0.5191    1.1502 C.ar    1  UNL1       -0.0561
     20 C           4.1767    0.1808    2.3098 C.ar    1  UNL1       -0.0587
     21 C           3.1697    0.9590    2.8377 C.ar    1  UNL1       -0.0246
     22 C           1.9666    0.9960    2.1248 C.ar    1  UNL1        0.1446
     23 F           0.9778    1.7616    2.6343 F       1  UNL1       -0.2035
     24 C           1.7906    0.2922    0.9525 C.ar    1  UNL1        0.0697
     25 H          -3.0752   -2.5886    2.2364 H       1  UNL1        0.0388
     26 H          -2.3801   -3.3762    0.7927 H       1  UNL1        0.0388
     27 H          -4.1040   -3.6477    1.1246 H       1  UNL1        0.0388
     28 H          -3.5810   -2.0753   -0.6363 H       1  UNL1        0.1217
     29 H          -3.4962    0.2539    0.0458 H       1  UNL1        0.0450
     30 H          -3.1212   -0.3656    1.7551 H       1  UNL1        0.0450
     31 H          -1.1608   -1.5693    0.8916 H       1  UNL1        0.0628
     32 H          -2.3493   -0.7098   -1.5649 H       1  UNL1        0.2099
     33 H          -0.7159    0.6999    1.5999 H       1  UNL1        0.0576
     34 H          -0.7106    1.1664   -2.1551 H       1  UNL1        0.0621
     35 H          -1.7613    3.1905   -3.1455 H       1  UNL1        0.0618
     36 H          -2.9448    4.8000   -1.7731 H       1  UNL1        0.0618
     37 H          -3.1120    4.4353    0.6537 H       1  UNL1        0.0618
     38 H          -2.0947    2.4539    1.6810 H       1  UNL1        0.0621
     39 H           0.5480   -0.8057   -1.8405 H       1  UNL1        0.0472
     40 H           1.5845    0.6993   -1.6896 H       1  UNL1        0.0472
     41 H           3.5781   -2.1122   -2.2627 H       1  UNL1        0.0239
     42 H           3.0611   -0.4951   -2.8026 H       1  UNL1        0.0239
     43 H           4.3268   -0.5726   -1.5563 H       1  UNL1        0.0239
     44 H           1.3493   -2.5165    0.4213 H       1  UNL1        0.0239
     45 H           1.1306   -2.7901   -1.3476 H       1  UNL1        0.0239
     46 H           2.6892   -3.2205   -0.5399 H       1  UNL1        0.0239
     47 H           4.8141   -1.1334    0.7403 H       1  UNL1        0.0621
     48 H           5.1235    0.1346    2.8486 H       1  UNL1        0.0619
     49 H           3.2851    1.5243    3.7607 H       1  UNL1        0.0647
@<TRIPOS>BOND
     1     1     2    1
     2     2     3    1
     3     3     4    1
     4     4     5    1
     5     4     6    1
     6     6     7    1
     7     7     8   ar
     8     8     9   ar
     9     9    10   ar
    10    10    11   ar
    11    11    12   ar
    12     6    13    1
    13    13    14    1
    14    14    15    1
    15    15    16    1
    16    15    17    1
    17    15    18    1
    18    18    19   ar
    19    19    20   ar
    20    20    21   ar
    21    21    22   ar
    22    22    23    1
    23    22    24   ar
    24    12     7   ar
    25    24    13    1
    26    24    18   ar
    27     1    25    1
    28     1    26    1
    29     1    27    1
    30     2    28    1
    31     3    29    1
    32     3    30    1
    33     4    31    1
    34     5    32    1
    35     6    33    1
    36     8    34    1
    37     9    35    1
    38    10    36    1
    39    11    37    1
    40    12    38    1
    41    14    39    1
    42    14    40    1
    43    16    41    1
    44    16    42    1
    45    16    43    1
    46    17    44    1
    47    17    45    1
    48    17    46    1
    49    19    47    1
    50    20    48    1
    51    21    49    1
