@<TRIPOS>MOLECULE
*****
 50 50 0 0 0
SMALL
GASTEIGER

@<TRIPOS>ATOM
      1 C          -0.2528   -0.8406   -3.3985 C.3     1  UNL1       -0.0397
      2 C           0.5442   -0.7946   -2.1439 C.2     1  UNL1       -0.0504
      3 C          -0.0792   -0.0485   -1.0429 C.2     1  UNL1       -0.0586
      4 C          -1.2046    0.5986   -0.9335 C.2     1  UNL1       -0.0579
      5 C          -2.0577    1.3785   -0.0722 C.2     1  UNL1       -0.0427
      6 C          -1.8899    1.7584    1.1861 C.2     1  UNL1       -0.0689
      7 C          -0.6262    1.3274    1.8527 C.3     1  UNL1       -0.0432
      8 C          -2.9164    2.5797    1.9084 C.3     1  UNL1       -0.0314
      9 C          -4.2893    2.0463    1.6768 C.3     1  UNL1       -0.0486
     10 C          -4.4661    1.4580    0.3175 C.3     1  UNL1       -0.0436
     11 C          -3.3615    1.8697   -0.6249 C.3     1  UNL1       -0.0099
     12 C          -3.4102    3.3502   -0.8142 C.3     1  UNL1       -0.0558
     13 C          -3.6686    1.1826   -1.9475 C.3     1  UNL1       -0.0558
     14 C           1.7110   -1.3241   -1.8746 C.2     1  UNL1       -0.0588
     15 C           2.4755   -1.2678   -0.6390 C.2     1  UNL1       -0.0613
     16 C           3.6396   -1.8721   -0.5636 C.2     1  UNL1       -0.0586
     17 C           4.4742   -1.8706    0.6289 C.2     1  UNL1       -0.0437
     18 C           4.2135   -1.2305    1.9400 C.3     1  UNL1       -0.0395
     19 C           5.6418   -2.5232    0.5833 C.2     1  UNL1        0.0252
     20 C           6.5847   -2.6151    1.6837 C.2     1  UNL1        0.3298
     21 O           7.7836   -3.2917    1.6306 O.3     1  UNL1       -0.4775
     22 O           6.4487   -2.1011    2.8239 O.2     1  UNL1       -0.2458
     23 H           0.2939   -1.2597   -4.2519 H       1  UNL1        0.0278
     24 H          -0.6392    0.1629   -3.7051 H       1  UNL1        0.0278
     25 H          -1.0949   -1.5653   -3.2108 H       1  UNL1        0.0278
     26 H           0.3951    0.0639   -0.0590 H       1  UNL1        0.0620
     27 H          -1.6214    0.4492   -1.9473 H       1  UNL1        0.0621
     28 H          -0.7263    1.7482    2.9060 H       1  UNL1        0.0275
     29 H           0.2734    1.8004    1.4611 H       1  UNL1        0.0275
     30 H          -0.5669    0.2390    2.0260 H       1  UNL1        0.0275
     31 H          -2.7753    3.6530    1.7404 H       1  UNL1        0.0310
     32 H          -2.6946    2.3941    3.0064 H       1  UNL1        0.0310
     33 H          -4.5910    1.2704    2.4143 H       1  UNL1        0.0269
     34 H          -5.0046    2.8938    1.8037 H       1  UNL1        0.0269
     35 H          -5.4529    1.7500   -0.1105 H       1  UNL1        0.0274
     36 H          -4.4921    0.3310    0.3892 H       1  UNL1        0.0274
     37 H          -4.1823    3.8470   -0.1658 H       1  UNL1        0.0238
     38 H          -2.4512    3.8664   -0.6006 H       1  UNL1        0.0238
     39 H          -3.6771    3.5689   -1.8815 H       1  UNL1        0.0238
     40 H          -3.0751    1.5957   -2.7616 H       1  UNL1        0.0238
     41 H          -4.7509    1.4182   -2.1475 H       1  UNL1        0.0238
     42 H          -3.5914    0.0996   -1.7922 H       1  UNL1        0.0238
     43 H           2.1149   -1.8697   -2.7294 H       1  UNL1        0.0620
     44 H           2.1779   -0.7617    0.2631 H       1  UNL1        0.0618
     45 H           3.9806   -2.3959   -1.4446 H       1  UNL1        0.0620
     46 H           4.1377   -2.0347    2.7141 H       1  UNL1        0.0278
     47 H           4.9476   -0.4380    2.1969 H       1  UNL1        0.0278
     48 H           3.2271   -0.7245    1.9732 H       1  UNL1        0.0278
     49 H           5.9231   -3.0298   -0.3335 H       1  UNL1        0.0691
     50 H           8.6218   -2.9234    2.0701 H       1  UNL1        0.2954
@<TRIPOS>BOND
     1     1     2    1
     2     2     3    1
     3     3     4    2
     4     4     5    1
     5     5     6    2
     6     6     7    1
     7     6     8    1
     8     8     9    1
     9     9    10    1
    10    10    11    1
    11    11    12    1
    12    11    13    1
    13     2    14    2
    14    14    15    1
    15    15    16    2
    16    16    17    1
    17    17    18    1
    18    17    19    2
    19    19    20    1
    20    20    21    1
    21    20    22    2
    22    11     5    1
    23     1    23    1
    24     1    24    1
    25     1    25    1
    26     3    26    1
    27     4    27    1
    28     7    28    1
    29     7    29    1
    30     7    30    1
    31     8    31    1
    32     8    32    1
    33     9    33    1
    34     9    34    1
    35    10    35    1
    36    10    36    1
    37    12    37    1
    38    12    38    1
    39    12    39    1
    40    13    40    1
    41    13    41    1
    42    13    42    1
    43    14    43    1
    44    15    44    1
    45    16    45    1
    46    18    46    1
    47    18    47    1
    48    18    48    1
    49    19    49    1
    50    21    50    1
