@<TRIPOS>MOLECULE
*****
 56 57 0 0 0
SMALL
GASTEIGER

@<TRIPOS>ATOM
      1 C          -6.1605    2.0278   -1.5242 C.3     1  UNL1       -0.0653
      2 C          -5.2314    2.2196   -0.3557 C.3     1  UNL1       -0.0559
      3 C          -4.6411    0.8973    0.0872 C.3     1  UNL1       -0.0533
      4 C          -3.7069    1.0676    1.2600 C.3     1  UNL1       -0.0519
      5 C          -3.1269   -0.2413    1.6984 C.3     1  UNL1       -0.0402
      6 C          -2.3373   -0.9435    0.6469 C.3     1  UNL1       -0.0010
      7 N          -1.2181   -0.2153    0.1630 N.3     1  UNL1       -0.2991
      8 C          -0.1375   -0.0230    1.0702 C.3     1  UNL1        0.0134
      9 C           0.7497   -1.2440    1.0288 C.3     1  UNL1        0.0341
     10 N           1.1064   -1.7194   -0.2321 N.3     1  UNL1       -0.1622
     11 S           2.7326   -1.9539   -0.5883 S.O2    1  UNL1        0.0616
     12 O           2.8676   -2.5597   -1.9497 O.2     1  UNL1       -0.1528
     13 O           3.3829   -2.9193    0.3748 O.2     1  UNL1       -0.1528
     14 C           3.6753   -0.4705   -0.5041 C.ar    1  UNL1        0.1057
     15 C           3.7973    0.3442   -1.6115 C.ar    1  UNL1       -0.0319
     16 C           4.5297    1.5045   -1.5592 C.ar    1  UNL1       -0.0181
     17 C           5.1602    1.8776   -0.3916 C.ar    1  UNL1        0.1202
     18 O           5.8830    3.0450   -0.3830 O.3     1  UNL1       -0.4951
     19 C           6.5363    3.4445    0.8017 C.3     1  UNL1        0.0788
     20 C           5.0614    1.0891    0.7359 C.ar    1  UNL1       -0.0181
     21 C           4.3216   -0.0617    0.6451 C.ar    1  UNL1       -0.0319
     22 C           0.2292   -1.5357   -1.3188 C.3     1  UNL1        0.1223
     23 C          -0.4121   -2.8362   -1.6455 C.2     1  UNL1        0.2556
     24 O          -1.2556   -2.8849   -2.5784 O.2     1  UNL1       -0.2719
     25 N          -0.1299   -4.0324   -0.9667 N.am    1  UNL1       -0.1961
     26 O          -0.6781   -5.2281   -1.2207 O.3     1  UNL1       -0.2951
     27 C          -0.8104   -0.4943   -1.1758 C.3     1  UNL1        0.0247
     28 H          -5.9979    2.7723   -2.3302 H       1  UNL1        0.0230
     29 H          -7.2387    2.1416   -1.2310 H       1  UNL1        0.0230
     30 H          -5.9731    1.0362   -1.9819 H       1  UNL1        0.0230
     31 H          -5.8324    2.7049    0.4511 H       1  UNL1        0.0263
     32 H          -4.4175    2.9313   -0.6568 H       1  UNL1        0.0263
     33 H          -4.0596    0.4999   -0.7664 H       1  UNL1        0.0265
     34 H          -5.4670    0.2341    0.3952 H       1  UNL1        0.0265
     35 H          -4.3237    1.4898    2.0973 H       1  UNL1        0.0266
     36 H          -2.9268    1.8026    1.0368 H       1  UNL1        0.0266
     37 H          -2.5308   -0.1098    2.6127 H       1  UNL1        0.0278
     38 H          -3.9884   -0.9113    1.9795 H       1  UNL1        0.0278
     39 H          -2.9789   -1.1985   -0.2338 H       1  UNL1        0.0426
     40 H          -2.0320   -1.9391    1.0858 H       1  UNL1        0.0426
     41 H          -0.5379    0.1103    2.0808 H       1  UNL1        0.0440
     42 H           0.4831    0.8340    0.7289 H       1  UNL1        0.0440
     43 H           1.6527   -0.9983    1.6303 H       1  UNL1        0.0457
     44 H           0.2392   -2.0779    1.5955 H       1  UNL1        0.0457
     45 H           3.3026    0.0438   -2.5107 H       1  UNL1        0.0638
     46 H           4.5986    2.1087   -2.4417 H       1  UNL1        0.0655
     47 H           6.8970    4.4728    0.6760 H       1  UNL1        0.0660
     48 H           5.8073    3.4283    1.6401 H       1  UNL1        0.0660
     49 H           7.4038    2.7615    1.0298 H       1  UNL1        0.0660
     50 H           5.5488    1.3587    1.6714 H       1  UNL1        0.0655
     51 H           4.2411   -0.6939    1.5411 H       1  UNL1        0.0638
     52 H           0.8543   -1.2682   -2.2219 H       1  UNL1        0.0589
     53 H           0.5720   -3.9969   -0.1927 H       1  UNL1        0.1822
     54 H          -1.3268   -5.4659   -0.4925 H       1  UNL1        0.2414
     55 H          -0.4385    0.4866   -1.5942 H       1  UNL1        0.0447
     56 H          -1.7180   -0.7121   -1.7744 H       1  UNL1        0.0447
@<TRIPOS>BOND
     1     1     2    1
     2     2     3    1
     3     3     4    1
     4     4     5    1
     5     5     6    1
     6     6     7    1
     7     7     8    1
     8     8     9    1
     9     9    10    1
    10    10    11    1
    11    11    12    2
    12    11    13    2
    13    11    14    1
    14    14    15   ar
    15    15    16   ar
    16    16    17   ar
    17    17    18    1
    18    18    19    1
    19    17    20   ar
    20    20    21   ar
    21    10    22    1
    22    22    23    1
    23    23    24    2
    24    23    25   am
    25    25    26    1
    26    22    27    1
    27    27     7    1
    28    21    14   ar
    29     1    28    1
    30     1    29    1
    31     1    30    1
    32     2    31    1
    33     2    32    1
    34     3    33    1
    35     3    34    1
    36     4    35    1
    37     4    36    1
    38     5    37    1
    39     5    38    1
    40     6    39    1
    41     6    40    1
    42     8    41    1
    43     8    42    1
    44     9    43    1
    45     9    44    1
    46    15    45    1
    47    16    46    1
    48    19    47    1
    49    19    48    1
    50    19    49    1
    51    20    50    1
    52    21    51    1
    53    22    52    1
    54    25    53    1
    55    26    54    1
    56    27    55    1
    57    27    56    1
