
     RDKit          3D

 56 57  0  0  0  0  0  0  0  0999 V2000
   -6.1605    2.0278   -1.5242 C   0  0  0  0  0  0  0  0  0  0  0  0
   -5.2314    2.2196   -0.3557 C   0  0  0  0  0  0  0  0  0  0  0  0
   -4.6411    0.8973    0.0872 C   0  0  0  0  0  0  0  0  0  0  0  0
   -3.7069    1.0676    1.2600 C   0  0  0  0  0  0  0  0  0  0  0  0
   -3.1269   -0.2413    1.6984 C   0  0  0  0  0  0  0  0  0  0  0  0
   -2.3373   -0.9435    0.6469 C   0  0  0  0  0  0  0  0  0  0  0  0
   -1.2181   -0.2153    0.1630 N   0  0  0  0  0  0  0  0  0  0  0  0
   -0.1375   -0.0230    1.0702 C   0  0  0  0  0  0  0  0  0  0  0  0
    0.7497   -1.2440    1.0288 C   0  0  0  0  0  0  0  0  0  0  0  0
    1.1064   -1.7194   -0.2321 N   0  0  0  0  0  0  0  0  0  0  0  0
    2.7326   -1.9539   -0.5883 S   0  0  0  0  0  6  0  0  0  0  0  0
    2.8676   -2.5597   -1.9497 O   0  0  0  0  0  0  0  0  0  0  0  0
    3.3829   -2.9193    0.3748 O   0  0  0  0  0  0  0  0  0  0  0  0
    3.6753   -0.4705   -0.5041 C   0  0  0  0  0  0  0  0  0  0  0  0
    3.7973    0.3442   -1.6115 C   0  0  0  0  0  0  0  0  0  0  0  0
    4.5297    1.5045   -1.5592 C   0  0  0  0  0  0  0  0  0  0  0  0
    5.1602    1.8776   -0.3916 C   0  0  0  0  0  0  0  0  0  0  0  0
    5.8830    3.0450   -0.3830 O   0  0  0  0  0  0  0  0  0  0  0  0
    6.5363    3.4445    0.8017 C   0  0  0  0  0  0  0  0  0  0  0  0
    5.0614    1.0891    0.7359 C   0  0  0  0  0  0  0  0  0  0  0  0
    4.3216   -0.0617    0.6451 C   0  0  0  0  0  0  0  0  0  0  0  0
    0.2292   -1.5357   -1.3188 C   0  0  0  0  0  0  0  0  0  0  0  0
   -0.4121   -2.8362   -1.6455 C   0  0  0  0  0  0  0  0  0  0  0  0
   -1.2556   -2.8849   -2.5784 O   0  0  0  0  0  0  0  0  0  0  0  0
   -0.1299   -4.0324   -0.9667 N   0  0  0  0  0  0  0  0  0  0  0  0
   -0.6781   -5.2281   -1.2207 O   0  0  0  0  0  0  0  0  0  0  0  0
   -0.8104   -0.4943   -1.1758 C   0  0  0  0  0  0  0  0  0  0  0  0
   -5.9979    2.7723   -2.3302 H   0  0  0  0  0  0  0  0  0  0  0  0
   -7.2387    2.1416   -1.2310 H   0  0  0  0  0  0  0  0  0  0  0  0
   -5.9731    1.0362   -1.9819 H   0  0  0  0  0  0  0  0  0  0  0  0
   -5.8324    2.7049    0.4511 H   0  0  0  0  0  0  0  0  0  0  0  0
   -4.4175    2.9313   -0.6568 H   0  0  0  0  0  0  0  0  0  0  0  0
   -4.0596    0.4999   -0.7664 H   0  0  0  0  0  0  0  0  0  0  0  0
   -5.4670    0.2341    0.3952 H   0  0  0  0  0  0  0  0  0  0  0  0
   -4.3237    1.4898    2.0973 H   0  0  0  0  0  0  0  0  0  0  0  0
   -2.9268    1.8026    1.0368 H   0  0  0  0  0  0  0  0  0  0  0  0
   -2.5308   -0.1098    2.6127 H   0  0  0  0  0  0  0  0  0  0  0  0
   -3.9884   -0.9113    1.9795 H   0  0  0  0  0  0  0  0  0  0  0  0
   -2.9789   -1.1985   -0.2338 H   0  0  0  0  0  0  0  0  0  0  0  0
   -2.0320   -1.9391    1.0858 H   0  0  0  0  0  0  0  0  0  0  0  0
   -0.5379    0.1103    2.0808 H   0  0  0  0  0  0  0  0  0  0  0  0
    0.4831    0.8340    0.7289 H   0  0  0  0  0  0  0  0  0  0  0  0
    1.6527   -0.9983    1.6303 H   0  0  0  0  0  0  0  0  0  0  0  0
    0.2392   -2.0779    1.5955 H   0  0  0  0  0  0  0  0  0  0  0  0
    3.3026    0.0438   -2.5107 H   0  0  0  0  0  0  0  0  0  0  0  0
    4.5986    2.1087   -2.4417 H   0  0  0  0  0  0  0  0  0  0  0  0
    6.8970    4.4728    0.6760 H   0  0  0  0  0  0  0  0  0  0  0  0
    5.8073    3.4283    1.6401 H   0  0  0  0  0  0  0  0  0  0  0  0
    7.4038    2.7615    1.0298 H   0  0  0  0  0  0  0  0  0  0  0  0
    5.5488    1.3587    1.6714 H   0  0  0  0  0  0  0  0  0  0  0  0
    4.2411   -0.6939    1.5411 H   0  0  0  0  0  0  0  0  0  0  0  0
    0.8543   -1.2682   -2.2219 H   0  0  0  0  0  0  0  0  0  0  0  0
    0.5720   -3.9969   -0.1927 H   0  0  0  0  0  0  0  0  0  0  0  0
   -1.3268   -5.4659   -0.4925 H   0  0  0  0  0  0  0  0  0  0  0  0
   -0.4385    0.4866   -1.5942 H   0  0  0  0  0  0  0  0  0  0  0  0
   -1.7180   -0.7121   -1.7744 H   0  0  0  0  0  0  0  0  0  0  0  0
  1  2  1  0
  2  3  1  0
  3  4  1  0
  4  5  1  0
  5  6  1  0
  6  7  1  0
  7  8  1  0
  8  9  1  0
  9 10  1  0
 10 11  1  0
 11 12  2  0
 11 13  2  0
 11 14  1  0
 14 15  2  0
 15 16  1  0
 16 17  2  0
 17 18  1  0
 18 19  1  0
 17 20  1  0
 20 21  2  0
 10 22  1  0
 22 23  1  0
 23 24  2  0
 23 25  1  0
 25 26  1  0
 22 27  1  0
 27  7  1  0
 21 14  1  0
  1 28  1  0
  1 29  1  0
  1 30  1  0
  2 31  1  0
  2 32  1  0
  3 33  1  0
  3 34  1  0
  4 35  1  0
  4 36  1  0
  5 37  1  0
  5 38  1  0
  6 39  1  0
  6 40  1  0
  8 41  1  0
  8 42  1  0
  9 43  1  0
  9 44  1  0
 15 45  1  0
 16 46  1  0
 19 47  1  0
 19 48  1  0
 19 49  1  0
 20 50  1  0
 21 51  1  0
 22 52  1  0
 25 53  1  0
 26 54  1  0
 27 55  1  0
 27 56  1  0
M  END
$$$$
