@<TRIPOS>MOLECULE
*****
 53 56 0 0 0
SMALL
GASTEIGER

@<TRIPOS>ATOM
      1 O           7.0963    0.6687   -0.8709 O.3     1  UNL1       -0.3937
      2 C           6.5532    0.1950    0.3076 C.3     1  UNL1        0.0569
      3 C           5.2690    0.8707    0.7022 C.3     1  UNL1        0.0222
      4 N           4.2858    0.6746   -0.3291 N.3     1  UNL1       -0.2977
      5 C           3.8355   -0.6702   -0.4720 C.3     1  UNL1        0.0118
      6 C           2.3464   -0.8292   -0.2825 C.3     1  UNL1        0.0117
      7 N           1.9246   -0.0026    0.8003 N.3     1  UNL1       -0.2999
      8 C           0.7216   -0.3710    1.4562 C.3     1  UNL1        0.0004
      9 C          -0.5368   -0.2171    0.6308 C.3     1  UNL1       -0.0240
     10 C          -1.7925   -0.6305    1.3921 C.3     1  UNL1        0.0185
     11 N          -2.9004   -0.4277    0.5417 N.pl3   1  UNL1       -0.2982
     12 C          -3.3423    0.9020    0.3219 C.ar    1  UNL1        0.0479
     13 C          -2.7444    1.9547    0.9769 C.ar    1  UNL1       -0.0393
     14 C          -3.1098    3.2798    0.8477 C.ar    1  UNL1       -0.0599
     15 C          -4.1502    3.6162    0.0071 C.ar    1  UNL1       -0.0606
     16 C          -4.7748    2.5891   -0.6660 C.ar    1  UNL1       -0.0462
     17 C          -4.3522    1.2972   -0.4834 C.ar    1  UNL1        0.0341
     18 S          -5.2810    0.1037   -1.4237 S.3     1  UNL1       -0.0857
     19 C          -4.5681   -1.4688   -0.9759 C.ar    1  UNL1        0.0342
     20 C          -3.5294   -1.5173   -0.1094 C.ar    1  UNL1        0.0493
     21 C          -3.0890   -2.8038    0.1220 C.ar    1  UNL1       -0.0209
     22 C          -3.6364   -3.9390   -0.4586 C.ar    1  UNL1        0.0428
     23 CL         -3.0717   -5.5702   -0.1585 Cl      1  UNL1       -0.0835
     24 C          -4.6958   -3.8024   -1.3324 C.ar    1  UNL1       -0.0422
     25 C          -5.1665   -2.5352   -1.5917 C.ar    1  UNL1       -0.0448
     26 C           2.1101    1.3948    0.6063 C.3     1  UNL1        0.0117
     27 C           3.2573    1.6828   -0.3281 C.3     1  UNL1        0.0118
     28 H           7.5541   -0.0599   -1.3915 H       1  UNL1        0.2095
     29 H           6.4004   -0.8979    0.1803 H       1  UNL1        0.0570
     30 H           7.3461    0.3813    1.0904 H       1  UNL1        0.0570
     31 H           4.9089    0.4532    1.6426 H       1  UNL1        0.0449
     32 H           5.4631    1.9596    0.8141 H       1  UNL1        0.0449
     33 H           4.4104   -1.3193    0.2256 H       1  UNL1        0.0439
     34 H           4.0806   -1.0218   -1.4962 H       1  UNL1        0.0439
     35 H           1.8207   -0.6066   -1.2407 H       1  UNL1        0.0439
     36 H           2.1511   -1.8873   -0.0169 H       1  UNL1        0.0439
     37 H           0.6459    0.2243    2.3909 H       1  UNL1        0.0427
     38 H           0.8079   -1.4386    1.7477 H       1  UNL1        0.0427
     39 H          -0.5537    0.7769    0.2019 H       1  UNL1        0.0293
     40 H          -0.3781   -0.9070   -0.2485 H       1  UNL1        0.0293
     41 H          -1.5617   -1.6117    1.7802 H       1  UNL1        0.0468
     42 H          -1.7624    0.0025    2.3068 H       1  UNL1        0.0468
     43 H          -1.9295    1.8663    1.6795 H       1  UNL1        0.0636
     44 H          -2.6414    4.1184    1.3617 H       1  UNL1        0.0618
     45 H          -4.4654    4.6409   -0.1209 H       1  UNL1        0.0618
     46 H          -5.5875    2.8849   -1.3179 H       1  UNL1        0.0629
     47 H          -2.2820   -3.0709    0.7676 H       1  UNL1        0.0651
     48 H          -5.1450   -4.6650   -1.8014 H       1  UNL1        0.0632
     49 H          -5.9952   -2.4670   -2.2785 H       1  UNL1        0.0630
     50 H           1.1890    1.8265    0.1695 H       1  UNL1        0.0439
     51 H           2.2312    1.8708    1.6122 H       1  UNL1        0.0439
     52 H           2.9088    1.8721   -1.3739 H       1  UNL1        0.0439
     53 H           3.7254    2.6309    0.0149 H       1  UNL1        0.0439
@<TRIPOS>BOND
     1     1     2    1
     2     2     3    1
     3     3     4    1
     4     4     5    1
     5     5     6    1
     6     6     7    1
     7     7     8    1
     8     8     9    1
     9     9    10    1
    10    10    11    1
    11    11    12    1
    12    12    13   ar
    13    13    14   ar
    14    14    15   ar
    15    15    16   ar
    16    16    17   ar
    17    17    18    1
    18    18    19    1
    19    19    20   ar
    20    20    21   ar
    21    21    22   ar
    22    22    23    1
    23    22    24   ar
    24    24    25   ar
    25     7    26    1
    26    26    27    1
    27    27     4    1
    28    20    11    1
    29    17    12   ar
    30    25    19   ar
    31     1    28    1
    32     2    29    1
    33     2    30    1
    34     3    31    1
    35     3    32    1
    36     5    33    1
    37     5    34    1
    38     6    35    1
    39     6    36    1
    40     8    37    1
    41     8    38    1
    42     9    39    1
    43     9    40    1
    44    10    41    1
    45    10    42    1
    46    13    43    1
    47    14    44    1
    48    15    45    1
    49    16    46    1
    50    21    47    1
    51    24    48    1
    52    25    49    1
    53    26    50    1
    54    26    51    1
    55    27    52    1
    56    27    53    1
