@<TRIPOS>MOLECULE
*****
 57 61 0 0 0
SMALL
GASTEIGER

@<TRIPOS>ATOM
      1 O           3.5184    0.9322   -0.5415 O.2     1  UNL1       -0.2522
      2 C           3.9740   -0.1174   -1.0324 C.2     1  UNL1        0.3081
      3 N           2.9875   -0.9158   -1.7389 N.am    1  UNL1       -0.2692
      4 C           1.6392   -0.4834   -1.8266 C.ar    1  UNL1        0.0354
      5 C           1.2853    0.3070   -2.8979 C.ar    1  UNL1       -0.0404
      6 C          -0.0260    0.7258   -2.9804 C.ar    1  UNL1       -0.0594
      7 C          -0.9651    0.3662   -2.0183 C.ar    1  UNL1       -0.0524
      8 C          -0.6130   -0.4249   -0.9453 C.ar    1  UNL1        0.0036
      9 C          -1.6444   -0.7687    0.0323 C.ar    1  UNL1        0.0897
     10 C          -1.4113   -1.5507    1.1428 C.ar    1  UNL1        0.0373
     11 N          -2.3674   -1.8620    2.0374 N.ar    1  UNL1       -0.3018
     12 C          -2.3842   -2.5959    3.1812 C.ar    1  UNL1        0.0294
     13 C          -3.6619   -2.5749    3.7001 C.ar    1  UNL1        0.0465
     14 N          -4.4172   -1.8302    2.8730 N.ar    1  UNL1       -0.2330
     15 C          -3.6212   -1.4059    1.8723 C.ar    1  UNL1        0.1780
     16 C          -3.8849   -0.6204    0.7698 C.ar    1  UNL1        0.1629
     17 N          -5.2241   -0.1417    0.6066 N.pl3   1  UNL1       -0.3220
     18 C          -5.5396    0.6855   -0.5381 C.3     1  UNL1        0.0359
     19 C          -6.9696    1.0745   -0.5232 C.ar    1  UNL1       -0.0275
     20 C          -7.3824    2.2271    0.1083 C.ar    1  UNL1       -0.0389
     21 C          -8.7200    2.5726    0.1111 C.ar    1  UNL1        0.0279
     22 N          -9.6328    1.7958   -0.4975 N.ar    1  UNL1       -0.2632
     23 C          -9.2588    0.6532   -1.1290 C.ar    1  UNL1        0.0279
     24 C          -7.9246    0.2974   -1.1385 C.ar    1  UNL1       -0.0389
     25 N          -2.9164   -0.3209   -0.1120 N.ar    1  UNL1       -0.2270
     26 C           0.6859   -0.8391   -0.8644 C.ar    1  UNL1       -0.0312
     27 N           5.3134   -0.5498   -0.9468 N.am    1  UNL1       -0.2692
     28 C           6.2962    0.1834   -0.2788 C.ar    1  UNL1        0.0353
     29 C           6.1437    1.3829    0.3744 C.ar    1  UNL1       -0.0404
     30 C           7.2074    2.0308    1.0135 C.ar    1  UNL1       -0.0595
     31 C           8.4612    1.4698    1.0033 C.ar    1  UNL1       -0.0500
     32 C           8.6524    0.2484    0.3471 C.ar    1  UNL1        0.0566
     33 C          10.0138   -0.3432    0.3462 C.3     1  UNL1        0.4175
     34 F          10.1435   -1.1397   -0.7908 F       1  UNL1       -0.1659
     35 F          10.1007   -1.1792    1.4457 F       1  UNL1       -0.1659
     36 F          10.9798    0.6212    0.3351 F       1  UNL1       -0.1659
     37 C           7.5849   -0.3614   -0.2709 C.ar    1  UNL1       -0.0288
     38 H           3.3145   -1.8081   -2.1713 H       1  UNL1        0.1564
     39 H           2.0141    0.5918   -3.6534 H       1  UNL1        0.0636
     40 H          -0.3377    1.3531   -3.8174 H       1  UNL1        0.0618
     41 H          -1.9835    0.7019   -2.0986 H       1  UNL1        0.0624
     42 H          -0.4209   -1.9410    1.3196 H       1  UNL1        0.0835
     43 H          -1.4906   -3.0919    3.5635 H       1  UNL1        0.0829
     44 H          -3.9819   -3.0780    4.6174 H       1  UNL1        0.0845
     45 H          -5.9812   -0.3628    1.2757 H       1  UNL1        0.1479
     46 H          -4.9340    1.6284   -0.5424 H       1  UNL1        0.0511
     47 H          -5.2681    0.1684   -1.4895 H       1  UNL1        0.0511
     48 H          -6.6682    2.8791    0.6112 H       1  UNL1        0.0636
     49 H          -8.9929    3.4856    0.6197 H       1  UNL1        0.0829
     50 H          -9.9920    0.0185   -1.6244 H       1  UNL1        0.0829
     51 H          -7.5953   -0.6194   -1.6407 H       1  UNL1        0.0636
     52 H           0.9982   -1.4588   -0.0395 H       1  UNL1        0.0643
     53 H           5.5657   -1.4683   -1.4130 H       1  UNL1        0.1564
     54 H           5.1878    1.8687    0.4156 H       1  UNL1        0.0636
     55 H           7.0439    2.9665    1.5119 H       1  UNL1        0.0618
     56 H           9.3243    1.9140    1.4748 H       1  UNL1        0.0623
     57 H           7.7754   -1.2964   -0.7622 H       1  UNL1        0.0642
@<TRIPOS>BOND
     1     1     2    2
     2     2     3   am
     3     3     4    1
     4     4     5   ar
     5     5     6   ar
     6     6     7   ar
     7     7     8   ar
     8     8     9    1
     9     9    10   ar
    10    10    11   ar
    11    11    12   ar
    12    12    13   ar
    13    13    14   ar
    14    14    15   ar
    15    15    16   ar
    16    16    17    1
    17    17    18    1
    18    18    19    1
    19    19    20   ar
    20    20    21   ar
    21    21    22   ar
    22    22    23   ar
    23    23    24   ar
    24    16    25   ar
    25     8    26   ar
    26     2    27   am
    27    27    28    1
    28    28    29   ar
    29    29    30   ar
    30    30    31   ar
    31    31    32   ar
    32    32    33    1
    33    33    34    1
    34    33    35    1
    35    33    36    1
    36    32    37   ar
    37    26     4   ar
    38    37    28   ar
    39    25     9   ar
    40    15    11   ar
    41    24    19   ar
    42     3    38    1
    43     5    39    1
    44     6    40    1
    45     7    41    1
    46    10    42    1
    47    12    43    1
    48    13    44    1
    49    17    45    1
    50    18    46    1
    51    18    47    1
    52    20    48    1
    53    21    49    1
    54    23    50    1
    55    24    51    1
    56    26    52    1
    57    27    53    1
    58    29    54    1
    59    30    55    1
    60    31    56    1
    61    37    57    1
