@<TRIPOS>MOLECULE
*****
 50 53 0 0 0
SMALL
GASTEIGER

@<TRIPOS>ATOM
      1 C           7.7928    2.0437   -0.2361 C.3     1  UNL1        0.0790
      2 O           7.3406    0.7048   -0.1371 O.3     1  UNL1       -0.4913
      3 C           5.9678    0.4716   -0.1973 C.ar    1  UNL1        0.1650
      4 C           5.0486    1.4885   -0.3482 C.ar    1  UNL1        0.0267
      5 C           3.6883    1.2652   -0.4087 C.ar    1  UNL1        0.1421
      6 O           2.8068    2.2268   -0.5521 O.2     1  UNL1       -0.4620
      7 C           1.5117    1.9724   -0.6057 C.ar    1  UNL1        0.1038
      8 C           1.0290    0.6683   -0.5118 C.ar    1  UNL1        0.0643
      9 C          -0.3960    0.4583   -0.5773 C.ar    1  UNL1       -0.0112
     10 C          -1.0295   -0.4926   -1.3044 C.ar    1  UNL1       -0.0521
     11 C          -2.4020   -0.6228   -1.3092 C.ar    1  UNL1       -0.0401
     12 C          -3.2232    0.2304   -0.5541 C.ar    1  UNL1        0.0297
     13 N          -4.6176    0.0671   -0.5667 N.pl3   1  UNL1       -0.3299
     14 C          -5.4749    1.1280   -0.0946 C.3     1  UNL1        0.0122
     15 C          -6.1424    0.5678    1.1710 C.3     1  UNL1       -0.0372
     16 C          -7.0998   -0.5047    0.6365 C.3     1  UNL1       -0.0502
     17 C          -6.2809   -1.6021    0.0426 C.3     1  UNL1       -0.0372
     18 C          -5.3055   -1.1400   -1.0219 C.3     1  UNL1        0.0122
     19 C          -2.5971    1.1843    0.1763 C.ar    1  UNL1       -0.0401
     20 C          -1.2042    1.2979    0.1657 C.ar    1  UNL1       -0.0521
     21 C           1.9206   -0.3460   -0.3628 C.ar    1  UNL1        0.2003
     22 O           1.4640   -1.5062   -0.2808 O.2     1  UNL1       -0.2864
     23 C           3.2804   -0.0624   -0.3080 C.ar    1  UNL1        0.0682
     24 C           4.1464   -1.0980   -0.1586 C.ar    1  UNL1       -0.0019
     25 C           5.5009   -0.8441   -0.1014 C.ar    1  UNL1        0.1624
     26 O           6.4224   -1.8749    0.0510 O.3     1  UNL1       -0.4914
     27 C           5.9424   -3.2031    0.1474 C.3     1  UNL1        0.0790
     28 H           7.3169    2.5092   -1.1404 H       1  UNL1        0.0660
     29 H           8.8982    1.9796   -0.4436 H       1  UNL1        0.0660
     30 H           7.6230    2.6235    0.6722 H       1  UNL1        0.0660
     31 H           5.4051    2.5253   -0.4245 H       1  UNL1        0.0692
     32 H           0.8394    2.8158   -0.7254 H       1  UNL1        0.1037
     33 H          -0.4638   -1.1670   -1.8951 H       1  UNL1        0.0624
     34 H          -2.8493   -1.4136   -1.9237 H       1  UNL1        0.0636
     35 H          -6.2897    1.2091   -0.8855 H       1  UNL1        0.0464
     36 H          -5.0019    2.0885    0.0507 H       1  UNL1        0.0464
     37 H          -6.6568    1.3400    1.7404 H       1  UNL1        0.0280
     38 H          -5.3529    0.0255    1.7295 H       1  UNL1        0.0280
     39 H          -7.6979   -0.9199    1.4491 H       1  UNL1        0.0266
     40 H          -7.7303   -0.0539   -0.1736 H       1  UNL1        0.0266
     41 H          -6.9680   -2.3376   -0.4654 H       1  UNL1        0.0280
     42 H          -5.7449   -2.1143    0.8543 H       1  UNL1        0.0280
     43 H          -5.8050   -0.9062   -1.9655 H       1  UNL1        0.0464
     44 H          -4.6247   -1.9915   -1.1914 H       1  UNL1        0.0464
     45 H          -3.1917    1.8699    0.7865 H       1  UNL1        0.0636
     46 H          -0.8050    2.0918    0.7823 H       1  UNL1        0.0624
     47 H           3.7518   -2.1225   -0.0857 H       1  UNL1        0.0663
     48 H           6.7227   -3.9300    0.3638 H       1  UNL1        0.0660
     49 H           5.1537   -3.1781    0.9541 H       1  UNL1        0.0660
     50 H           5.3818   -3.4219   -0.7966 H       1  UNL1        0.0660
@<TRIPOS>BOND
     1     1     2    1
     2     2     3    1
     3     3     4   ar
     4     4     5   ar
     5     5     6   ar
     6     6     7   ar
     7     7     8   ar
     8     8     9    1
     9     9    10   ar
    10    10    11   ar
    11    11    12   ar
    12    12    13    1
    13    13    14    1
    14    14    15    1
    15    15    16    1
    16    16    17    1
    17    17    18    1
    18    12    19   ar
    19    19    20   ar
    20     8    21   ar
    21    21    22    2
    22    21    23   ar
    23    23    24   ar
    24    24    25   ar
    25    25    26    1
    26    26    27    1
    27    25     3   ar
    28    23     5   ar
    29    20     9   ar
    30    18    13    1
    31     1    28    1
    32     1    29    1
    33     1    30    1
    34     4    31    1
    35     7    32    1
    36    10    33    1
    37    11    34    1
    38    14    35    1
    39    14    36    1
    40    15    37    1
    41    15    38    1
    42    16    39    1
    43    16    40    1
    44    17    41    1
    45    17    42    1
    46    18    43    1
    47    18    44    1
    48    19    45    1
    49    20    46    1
    50    24    47    1
    51    27    48    1
    52    27    49    1
    53    27    50    1
