@<TRIPOS>MOLECULE
*****
 83 85 0 0 0
SMALL
GASTEIGER

@<TRIPOS>ATOM
      1 C           5.5619    4.3705    1.1086 C.3     1  UNL1       -0.0653
      2 C           6.2374    3.0298    0.9255 C.3     1  UNL1       -0.0559
      3 C           6.6516    2.8387   -0.5249 C.3     1  UNL1       -0.0533
      4 C           7.3135    1.5494   -0.7458 C.3     1  UNL1       -0.0531
      5 C           6.6433    0.2747   -0.4926 C.3     1  UNL1       -0.0526
      6 C           5.4448   -0.1231   -1.2567 C.3     1  UNL1       -0.0455
      7 C           4.1972    0.6211   -1.0773 C.3     1  UNL1        0.0162
      8 C           3.6525    0.5155    0.3145 C.2     1  UNL1        0.1894
      9 O           4.2263   -0.1036    1.1826 O.2     1  UNL1       -0.2852
     10 S           2.0910    1.3420    0.6814 S.3     1  UNL1       -0.0878
     11 C           1.5601    0.8856    2.3700 C.3     1  UNL1        0.0044
     12 C           1.2900   -0.5699    2.4824 C.3     1  UNL1       -0.0252
     13 C           0.2123   -1.0310    1.5686 C.2     1  UNL1       -0.0837
     14 C           0.4672   -1.9331    0.6325 C.2     1  UNL1       -0.0474
     15 C          -0.5216   -2.4501   -0.3031 C.3     1  UNL1        0.1295
     16 C          -0.3177   -2.0712   -1.7560 C.3     1  UNL1        0.0647
     17 C          -0.2035   -0.6314   -1.9792 C.2     1  UNL1        0.2172
     18 O          -0.4449    0.0680   -0.9082 O.2     1  UNL1       -0.2757
     19 N           0.0943    0.2670   -2.9928 N.am    1  UNL1       -0.3091
     20 C           0.1378    1.6978   -2.7826 C.3     1  UNL1        0.0604
     21 C          -1.0932    2.3869   -2.4223 C.ar    1  UNL1        0.0961
     22 N          -2.0821    2.1352   -1.7615 N.ar    1  UNL1       -0.2404
     23 C          -3.1288    2.8856   -1.5098 C.ar    1  UNL1        0.1027
     24 C          -3.1308    4.1384   -2.0590 C.ar    1  UNL1        0.0054
     25 S          -1.5146    4.1274   -2.9544 S.2     1  UNL1       -0.0783
     26 C          -4.2385    2.3729   -0.6716 C.2     1  UNL1        0.1187
     27 N          -4.4471    1.1177   -0.6694 N.2     1  UNL1       -0.2585
     28 C          -4.5488    0.6909    0.7167 C.3     1  UNL1        0.1448
     29 C          -3.5402    1.5237    1.5591 C.3     1  UNL1       -0.0304
     30 C          -5.8684    1.2804    1.1360 C.3     1  UNL1        0.0333
     31 S          -5.4776    2.9803    0.4322 S.3     1  UNL1       -0.1013
     32 C          -4.3243   -0.7204    0.9505 C.2     1  UNL1        0.2419
     33 O          -3.8364   -1.0332    2.1033 O.2     1  UNL1       -0.2731
     34 N          -4.4769   -1.9238    0.2798 N.am    1  UNL1       -0.3001
     35 C          -4.0608   -3.2418    0.7881 C.3     1  UNL1        0.1228
     36 C          -4.8871   -4.3815    0.4262 C.3     1  UNL1       -0.0179
     37 C          -6.3236   -4.3144    0.8954 C.3     1  UNL1       -0.0605
     38 C          -4.8041   -4.7815   -1.0422 C.3     1  UNL1       -0.0605
     39 C          -2.6213   -3.4662    0.4769 C.2     1  UNL1        0.3285
     40 O          -2.0703   -4.5550    0.5960 O.2     1  UNL1       -0.2487
     41 O          -1.8650   -2.3782    0.0310 O.3     1  UNL1       -0.4554
     42 H           6.0667    5.1359    0.4674 H       1  UNL1        0.0230
     43 H           5.6894    4.7002    2.1564 H       1  UNL1        0.0230
     44 H           4.4817    4.3397    0.8859 H       1  UNL1        0.0230
     45 H           7.1635    3.0789    1.5651 H       1  UNL1        0.0263
     46 H           5.6337    2.2284    1.3422 H       1  UNL1        0.0263
     47 H           5.8631    3.0889   -1.2418 H       1  UNL1        0.0265
     48 H           7.4370    3.6873   -0.7288 H       1  UNL1        0.0265
     49 H           7.7467    1.5597   -1.8251 H       1  UNL1        0.0265
     50 H           8.3101    1.5654   -0.1645 H       1  UNL1        0.0265
     51 H           7.4211   -0.5596   -0.5939 H       1  UNL1        0.0265
     52 H           6.4135    0.2616    0.6342 H       1  UNL1        0.0265
     53 H           5.6951   -0.1559   -2.3703 H       1  UNL1        0.0270
     54 H           5.2244   -1.2343   -1.0321 H       1  UNL1        0.0270
     55 H           4.2414    1.6484   -1.4428 H       1  UNL1        0.0350
     56 H           3.3824    0.1017   -1.7140 H       1  UNL1        0.0350
     57 H           0.6950    1.5277    2.6115 H       1  UNL1        0.0384
     58 H           2.3916    1.1809    3.0398 H       1  UNL1        0.0384
     59 H           2.2639   -1.0891    2.2356 H       1  UNL1        0.0315
     60 H           1.0749   -0.8263    3.5527 H       1  UNL1        0.0315
     61 H          -0.8073   -0.6638    1.6348 H       1  UNL1        0.0570
     62 H           1.4994   -2.3148    0.5600 H       1  UNL1        0.0605
     63 H          -0.3167   -3.6151   -0.2269 H       1  UNL1        0.0784
     64 H           0.5102   -2.7032   -2.1526 H       1  UNL1        0.0398
     65 H          -1.2426   -2.4963   -2.2618 H       1  UNL1        0.0398
     66 H           0.3014    0.0199   -3.9642 H       1  UNL1        0.1491
     67 H           0.8751    1.9648   -1.9705 H       1  UNL1        0.0532
     68 H           0.5754    2.1685   -3.6868 H       1  UNL1        0.0532
     69 H          -3.8160    4.9754   -2.0405 H       1  UNL1        0.0716
     70 H          -3.9187    1.4068    2.6006 H       1  UNL1        0.0258
     71 H          -3.6377    2.5670    1.2852 H       1  UNL1        0.0258
     72 H          -2.5475    1.0809    1.5267 H       1  UNL1        0.0258
     73 H          -6.7378    0.9170    0.6008 H       1  UNL1        0.0409
     74 H          -5.9779    1.3829    2.2277 H       1  UNL1        0.0409
     75 H          -4.9153   -2.0905   -0.6386 H       1  UNL1        0.1496
     76 H          -4.0540   -3.1184    1.8906 H       1  UNL1        0.0617
     77 H          -4.4488   -5.2635    0.9763 H       1  UNL1        0.0319
     78 H          -6.4017   -4.4460    1.9989 H       1  UNL1        0.0233
     79 H          -6.9077   -5.2103    0.5088 H       1  UNL1        0.0233
     80 H          -6.8867   -3.4475    0.4999 H       1  UNL1        0.0233
     81 H          -5.6578   -5.4684   -1.3110 H       1  UNL1        0.0233
     82 H          -4.7449   -3.8962   -1.7122 H       1  UNL1        0.0233
     83 H          -3.8919   -5.3787   -1.2612 H       1  UNL1        0.0233
@<TRIPOS>BOND
     1     1     2    1
     2     2     3    1
     3     3     4    1
     4     4     5    1
     5     5     6    1
     6     6     7    1
     7     7     8    1
     8     8     9    2
     9     8    10    1
    10    10    11    1
    11    11    12    1
    12    12    13    1
    13    13    14    2
    14    14    15    1
    15    15    16    1
    16    16    17    1
    17    17    18    2
    18    17    19   am
    19    19    20    1
    20    20    21    1
    21    21    22   ar
    22    22    23   ar
    23    23    24   ar
    24    24    25   ar
    25    23    26    1
    26    26    27    2
    27    27    28    1
    28    28    29    1
    29    28    30    1
    30    30    31    1
    31    28    32    1
    32    32    33    2
    33    32    34   am
    34    34    35    1
    35    35    36    1
    36    36    37    1
    37    36    38    1
    38    35    39    1
    39    39    40    2
    40    39    41    1
    41    41    15    1
    42    25    21   ar
    43    31    26    1
    44     1    42    1
    45     1    43    1
    46     1    44    1
    47     2    45    1
    48     2    46    1
    49     3    47    1
    50     3    48    1
    51     4    49    1
    52     4    50    1
    53     5    51    1
    54     5    52    1
    55     6    53    1
    56     6    54    1
    57     7    55    1
    58     7    56    1
    59    11    57    1
    60    11    58    1
    61    12    59    1
    62    12    60    1
    63    13    61    1
    64    14    62    1
    65    15    63    1
    66    16    64    1
    67    16    65    1
    68    19    66    1
    69    20    67    1
    70    20    68    1
    71    24    69    1
    72    29    70    1
    73    29    71    1
    74    29    72    1
    75    30    73    1
    76    30    74    1
    77    34    75    1
    78    35    76    1
    79    36    77    1
    80    37    78    1
    81    37    79    1
    82    37    80    1
    83    38    81    1
    84    38    82    1
    85    38    83    1
