@<TRIPOS>MOLECULE
*****
 56 60 0 0 0
SMALL
GASTEIGER

@<TRIPOS>ATOM
      1 O          -0.6564   -1.0601   -2.9020 O.2     1  UNL1       -0.2756
      2 C          -0.5244   -1.1435   -1.6573 C.2     1  UNL1        0.2156
      3 C          -1.2264   -2.1744   -0.8798 C.3     1  UNL1        0.0245
      4 C          -2.2009   -3.0013   -1.6674 C.3     1  UNL1       -0.0380
      5 C          -3.2742   -2.1106   -2.2356 C.3     1  UNL1        0.0059
      6 C          -3.9924   -1.4163   -1.1368 C.ar    1  UNL1        0.1104
      7 N          -3.6053   -0.2231   -0.6571 N.ar    1  UNL1       -0.2337
      8 C          -4.2676    0.3945    0.3416 C.ar    1  UNL1        0.0781
      9 C          -3.8751    1.6200    0.8389 C.ar    1  UNL1       -0.0355
     10 C          -4.6053    2.2069    1.8758 C.ar    1  UNL1       -0.0597
     11 C          -5.6990    1.5680    2.3899 C.ar    1  UNL1       -0.0609
     12 C          -6.0938    0.3365    1.8906 C.ar    1  UNL1       -0.0474
     13 C          -5.3816   -0.2657    0.8590 C.ar    1  UNL1        0.0647
     14 C          -5.7889   -1.4850    0.3790 C.ar    1  UNL1        0.2592
     15 O          -6.7927   -2.0281    0.8805 O.2     1  UNL1       -0.2672
     16 N          -5.0814   -2.0386   -0.6154 N.ar    1  UNL1       -0.3103
     17 N           0.3327   -0.2117   -0.9756 N.am    1  UNL1       -0.3013
     18 C           0.5032   -0.2853    0.4575 C.3     1  UNL1        0.0165
     19 C           1.9900   -0.1436    0.8588 C.3     1  UNL1       -0.0161
     20 C           2.4744    1.0812    0.1324 C.3     1  UNL1        0.0413
     21 N           3.6511    1.7209    0.7468 N.ar    1  UNL1       -0.2987
     22 C           3.4594    2.9843    1.3880 C.ar    1  UNL1        0.2918
     23 O           2.4374    3.6342    1.5109 O.2     1  UNL1       -0.2594
     24 S           5.0993    3.3855    1.9728 S.2     1  UNL1       -0.0266
     25 C           5.8666    1.9698    1.3784 C.ar    1  UNL1        0.0407
     26 C           7.2216    1.5507    1.4556 C.ar    1  UNL1       -0.0459
     27 C           7.6051    0.3580    0.8963 C.ar    1  UNL1       -0.0606
     28 C           6.6167   -0.3525    0.2901 C.ar    1  UNL1       -0.0597
     29 C           5.3259    0.0546    0.2208 C.ar    1  UNL1       -0.0370
     30 C           4.8847    1.2833    0.7866 C.ar    1  UNL1        0.0595
     31 C           2.5086    0.8173   -1.2992 C.3     1  UNL1       -0.0161
     32 C           1.0206    0.8051   -1.7670 C.3     1  UNL1        0.0165
     33 H          -0.5048   -2.8298   -0.3065 H       1  UNL1        0.0358
     34 H          -1.8199   -1.6776   -0.0663 H       1  UNL1        0.0358
     35 H          -1.6911   -3.5828   -2.4681 H       1  UNL1        0.0274
     36 H          -2.6902   -3.7645   -1.0213 H       1  UNL1        0.0274
     37 H          -2.9247   -1.3657   -2.9511 H       1  UNL1        0.0343
     38 H          -3.9932   -2.8054   -2.7656 H       1  UNL1        0.0343
     39 H          -3.0084    2.1084    0.4192 H       1  UNL1        0.0639
     40 H          -4.3017    3.1682    2.2695 H       1  UNL1        0.0618
     41 H          -6.2582    2.0327    3.1945 H       1  UNL1        0.0618
     42 H          -6.9629   -0.1174    2.3360 H       1  UNL1        0.0626
     43 H          -5.3934   -2.9712   -0.9822 H       1  UNL1        0.1700
     44 H           0.1088   -1.2402    0.8094 H       1  UNL1        0.0465
     45 H          -0.0060    0.5609    0.9544 H       1  UNL1        0.0465
     46 H           2.4924   -1.0290    0.4400 H       1  UNL1        0.0300
     47 H           2.0875   -0.0787    1.9449 H       1  UNL1        0.0300
     48 H           1.6056    1.8097    0.2748 H       1  UNL1        0.0530
     49 H           7.8768    2.2229    1.9664 H       1  UNL1        0.0629
     50 H           8.6230    0.0241    0.9440 H       1  UNL1        0.0618
     51 H           6.8826   -1.3138   -0.1704 H       1  UNL1        0.0618
     52 H           4.6491   -0.5846   -0.2760 H       1  UNL1        0.0638
     53 H           2.7671   -0.2616   -1.4987 H       1  UNL1        0.0300
     54 H           2.9960    1.5234   -1.9552 H       1  UNL1        0.0300
     55 H           0.5765    1.8073   -1.6344 H       1  UNL1        0.0465
     56 H           0.9575    0.5339   -2.8169 H       1  UNL1        0.0465
@<TRIPOS>BOND
     1     1     2    2
     2     2     3    1
     3     3     4    1
     4     4     5    1
     5     5     6    1
     6     6     7   ar
     7     7     8   ar
     8     8     9   ar
     9     9    10   ar
    10    10    11   ar
    11    11    12   ar
    12    12    13   ar
    13    13    14   ar
    14    14    15    2
    15    14    16   ar
    16     2    17   am
    17    17    18    1
    18    18    19    1
    19    19    20    1
    20    20    21    1
    21    21    22   ar
    22    22    23    2
    23    22    24   ar
    24    24    25   ar
    25    25    26   ar
    26    26    27   ar
    27    27    28   ar
    28    28    29   ar
    29    29    30   ar
    30    20    31    1
    31    31    32    1
    32    16     6   ar
    33    32    17    1
    34    13     8   ar
    35    30    21   ar
    36    30    25   ar
    37     3    33    1
    38     3    34    1
    39     4    35    1
    40     4    36    1
    41     5    37    1
    42     5    38    1
    43     9    39    1
    44    10    40    1
    45    11    41    1
    46    12    42    1
    47    16    43    1
    48    18    44    1
    49    18    45    1
    50    19    46    1
    51    19    47    1
    52    20    48    1
    53    26    49    1
    54    27    50    1
    55    28    51    1
    56    29    52    1
    57    31    53    1
    58    31    54    1
    59    32    55    1
    60    32    56    1
