
     RDKit          3D

 65 69  0  0  0  0  0  0  0  0999 V2000
    9.9579   -0.1955   -1.2741 C   0  0  0  0  0  0  0  0  0  0  0  0
    9.1615   -0.4118   -0.1454 O   0  0  0  0  0  0  0  0  0  0  0  0
    7.7849   -0.2712   -0.1344 C   0  0  0  0  0  0  0  0  0  0  0  0
    7.0639    0.0999   -1.2491 C   0  0  0  0  0  0  0  0  0  0  0  0
    5.6910    0.2297   -1.1998 C   0  0  0  0  0  0  0  0  0  0  0  0
    4.9898   -0.0058   -0.0384 C   0  0  0  0  0  0  0  0  0  0  0  0
    3.4914    0.1483   -0.0436 C   0  0  0  0  0  0  0  0  0  0  0  0
    3.1477    1.5539    0.3125 C   0  0  0  0  0  0  0  0  0  0  0  0
    1.7823    1.8968    0.3647 N   0  0  0  0  0  0  0  0  0  0  0  0
    1.0685    1.8964   -0.8947 C   0  0  0  0  0  0  0  0  0  0  0  0
    0.2686    0.6574   -1.1017 C   0  0  0  0  0  0  0  0  0  0  0  0
   -0.9065    0.6309   -0.1165 C   0  0  0  0  0  0  0  0  0  0  0  0
   -1.2852   -0.7222    0.1064 N   0  0  0  0  0  0  0  0  0  0  0  0
   -2.4431   -1.2591    0.7088 C   0  0  0  0  0  0  0  0  0  0  0  0
   -2.4897   -2.6243    0.9503 N   0  0  0  0  0  0  0  0  0  0  0  0
   -3.6597   -2.9186    1.5214 C   0  0  0  0  0  0  0  0  0  0  0  0
   -4.2574   -4.0813    1.9795 C   0  0  0  0  0  0  0  0  0  0  0  0
   -5.5052   -4.1128    2.5438 C   0  0  0  0  0  0  0  0  0  0  0  0
   -6.2054   -2.9060    2.6601 C   0  0  0  0  0  0  0  0  0  0  0  0
   -5.6456   -1.7349    2.2176 C   0  0  0  0  0  0  0  0  0  0  0  0
   -4.3937   -1.7631    1.6613 C   0  0  0  0  0  0  0  0  0  0  0  0
   -3.6014   -0.7732    1.1441 N   0  0  0  0  0  0  0  0  0  0  0  0
   -4.0086    0.5900    1.0798 C   0  0  0  0  0  0  0  0  0  0  0  0
   -4.8403    0.9301   -0.0831 C   0  0  0  0  0  0  0  0  0  0  0  0
   -6.0915    1.5034    0.0762 C   0  0  0  0  0  0  0  0  0  0  0  0
   -6.8731    1.7853   -1.0172 C   0  0  0  0  0  0  0  0  0  0  0  0
   -6.4446    1.5108   -2.2963 C   0  0  0  0  0  0  0  0  0  0  0  0
   -7.2420    1.8019   -3.3713 F   0  0  0  0  0  0  0  0  0  0  0  0
   -5.2068    0.9434   -2.4521 C   0  0  0  0  0  0  0  0  0  0  0  0
   -4.4098    0.6547   -1.3488 C   0  0  0  0  0  0  0  0  0  0  0  0
   -0.4314    1.2959    1.1791 C   0  0  0  0  0  0  0  0  0  0  0  0
    1.0635    1.1474    1.3740 C   0  0  0  0  0  0  0  0  0  0  0  0
    5.6938   -0.3744    1.0739 C   0  0  0  0  0  0  0  0  0  0  0  0
    7.0648   -0.5080    1.0395 C   0  0  0  0  0  0  0  0  0  0  0  0
    9.4986   -0.5125   -2.2285 H   0  0  0  0  0  0  0  0  0  0  0  0
   10.9678   -0.6427   -1.1791 H   0  0  0  0  0  0  0  0  0  0  0  0
   10.1214    0.9110   -1.3572 H   0  0  0  0  0  0  0  0  0  0  0  0
    7.6274    0.2842   -2.1641 H   0  0  0  0  0  0  0  0  0  0  0  0
    5.1840    0.5222   -2.1022 H   0  0  0  0  0  0  0  0  0  0  0  0
    3.1837   -0.1669   -1.0523 H   0  0  0  0  0  0  0  0  0  0  0  0
    3.1175   -0.5997    0.6774 H   0  0  0  0  0  0  0  0  0  0  0  0
    3.5686    1.7219    1.3489 H   0  0  0  0  0  0  0  0  0  0  0  0
    3.7339    2.2943   -0.3076 H   0  0  0  0  0  0  0  0  0  0  0  0
    1.7196    2.0481   -1.7709 H   0  0  0  0  0  0  0  0  0  0  0  0
    0.3650    2.7551   -0.8673 H   0  0  0  0  0  0  0  0  0  0  0  0
   -0.1993    0.7446   -2.1266 H   0  0  0  0  0  0  0  0  0  0  0  0
    0.8055   -0.2870   -1.0318 H   0  0  0  0  0  0  0  0  0  0  0  0
   -1.7070    1.2196   -0.5390 H   0  0  0  0  0  0  0  0  0  0  0  0
   -0.5397   -1.4285   -0.2584 H   0  0  0  0  0  0  0  0  0  0  0  0
   -3.7127   -5.0027    1.8862 H   0  0  0  0  0  0  0  0  0  0  0  0
   -5.9502   -5.0335    2.8938 H   0  0  0  0  0  0  0  0  0  0  0  0
   -7.1891   -2.9772    3.1123 H   0  0  0  0  0  0  0  0  0  0  0  0
   -6.1854   -0.8208    2.3097 H   0  0  0  0  0  0  0  0  0  0  0  0
   -4.6866    0.7604    1.9883 H   0  0  0  0  0  0  0  0  0  0  0  0
   -3.1797    1.2716    1.2659 H   0  0  0  0  0  0  0  0  0  0  0  0
   -6.4426    1.7274    1.1005 H   0  0  0  0  0  0  0  0  0  0  0  0
   -7.8467    2.2344   -0.8428 H   0  0  0  0  0  0  0  0  0  0  0  0
   -4.8575    0.7217   -3.4704 H   0  0  0  0  0  0  0  0  0  0  0  0
   -3.4435    0.1840   -1.5821 H   0  0  0  0  0  0  0  0  0  0  0  0
   -0.7412    2.3499    1.2157 H   0  0  0  0  0  0  0  0  0  0  0  0
   -0.9283    0.7700    2.0139 H   0  0  0  0  0  0  0  0  0  0  0  0
    1.2972    1.6008    2.3551 H   0  0  0  0  0  0  0  0  0  0  0  0
    1.3563    0.1022    1.3568 H   0  0  0  0  0  0  0  0  0  0  0  0
    5.1737   -0.5662    2.0003 H   0  0  0  0  0  0  0  0  0  0  0  0
    7.6008   -0.7999    1.9297 H   0  0  0  0  0  0  0  0  0  0  0  0
  1  2  1  0
  2  3  1  0
  3  4  2  0
  4  5  1  0
  5  6  2  0
  6  7  1  0
  7  8  1  0
  8  9  1  0
  9 10  1  0
 10 11  1  0
 11 12  1  0
 12 13  1  0
 13 14  1  0
 14 15  2  0
 15 16  1  0
 16 17  2  0
 17 18  1  0
 18 19  2  0
 19 20  1  0
 20 21  2  0
 21 22  1  0
 22 23  1  0
 23 24  1  0
 24 25  2  0
 25 26  1  0
 26 27  2  0
 27 28  1  0
 27 29  1  0
 29 30  2  0
 12 31  1  0
 31 32  1  0
  6 33  1  0
 33 34  2  0
 34  3  1  0
 32  9  1  0
 22 14  1  0
 30 24  1  0
 21 16  1  0
  1 35  1  0
  1 36  1  0
  1 37  1  0
  4 38  1  0
  5 39  1  0
  7 40  1  0
  7 41  1  0
  8 42  1  0
  8 43  1  0
 10 44  1  0
 10 45  1  0
 11 46  1  0
 11 47  1  0
 12 48  1  0
 13 49  1  0
 17 50  1  0
 18 51  1  0
 19 52  1  0
 20 53  1  0
 23 54  1  0
 23 55  1  0
 25 56  1  0
 26 57  1  0
 29 58  1  0
 30 59  1  0
 31 60  1  0
 31 61  1  0
 32 62  1  0
 32 63  1  0
 33 64  1  0
 34 65  1  0
M  END
$$$$
