@<TRIPOS>MOLECULE
*****
 65 69 0 0 0
SMALL
GASTEIGER

@<TRIPOS>ATOM
      1 C           9.9579   -0.1955   -1.2741 C.3     1  UNL1        0.0788
      2 O           9.1615   -0.4118   -0.1454 O.3     1  UNL1       -0.4951
      3 C           7.7849   -0.2712   -0.1344 C.ar    1  UNL1        0.1201
      4 C           7.0639    0.0999   -1.2491 C.ar    1  UNL1       -0.0197
      5 C           5.6910    0.2297   -1.1998 C.ar    1  UNL1       -0.0551
      6 C           4.9898   -0.0058   -0.0384 C.ar    1  UNL1       -0.0459
      7 C           3.4914    0.1483   -0.0436 C.3     1  UNL1       -0.0149
      8 C           3.1477    1.5539    0.3125 C.3     1  UNL1        0.0029
      9 N           1.7823    1.8968    0.3647 N.3     1  UNL1       -0.3019
     10 C           1.0685    1.8964   -0.8947 C.3     1  UNL1        0.0006
     11 C           0.2686    0.6574   -1.1017 C.3     1  UNL1       -0.0216
     12 C          -0.9065    0.6309   -0.1165 C.3     1  UNL1        0.0256
     13 N          -1.2852   -0.7222    0.1064 N.pl3   1  UNL1       -0.3118
     14 C          -2.4431   -1.2591    0.7088 C.ar    1  UNL1        0.1971
     15 N          -2.4897   -2.6243    0.9503 N.ar    1  UNL1       -0.2144
     16 C          -3.6597   -2.9186    1.5214 C.ar    1  UNL1        0.0909
     17 C          -4.2574   -4.0813    1.9795 C.ar    1  UNL1       -0.0342
     18 C          -5.5052   -4.1128    2.5438 C.ar    1  UNL1       -0.0596
     19 C          -6.2054   -2.9060    2.6601 C.ar    1  UNL1       -0.0597
     20 C          -5.6456   -1.7349    2.2176 C.ar    1  UNL1       -0.0360
     21 C          -4.3937   -1.7631    1.6613 C.ar    1  UNL1        0.0704
     22 N          -3.6014   -0.7732    1.1441 N.ar    1  UNL1       -0.3075
     23 C          -4.0086    0.5900    1.0798 C.3     1  UNL1        0.0514
     24 C          -4.8403    0.9301   -0.0831 C.ar    1  UNL1       -0.0275
     25 C          -6.0915    1.5034    0.0762 C.ar    1  UNL1       -0.0542
     26 C          -6.8731    1.7853   -1.0172 C.ar    1  UNL1       -0.0261
     27 C          -6.4446    1.5108   -2.2963 C.ar    1  UNL1        0.1234
     28 F          -7.2420    1.8019   -3.3713 F       1  UNL1       -0.2055
     29 C          -5.2068    0.9434   -2.4521 C.ar    1  UNL1       -0.0261
     30 C          -4.4098    0.6547   -1.3488 C.ar    1  UNL1       -0.0542
     31 C          -0.4314    1.2959    1.1791 C.3     1  UNL1       -0.0216
     32 C           1.0635    1.1474    1.3740 C.3     1  UNL1        0.0006
     33 C           5.6938   -0.3744    1.0739 C.ar    1  UNL1       -0.0551
     34 C           7.0648   -0.5080    1.0395 C.ar    1  UNL1       -0.0197
     35 H           9.4986   -0.5125   -2.2285 H       1  UNL1        0.0660
     36 H          10.9678   -0.6427   -1.1791 H       1  UNL1        0.0660
     37 H          10.1214    0.9110   -1.3572 H       1  UNL1        0.0660
     38 H           7.6274    0.2842   -2.1641 H       1  UNL1        0.0654
     39 H           5.1840    0.5222   -2.1022 H       1  UNL1        0.0621
     40 H           3.1837   -0.1669   -1.0523 H       1  UNL1        0.0326
     41 H           3.1175   -0.5997    0.6774 H       1  UNL1        0.0326
     42 H           3.5686    1.7219    1.3489 H       1  UNL1        0.0430
     43 H           3.7339    2.2943   -0.3076 H       1  UNL1        0.0430
     44 H           1.7196    2.0481   -1.7709 H       1  UNL1        0.0427
     45 H           0.3650    2.7551   -0.8673 H       1  UNL1        0.0427
     46 H          -0.1993    0.7446   -2.1266 H       1  UNL1        0.0295
     47 H           0.8055   -0.2870   -1.0318 H       1  UNL1        0.0295
     48 H          -1.7070    1.2196   -0.5390 H       1  UNL1        0.0499
     49 H          -0.5397   -1.4285   -0.2584 H       1  UNL1        0.1491
     50 H          -3.7127   -5.0027    1.8862 H       1  UNL1        0.0639
     51 H          -5.9502   -5.0335    2.8938 H       1  UNL1        0.0618
     52 H          -7.1891   -2.9772    3.1123 H       1  UNL1        0.0618
     53 H          -6.1854   -0.8208    2.3097 H       1  UNL1        0.0639
     54 H          -4.6866    0.7604    1.9883 H       1  UNL1        0.0542
     55 H          -3.1797    1.2716    1.2659 H       1  UNL1        0.0542
     56 H          -6.4426    1.7274    1.1005 H       1  UNL1        0.0622
     57 H          -7.8467    2.2344   -0.8428 H       1  UNL1        0.0646
     58 H          -4.8575    0.7217   -3.4704 H       1  UNL1        0.0646
     59 H          -3.4435    0.1840   -1.5821 H       1  UNL1        0.0622
     60 H          -0.7412    2.3499    1.2157 H       1  UNL1        0.0295
     61 H          -0.9283    0.7700    2.0139 H       1  UNL1        0.0295
     62 H           1.2972    1.6008    2.3551 H       1  UNL1        0.0427
     63 H           1.3563    0.1022    1.3568 H       1  UNL1        0.0427
     64 H           5.1737   -0.5662    2.0003 H       1  UNL1        0.0621
     65 H           7.6008   -0.7999    1.9297 H       1  UNL1        0.0654
@<TRIPOS>BOND
     1     1     2    1
     2     2     3    1
     3     3     4   ar
     4     4     5   ar
     5     5     6   ar
     6     6     7    1
     7     7     8    1
     8     8     9    1
     9     9    10    1
    10    10    11    1
    11    11    12    1
    12    12    13    1
    13    13    14    1
    14    14    15   ar
    15    15    16   ar
    16    16    17   ar
    17    17    18   ar
    18    18    19   ar
    19    19    20   ar
    20    20    21   ar
    21    21    22   ar
    22    22    23    1
    23    23    24    1
    24    24    25   ar
    25    25    26   ar
    26    26    27   ar
    27    27    28    1
    28    27    29   ar
    29    29    30   ar
    30    12    31    1
    31    31    32    1
    32     6    33   ar
    33    33    34   ar
    34    34     3   ar
    35    32     9    1
    36    22    14   ar
    37    30    24   ar
    38    21    16   ar
    39     1    35    1
    40     1    36    1
    41     1    37    1
    42     4    38    1
    43     5    39    1
    44     7    40    1
    45     7    41    1
    46     8    42    1
    47     8    43    1
    48    10    44    1
    49    10    45    1
    50    11    46    1
    51    11    47    1
    52    12    48    1
    53    13    49    1
    54    17    50    1
    55    18    51    1
    56    19    52    1
    57    20    53    1
    58    23    54    1
    59    23    55    1
    60    25    56    1
    61    26    57    1
    62    29    58    1
    63    30    59    1
    64    31    60    1
    65    31    61    1
    66    32    62    1
    67    32    63    1
    68    33    64    1
    69    34    65    1
