@<TRIPOS>MOLECULE
*****
 43 46 0 0 0
SMALL
GASTEIGER

@<TRIPOS>ATOM
      1 O          -6.3271    2.0864   -1.3176 O.co2   1  UNL1       -0.5760
      2 N          -5.1952    2.8634   -1.3549 N.pl3   1  UNL1        0.0797
      3 O          -5.1611    3.8879   -2.0603 O.2     1  UNL1        0.0414
      4 C          -4.0750    2.4762   -0.5786 C.ar    1  UNL1        0.2765
      5 C          -2.9198    3.2346   -0.5924 C.ar    1  UNL1        0.0158
      6 C          -1.8802    2.7818    0.1938 C.ar    1  UNL1       -0.0520
      7 C          -1.9325    1.6549    0.9630 C.ar    1  UNL1       -0.0192
      8 C          -3.0864    0.8924    0.9803 C.ar    1  UNL1        0.1486
      9 C          -4.1385    1.3352    0.1955 C.ar    1  UNL1        0.0575
     10 N          -3.2781   -0.3036    1.7354 N.2     1  UNL1       -0.0667
     11 C          -2.3666   -1.1781    1.7042 C.cat   1  UNL1        0.4674
     12 N          -2.6266   -2.3371    2.4771 N.2     1  UNL1       -0.0789
     13 C          -1.7519   -3.2953    2.5117 C.2     1  UNL1        0.0909
     14 C          -0.4465   -3.3356    1.8094 C.3     1  UNL1        0.0569
     15 C          -0.3020   -2.0733    1.0446 C.2     1  UNL1        0.1331
     16 N          -1.1467   -1.0853    0.9772 N.2     1  UNL1       -0.0704
     17 C           0.9246   -1.9038    0.2723 C.ar    1  UNL1        0.0135
     18 C           1.9277   -2.8533    0.2309 C.ar    1  UNL1       -0.0515
     19 C           3.0963   -2.7181   -0.4906 C.ar    1  UNL1       -0.0608
     20 C           3.3017   -1.5775   -1.2232 C.ar    1  UNL1       -0.0568
     21 C           2.3385   -0.5905   -1.2243 C.ar    1  UNL1       -0.0254
     22 C           2.5689    0.6520   -2.0260 C.3     1  UNL1        0.0682
     23 N           3.2445    1.6603   -1.2236 N.ar    1  UNL1       -0.2477
     24 C           4.5986    1.7882   -1.1379 C.ar    1  UNL1        0.1146
     25 N           4.8763    2.8310   -0.3027 N.ar    1  UNL1       -0.2228
     26 C           3.6772    3.3086    0.0966 C.ar    1  UNL1        0.1380
     27 N           2.6780    2.5908   -0.4680 N.ar    1  UNL1       -0.1581
     28 C           1.2117   -0.7909   -0.4906 C.ar    1  UNL1       -0.0466
     29 H          -2.8916    4.1267   -1.2073 H       1  UNL1        0.0685
     30 H          -0.9646    3.3606    0.1986 H       1  UNL1        0.0621
     31 H          -1.1128    1.3082    1.5757 H       1  UNL1        0.0653
     32 H          -5.0715    0.7543    0.1844 H       1  UNL1        0.0721
     33 H          -1.8398   -4.2213    3.0627 H       1  UNL1        0.0980
     34 H          -0.4857   -4.1972    1.0807 H       1  UNL1        0.0414
     35 H           0.4125   -3.5297    2.4786 H       1  UNL1        0.0414
     36 H           1.8099   -3.7818    0.7999 H       1  UNL1        0.0624
     37 H           3.8458   -3.5102   -0.4766 H       1  UNL1        0.0618
     38 H           4.2243   -1.5207   -1.7658 H       1  UNL1        0.0621
     39 H           3.2236    0.4014   -2.8715 H       1  UNL1        0.0559
     40 H           1.6301    1.1196   -2.3683 H       1  UNL1        0.0559
     41 H           5.3080    1.1572   -1.6545 H       1  UNL1        0.1044
     42 H           3.6355    4.1563    0.7791 H       1  UNL1        0.1065
     43 H           0.4665    0.0200   -0.5171 H       1  UNL1        0.0628
@<TRIPOS>UNITY_ATOM_ATTR
1 1
charge -1
2 1
charge 1
@<TRIPOS>BOND
     1     1     2    1
     2     2     3    2
     3     2     4    1
     4     4     5   ar
     5     5     6   ar
     6     6     7   ar
     7     7     8   ar
     8     8     9   ar
     9     8    10    1
    10    10    11    2
    11    11    12    1
    12    12    13    2
    13    13    14    1
    14    14    15    1
    15    15    16    2
    16    15    17    1
    17    17    18   ar
    18    18    19   ar
    19    19    20   ar
    20    20    21   ar
    21    21    22    1
    22    22    23    1
    23    23    24   ar
    24    24    25   ar
    25    25    26   ar
    26    26    27   ar
    27    21    28   ar
    28     9     4   ar
    29    16    11    1
    30    28    17   ar
    31    27    23   ar
    32     5    29    1
    33     6    30    1
    34     7    31    1
    35     9    32    1
    36    13    33    1
    37    14    34    1
    38    14    35    1
    39    18    36    1
    40    19    37    1
    41    20    38    1
    42    22    39    1
    43    22    40    1
    44    24    41    1
    45    26    42    1
    46    28    43    1
