@<TRIPOS>MOLECULE
*****
 49 52 0 0 0
SMALL
GASTEIGER

@<TRIPOS>ATOM
      1 N           3.9528   -0.0599   -2.5256 N.am    1  UNL1       -0.3280
      2 C           4.2270   -1.4079   -2.8795 C.2     1  UNL1        0.2277
      3 O           4.5105   -1.6985   -4.0824 O.2     1  UNL1       -0.2743
      4 C           4.1860   -2.4876   -1.8532 C.3     1  UNL1        0.0882
      5 N           3.8399   -1.9048   -0.5713 N.am    1  UNL1       -0.3015
      6 C           2.6200   -1.2130   -0.3463 C.2     1  UNL1        0.2628
      7 O           1.8216   -1.1134   -1.3095 O.2     1  UNL1       -0.2685
      8 C           2.3028   -0.6327    0.9716 C.ar    1  UNL1        0.1282
      9 C           3.1000   -0.6817    2.0908 C.ar    1  UNL1        0.0589
     10 N           2.4975   -0.0531    3.1062 N.ar    1  UNL1       -0.2353
     11 C           1.3173    0.3975    2.6389 C.ar    1  UNL1        0.1381
     12 C           0.2951    1.1050    3.2322 C.ar    1  UNL1       -0.0182
     13 C          -0.8240    1.4378    2.4912 C.ar    1  UNL1       -0.0477
     14 C          -0.9558    1.0831    1.1643 C.ar    1  UNL1        0.0173
     15 C          -2.1110    1.4091    0.3392 C.ar    1  UNL1        0.0780
     16 C          -2.9237    0.4476   -0.2215 C.ar    1  UNL1        0.0967
     17 C          -2.8056   -0.9839   -0.1126 C.ar    1  UNL1        0.0026
     18 C          -2.6074   -1.7906   -1.2328 C.ar    1  UNL1       -0.0498
     19 C          -2.4925   -3.1552   -1.1489 C.ar    1  UNL1       -0.0258
     20 C          -2.5725   -3.7638    0.0667 C.ar    1  UNL1        0.1234
     21 F          -2.4578   -5.1156    0.1430 F       1  UNL1       -0.2055
     22 C          -2.7687   -3.0028    1.2068 C.ar    1  UNL1       -0.0258
     23 C          -2.8799   -1.6471    1.0973 C.ar    1  UNL1       -0.0498
     24 N          -3.8688    1.1168   -0.9047 N.ar    1  UNL1       -0.2351
     25 C          -3.6938    2.4312   -0.8033 C.ar    1  UNL1        0.0972
     26 N          -2.6019    2.6082   -0.0307 N.ar    1  UNL1       -0.3241
     27 C          -1.9933    3.8658    0.3786 C.3     1  UNL1        0.0852
     28 C          -0.9620    4.2370   -0.6794 C.3     1  UNL1        0.2569
     29 F          -0.0076    3.2550   -0.7713 F       1  UNL1       -0.2073
     30 F          -0.3219    5.3816   -0.2314 F       1  UNL1       -0.2073
     31 C           0.0973    0.3738    0.6153 C.ar    1  UNL1        0.0211
     32 N           1.2086    0.0384    1.3356 N.ar    1  UNL1       -0.2949
     33 H           3.4470    0.5313   -3.2175 H       1  UNL1        0.1450
     34 H           4.2239    0.3766   -1.6200 H       1  UNL1        0.1450
     35 H           5.1523   -2.9894   -1.8437 H       1  UNL1        0.0558
     36 H           3.3822   -3.2109   -2.1229 H       1  UNL1        0.0558
     37 H           4.4885   -1.9690    0.2659 H       1  UNL1        0.1496
     38 H           4.0618   -1.1494    2.1561 H       1  UNL1        0.0853
     39 H           0.3290    1.4164    4.2657 H       1  UNL1        0.0654
     40 H          -1.6386    1.9919    2.9366 H       1  UNL1        0.0626
     41 H          -2.5445   -1.3075   -2.1921 H       1  UNL1        0.0625
     42 H          -2.3382   -3.7350   -2.0607 H       1  UNL1        0.0646
     43 H          -2.8243   -3.5424    2.1480 H       1  UNL1        0.0646
     44 H          -3.0310   -1.0631    1.9766 H       1  UNL1        0.0625
     45 H          -4.2632    3.2561   -1.2223 H       1  UNL1        0.1029
     46 H          -2.7337    4.6802    0.4328 H       1  UNL1        0.0548
     47 H          -1.4262    3.7493    1.3239 H       1  UNL1        0.0548
     48 H          -1.4598    4.4168   -1.6666 H       1  UNL1        0.1037
     49 H           0.0465    0.0719   -0.4162 H       1  UNL1        0.0820
@<TRIPOS>BOND
     1     1     2   am
     2     2     3    2
     3     2     4    1
     4     4     5    1
     5     5     6   am
     6     6     7    2
     7     6     8    1
     8     8     9   ar
     9     9    10   ar
    10    10    11   ar
    11    11    12   ar
    12    12    13   ar
    13    13    14   ar
    14    14    15    1
    15    15    16   ar
    16    16    17    1
    17    17    18   ar
    18    18    19   ar
    19    19    20   ar
    20    20    21    1
    21    20    22   ar
    22    22    23   ar
    23    16    24   ar
    24    24    25   ar
    25    25    26   ar
    26    26    27    1
    27    27    28    1
    28    28    29    1
    29    28    30    1
    30    14    31   ar
    31    31    32   ar
    32    32     8   ar
    33    32    11   ar
    34    26    15   ar
    35    23    17   ar
    36     1    33    1
    37     1    34    1
    38     4    35    1
    39     4    36    1
    40     5    37    1
    41     9    38    1
    42    12    39    1
    43    13    40    1
    44    18    41    1
    45    19    42    1
    46    22    43    1
    47    23    44    1
    48    25    45    1
    49    27    46    1
    50    27    47    1
    51    28    48    1
    52    31    49    1
