
     RDKit          3D

 49 52  0  0  0  0  0  0  0  0999 V2000
    3.9528   -0.0599   -2.5256 N   0  0  0  0  0  0  0  0  0  0  0  0
    4.2270   -1.4079   -2.8795 C   0  0  0  0  0  0  0  0  0  0  0  0
    4.5105   -1.6985   -4.0824 O   0  0  0  0  0  0  0  0  0  0  0  0
    4.1860   -2.4876   -1.8532 C   0  0  0  0  0  0  0  0  0  0  0  0
    3.8399   -1.9048   -0.5713 N   0  0  0  0  0  0  0  0  0  0  0  0
    2.6200   -1.2130   -0.3463 C   0  0  0  0  0  0  0  0  0  0  0  0
    1.8216   -1.1134   -1.3095 O   0  0  0  0  0  0  0  0  0  0  0  0
    2.3028   -0.6327    0.9716 C   0  0  0  0  0  0  0  0  0  0  0  0
    3.1000   -0.6817    2.0908 C   0  0  0  0  0  0  0  0  0  0  0  0
    2.4975   -0.0531    3.1062 N   0  0  0  0  0  0  0  0  0  0  0  0
    1.3173    0.3975    2.6389 C   0  0  0  0  0  0  0  0  0  0  0  0
    0.2951    1.1050    3.2322 C   0  0  0  0  0  0  0  0  0  0  0  0
   -0.8240    1.4378    2.4912 C   0  0  0  0  0  0  0  0  0  0  0  0
   -0.9558    1.0831    1.1643 C   0  0  0  0  0  0  0  0  0  0  0  0
   -2.1110    1.4091    0.3392 C   0  0  0  0  0  0  0  0  0  0  0  0
   -2.9237    0.4476   -0.2215 C   0  0  0  0  0  0  0  0  0  0  0  0
   -2.8056   -0.9839   -0.1126 C   0  0  0  0  0  0  0  0  0  0  0  0
   -2.6074   -1.7906   -1.2328 C   0  0  0  0  0  0  0  0  0  0  0  0
   -2.4925   -3.1552   -1.1489 C   0  0  0  0  0  0  0  0  0  0  0  0
   -2.5725   -3.7638    0.0667 C   0  0  0  0  0  0  0  0  0  0  0  0
   -2.4578   -5.1156    0.1430 F   0  0  0  0  0  0  0  0  0  0  0  0
   -2.7687   -3.0028    1.2068 C   0  0  0  0  0  0  0  0  0  0  0  0
   -2.8799   -1.6471    1.0973 C   0  0  0  0  0  0  0  0  0  0  0  0
   -3.8688    1.1168   -0.9047 N   0  0  0  0  0  0  0  0  0  0  0  0
   -3.6938    2.4312   -0.8033 C   0  0  0  0  0  0  0  0  0  0  0  0
   -2.6019    2.6082   -0.0307 N   0  0  0  0  0  0  0  0  0  0  0  0
   -1.9933    3.8658    0.3786 C   0  0  0  0  0  0  0  0  0  0  0  0
   -0.9620    4.2370   -0.6794 C   0  0  0  0  0  0  0  0  0  0  0  0
   -0.0076    3.2550   -0.7713 F   0  0  0  0  0  0  0  0  0  0  0  0
   -0.3219    5.3816   -0.2314 F   0  0  0  0  0  0  0  0  0  0  0  0
    0.0973    0.3738    0.6153 C   0  0  0  0  0  0  0  0  0  0  0  0
    1.2086    0.0384    1.3356 N   0  0  0  0  0  0  0  0  0  0  0  0
    3.4470    0.5313   -3.2175 H   0  0  0  0  0  0  0  0  0  0  0  0
    4.2239    0.3766   -1.6200 H   0  0  0  0  0  0  0  0  0  0  0  0
    5.1523   -2.9894   -1.8437 H   0  0  0  0  0  0  0  0  0  0  0  0
    3.3822   -3.2109   -2.1229 H   0  0  0  0  0  0  0  0  0  0  0  0
    4.4885   -1.9690    0.2659 H   0  0  0  0  0  0  0  0  0  0  0  0
    4.0618   -1.1494    2.1561 H   0  0  0  0  0  0  0  0  0  0  0  0
    0.3290    1.4164    4.2657 H   0  0  0  0  0  0  0  0  0  0  0  0
   -1.6386    1.9919    2.9366 H   0  0  0  0  0  0  0  0  0  0  0  0
   -2.5445   -1.3075   -2.1921 H   0  0  0  0  0  0  0  0  0  0  0  0
   -2.3382   -3.7350   -2.0607 H   0  0  0  0  0  0  0  0  0  0  0  0
   -2.8243   -3.5424    2.1480 H   0  0  0  0  0  0  0  0  0  0  0  0
   -3.0310   -1.0631    1.9766 H   0  0  0  0  0  0  0  0  0  0  0  0
   -4.2632    3.2561   -1.2223 H   0  0  0  0  0  0  0  0  0  0  0  0
   -2.7337    4.6802    0.4328 H   0  0  0  0  0  0  0  0  0  0  0  0
   -1.4262    3.7493    1.3239 H   0  0  0  0  0  0  0  0  0  0  0  0
   -1.4598    4.4168   -1.6666 H   0  0  0  0  0  0  0  0  0  0  0  0
    0.0465    0.0719   -0.4162 H   0  0  0  0  0  0  0  0  0  0  0  0
  1  2  1  0
  2  3  2  0
  2  4  1  0
  4  5  1  0
  5  6  1  0
  6  7  2  0
  6  8  1  0
  8  9  2  0
  9 10  1  0
 10 11  2  0
 11 12  1  0
 12 13  2  0
 13 14  1  0
 14 15  1  0
 15 16  2  0
 16 17  1  0
 17 18  2  0
 18 19  1  0
 19 20  2  0
 20 21  1  0
 20 22  1  0
 22 23  2  0
 16 24  1  0
 24 25  2  0
 25 26  1  0
 26 27  1  0
 27 28  1  0
 28 29  1  0
 28 30  1  0
 14 31  2  0
 31 32  1  0
 32  8  1  0
 32 11  1  0
 26 15  1  0
 23 17  1  0
  1 33  1  0
  1 34  1  0
  4 35  1  0
  4 36  1  0
  5 37  1  0
  9 38  1  0
 12 39  1  0
 13 40  1  0
 18 41  1  0
 19 42  1  0
 22 43  1  0
 23 44  1  0
 25 45  1  0
 27 46  1  0
 27 47  1  0
 28 48  1  0
 31 49  1  0
M  END
$$$$
