@<TRIPOS>MOLECULE
*****
 139 138 0 0 0
SMALL
GASTEIGER

@<TRIPOS>ATOM
      1 C          -6.7102    4.0394    1.4756 C.3     1  UNL1       -0.0653
      2 C          -5.8119    4.3837    2.6278 C.3     1  UNL1       -0.0559
      3 C          -4.5309    5.0431    2.2179 C.3     1  UNL1       -0.0533
      4 C          -3.6996    4.1870    1.3022 C.3     1  UNL1       -0.0531
      5 C          -3.3079    2.8750    1.9238 C.3     1  UNL1       -0.0530
      6 C          -2.4829    2.0365    1.0074 C.3     1  UNL1       -0.0528
      7 C          -1.1917    2.6420    0.5615 C.3     1  UNL1       -0.0496
      8 C          -0.3342    2.9305    1.7619 C.3     1  UNL1       -0.0348
      9 C           0.9842    3.5250    1.4159 C.2     1  UNL1       -0.0879
     10 C           1.3322    4.7445    1.8761 C.2     1  UNL1       -0.0879
     11 C           0.7247    5.7884    2.7186 C.3     1  UNL1       -0.0348
     12 C           1.4587    6.1737    3.9356 C.3     1  UNL1       -0.0496
     13 C           1.7178    5.1940    5.0022 C.3     1  UNL1       -0.0528
     14 C           2.5173    3.9854    4.6888 C.3     1  UNL1       -0.0530
     15 C           2.6879    3.1422    5.9518 C.3     1  UNL1       -0.0526
     16 C           3.4949    1.9079    5.6782 C.3     1  UNL1       -0.0430
     17 C           2.9298    0.9738    4.6722 C.3     1  UNL1        0.0449
     18 C           1.5991    0.4151    5.0131 C.2     1  UNL1        0.3072
     19 O           0.5635    0.2196    5.6770 O.2     1  UNL1       -0.2509
     20 O           1.1547   -0.4297    4.0348 O.3     1  UNL1       -0.4608
     21 C          -0.0373   -1.1500    3.9888 C.3     1  UNL1        0.1315
     22 C          -0.0145   -1.9055    2.6571 C.3     1  UNL1        0.1605
     23 C          -1.2812   -2.6376    2.3741 C.3     1  UNL1        0.0993
     24 O          -2.3650   -1.7672    2.4437 O.3     1  UNL1       -0.2828
     25 P          -3.8129   -2.5867    2.1200 P.3     1  UNL1        0.4752
     26 O          -3.6467   -3.4988    0.9150 O.2     1  UNL1       -0.2273
     27 O          -4.2827   -3.5495    3.4274 O.3     1  UNL1       -0.3025
     28 O          -5.0125   -1.4726    1.8158 O.3     1  UNL1       -0.2813
     29 C          -5.3195   -1.4357    0.4341 C.3     1  UNL1        0.0989
     30 C          -6.5467   -0.5937    0.2841 C.3     1  UNL1       -0.0063
     31 N          -6.9995   -0.4493   -1.0738 N.4     1  UNL1        0.2385
     32 C          -7.8319   -1.5686   -1.4907 C.3     1  UNL1       -0.0417
     33 C          -7.8385    0.7363   -1.1009 C.3     1  UNL1       -0.0417
     34 C          -5.9694   -0.2838   -2.0490 C.3     1  UNL1       -0.0417
     35 O           1.1205   -2.7575    2.5892 O.3     1  UNL1       -0.4555
     36 C           2.1389   -2.4891    1.6720 C.2     1  UNL1        0.3075
     37 O           1.9954   -1.4887    0.9518 O.2     1  UNL1       -0.2508
     38 C           3.4154   -3.2605    1.4258 C.3     1  UNL1        0.0450
     39 C           3.4393   -4.5313    2.1776 C.3     1  UNL1       -0.0430
     40 C           2.3963   -5.5144    1.9417 C.3     1  UNL1       -0.0526
     41 C           2.1912   -6.3570    0.7780 C.3     1  UNL1       -0.0530
     42 C           2.1272   -5.8997   -0.6081 C.3     1  UNL1       -0.0528
     43 C           3.4051   -5.5329   -1.2723 C.3     1  UNL1       -0.0496
     44 C           3.1398   -5.0005   -2.6777 C.3     1  UNL1       -0.0348
     45 C           2.2812   -3.8067   -2.6730 C.2     1  UNL1       -0.0879
     46 C           2.6289   -2.5917   -3.1363 C.2     1  UNL1       -0.0879
     47 C           3.8835   -2.0682   -3.7580 C.3     1  UNL1       -0.0348
     48 C           3.5316   -1.5695   -5.1142 C.3     1  UNL1       -0.0496
     49 C           4.7432   -1.0197   -5.8499 C.3     1  UNL1       -0.0528
     50 C           5.3060    0.1179   -5.0541 C.3     1  UNL1       -0.0530
     51 C           6.5130    0.6899   -5.7375 C.3     1  UNL1       -0.0531
     52 C           6.1667    1.2183   -7.0867 C.3     1  UNL1       -0.0533
     53 C           7.3784    1.8204   -7.7885 C.3     1  UNL1       -0.0559
     54 C           6.9464    2.3385   -9.1504 C.3     1  UNL1       -0.0653
     55 H          -6.6996    4.8145    0.7022 H       1  UNL1        0.0230
     56 H          -7.7537    3.8954    1.8097 H       1  UNL1        0.0230
     57 H          -6.3689    3.0861    1.0157 H       1  UNL1        0.0230
     58 H          -5.5662    3.5366    3.2666 H       1  UNL1        0.0263
     59 H          -6.3427    5.1304    3.2851 H       1  UNL1        0.0263
     60 H          -4.7839    5.9764    1.6817 H       1  UNL1        0.0265
     61 H          -3.9574    5.3128    3.1112 H       1  UNL1        0.0265
     62 H          -2.7888    4.7796    1.0329 H       1  UNL1        0.0265
     63 H          -4.2457    4.0475    0.3523 H       1  UNL1        0.0265
     64 H          -4.2621    2.3161    2.1015 H       1  UNL1        0.0265
     65 H          -2.8086    3.0394    2.8789 H       1  UNL1        0.0265
     66 H          -3.0467    1.7189    0.1060 H       1  UNL1        0.0265
     67 H          -2.2338    1.0772    1.5408 H       1  UNL1        0.0265
     68 H          -1.3227    3.5268   -0.0914 H       1  UNL1        0.0268
     69 H          -0.6926    1.8656   -0.0842 H       1  UNL1        0.0268
     70 H          -0.1578    1.9385    2.2584 H       1  UNL1        0.0307
     71 H          -0.9051    3.5428    2.4645 H       1  UNL1        0.0307
     72 H           1.6736    2.9763    0.7889 H       1  UNL1        0.0569
     73 H           2.3378    5.0767    1.5538 H       1  UNL1        0.0569
     74 H          -0.3652    5.5902    2.9038 H       1  UNL1        0.0307
     75 H           0.6873    6.7137    2.0564 H       1  UNL1        0.0307
     76 H           2.4232    6.6790    3.5836 H       1  UNL1        0.0268
     77 H           0.9363    7.0601    4.4308 H       1  UNL1        0.0268
     78 H           0.7565    4.8631    5.5004 H       1  UNL1        0.0265
     79 H           2.2225    5.7662    5.8457 H       1  UNL1        0.0265
     80 H           3.5129    4.2564    4.3468 H       1  UNL1        0.0265
     81 H           1.9326    3.3274    4.0122 H       1  UNL1        0.0265
     82 H           1.7079    2.9617    6.4098 H       1  UNL1        0.0265
     83 H           3.2796    3.7572    6.6606 H       1  UNL1        0.0265
     84 H           3.6824    1.4151    6.6455 H       1  UNL1        0.0270
     85 H           4.4868    2.2381    5.3068 H       1  UNL1        0.0270
     86 H           2.8668    1.4140    3.6631 H       1  UNL1        0.0377
     87 H           3.6268    0.1074    4.6015 H       1  UNL1        0.0377
     88 H          -0.9434   -0.5138    3.9309 H       1  UNL1        0.0736
     89 H          -0.1894   -1.8378    4.8485 H       1  UNL1        0.0736
     90 H           0.1251   -1.1181    1.8922 H       1  UNL1        0.0792
     91 H          -1.2170   -2.9447    1.2898 H       1  UNL1        0.0604
     92 H          -1.4451   -3.5160    3.0177 H       1  UNL1        0.0604
     93 H          -3.8622   -4.4432    3.3811 H       1  UNL1        0.2220
     94 H          -5.4942   -2.4910    0.1406 H       1  UNL1        0.0619
     95 H          -4.4212   -0.9828   -0.0316 H       1  UNL1        0.0619
     96 H          -7.3823   -1.1428    0.8171 H       1  UNL1        0.0838
     97 H          -6.4313    0.3661    0.8234 H       1  UNL1        0.0838
     98 H          -8.7282   -1.5558   -0.8456 H       1  UNL1        0.0778
     99 H          -8.1609   -1.3208   -2.5228 H       1  UNL1        0.0778
    100 H          -7.2872   -2.5301   -1.4765 H       1  UNL1        0.0778
    101 H          -8.0997    1.0134   -2.1505 H       1  UNL1        0.0778
    102 H          -7.3237    1.6054   -0.6613 H       1  UNL1        0.0778
    103 H          -8.8032    0.5472   -0.5823 H       1  UNL1        0.0778
    104 H          -5.3225    0.5512   -1.7657 H       1  UNL1        0.0778
    105 H          -5.4420   -1.2242   -2.3037 H       1  UNL1        0.0778
    106 H          -6.4781    0.0315   -2.9945 H       1  UNL1        0.0778
    107 H           4.2458   -2.5862    1.8542 H       1  UNL1        0.0377
    108 H           3.5904   -3.2930    0.3908 H       1  UNL1        0.0377
    109 H           3.6346   -4.3632    3.2834 H       1  UNL1        0.0270
    110 H           4.4318   -5.0326    1.8763 H       1  UNL1        0.0270
    111 H           2.4903   -6.2701    2.8428 H       1  UNL1        0.0265
    112 H           1.3554   -5.0191    2.2262 H       1  UNL1        0.0265
    113 H           3.0460   -7.1531    0.8159 H       1  UNL1        0.0265
    114 H           1.3055   -7.0862    0.9669 H       1  UNL1        0.0265
    115 H           1.3491   -5.0820   -0.7169 H       1  UNL1        0.0265
    116 H           1.6702   -6.7359   -1.2337 H       1  UNL1        0.0265
    117 H           3.8906   -6.5664   -1.5032 H       1  UNL1        0.0268
    118 H           4.1286   -4.9369   -0.7594 H       1  UNL1        0.0268
    119 H           2.6037   -5.8062   -3.2222 H       1  UNL1        0.0307
    120 H           4.0951   -4.8534   -3.2083 H       1  UNL1        0.0307
    121 H           1.2731   -3.8525   -2.2811 H       1  UNL1        0.0569
    122 H           1.9039   -1.7716   -3.0862 H       1  UNL1        0.0569
    123 H           4.6897   -2.8278   -3.7508 H       1  UNL1        0.0307
    124 H           4.2095   -1.2377   -3.1033 H       1  UNL1        0.0307
    125 H           3.1253   -2.4161   -5.7040 H       1  UNL1        0.0268
    126 H           2.7388   -0.7928   -4.9814 H       1  UNL1        0.0268
    127 H           5.4635   -1.8788   -5.8922 H       1  UNL1        0.0265
    128 H           4.4788   -0.7863   -6.8835 H       1  UNL1        0.0265
    129 H           4.5558    0.9459   -4.9297 H       1  UNL1        0.0265
    130 H           5.6332   -0.2122   -4.0419 H       1  UNL1        0.0265
    131 H           7.2927   -0.1191   -5.8302 H       1  UNL1        0.0265
    132 H           6.9192    1.5189   -5.1167 H       1  UNL1        0.0265
    133 H           5.8119    0.3739   -7.7416 H       1  UNL1        0.0265
    134 H           5.3371    1.9269   -6.9977 H       1  UNL1        0.0265
    135 H           8.1191    1.0158   -7.9441 H       1  UNL1        0.0263
    136 H           7.8215    2.6457   -7.1987 H       1  UNL1        0.0263
    137 H           6.1255    3.0754   -9.0607 H       1  UNL1        0.0230
    138 H           6.5501    1.5215   -9.7782 H       1  UNL1        0.0230
    139 H           7.8105    2.7491   -9.6969 H       1  UNL1        0.0230
@<TRIPOS>UNITY_ATOM_ATTR
31 1
charge 1
@<TRIPOS>BOND
     1     1     2    1
     2     2     3    1
     3     3     4    1
     4     4     5    1
     5     5     6    1
     6     6     7    1
     7     7     8    1
     8     8     9    1
     9     9    10    2
    10    10    11    1
    11    11    12    1
    12    12    13    1
    13    13    14    1
    14    14    15    1
    15    15    16    1
    16    16    17    1
    17    17    18    1
    18    18    19    2
    19    18    20    1
    20    20    21    1
    21    21    22    1
    22    22    23    1
    23    23    24    1
    24    24    25    1
    25    25    26    2
    26    25    27    1
    27    25    28    1
    28    28    29    1
    29    29    30    1
    30    30    31    1
    31    31    32    1
    32    31    33    1
    33    31    34    1
    34    22    35    1
    35    35    36    1
    36    36    37    2
    37    36    38    1
    38    38    39    1
    39    39    40    1
    40    40    41    1
    41    41    42    1
    42    42    43    1
    43    43    44    1
    44    44    45    1
    45    45    46    2
    46    46    47    1
    47    47    48    1
    48    48    49    1
    49    49    50    1
    50    50    51    1
    51    51    52    1
    52    52    53    1
    53    53    54    1
    54     1    55    1
    55     1    56    1
    56     1    57    1
    57     2    58    1
    58     2    59    1
    59     3    60    1
    60     3    61    1
    61     4    62    1
    62     4    63    1
    63     5    64    1
    64     5    65    1
    65     6    66    1
    66     6    67    1
    67     7    68    1
    68     7    69    1
    69     8    70    1
    70     8    71    1
    71     9    72    1
    72    10    73    1
    73    11    74    1
    74    11    75    1
    75    12    76    1
    76    12    77    1
    77    13    78    1
    78    13    79    1
    79    14    80    1
    80    14    81    1
    81    15    82    1
    82    15    83    1
    83    16    84    1
    84    16    85    1
    85    17    86    1
    86    17    87    1
    87    21    88    1
    88    21    89    1
    89    22    90    1
    90    23    91    1
    91    23    92    1
    92    27    93    1
    93    29    94    1
    94    29    95    1
    95    30    96    1
    96    30    97    1
    97    32    98    1
    98    32    99    1
    99    32   100    1
   100    33   101    1
   101    33   102    1
   102    33   103    1
   103    34   104    1
   104    34   105    1
   105    34   106    1
   106    38   107    1
   107    38   108    1
   108    39   109    1
   109    39   110    1
   110    40   111    1
   111    40   112    1
   112    41   113    1
   113    41   114    1
   114    42   115    1
   115    42   116    1
   116    43   117    1
   117    43   118    1
   118    44   119    1
   119    44   120    1
   120    45   121    1
   121    46   122    1
   122    47   123    1
   123    47   124    1
   124    48   125    1
   125    48   126    1
   126    49   127    1
   127    49   128    1
   128    50   129    1
   129    50   130    1
   130    51   131    1
   131    51   132    1
   132    52   133    1
   133    52   134    1
   134    53   135    1
   135    53   136    1
   136    54   137    1
   137    54   138    1
   138    54   139    1
