@<TRIPOS>MOLECULE
*****
 50 52 0 0 0
SMALL
GASTEIGER

@<TRIPOS>ATOM
      1 C          -0.1602    2.3324   -0.5672 C.3     1  UNL1        0.1096
      2 C          -1.3513    2.3581   -1.4994 C.3     1  UNL1       -0.0000
      3 C          -2.2890    1.2405   -1.2696 C.ar    1  UNL1       -0.0403
      4 C          -1.8078    0.0624   -0.7549 C.ar    1  UNL1       -0.0249
      5 C          -0.3983   -0.1832   -0.4051 C.3     1  UNL1        0.0440
      6 N           0.4066    1.0037   -0.4270 N.am    1  UNL1       -0.2512
      7 C           1.8052    0.9223   -0.3109 C.2     1  UNL1        0.4041
      8 O           2.5894    1.9060   -0.3198 O.2     1  UNL1       -0.2262
      9 O           2.5244   -0.2619   -0.1690 O.3     1  UNL1       -0.4455
     10 C           3.9288   -0.1029   -0.0698 C.3     1  UNL1        0.1191
     11 C           4.6316   -1.3773    0.0773 C.ar    1  UNL1       -0.0103
     12 C           5.0783   -2.1053   -1.0055 C.ar    1  UNL1       -0.0554
     13 C           5.7453   -3.3103   -0.9291 C.ar    1  UNL1       -0.0614
     14 C           5.9925   -3.8433    0.3334 C.ar    1  UNL1       -0.0617
     15 C           5.5506   -3.1263    1.4497 C.ar    1  UNL1       -0.0614
     16 C           4.8851   -1.9199    1.3157 C.ar    1  UNL1       -0.0554
     17 C          -2.7234   -0.9506   -0.5588 C.ar    1  UNL1       -0.0343
     18 C          -4.0531   -0.7612   -0.8736 C.ar    1  UNL1        0.0502
     19 N          -5.0903   -1.7462   -0.7101 N.pl3   1  UNL1       -0.1970
     20 S          -5.1393   -2.6409    0.7648 S.O2    1  UNL1        0.1639
     21 O          -3.7296   -3.5277    0.9501 O.3     1  UNL1       -0.2378
     22 O          -5.2598   -1.7272    1.9664 O.2     1  UNL1       -0.1267
     23 O          -6.3262   -3.5502    0.7162 O.2     1  UNL1       -0.1267
     24 C          -4.5314    0.4340   -1.3939 C.ar    1  UNL1       -0.0390
     25 C          -3.6144    1.4546   -1.5926 C.ar    1  UNL1       -0.0564
     26 C          -0.5132    2.8741    0.7928 C.2     1  UNL1        0.2338
     27 O          -0.2154    2.0144    1.6860 O.2     1  UNL1       -0.2738
     28 N          -1.0801    4.1482    0.9311 N.am    1  UNL1       -0.3168
     29 C          -1.3474    4.4887    2.3145 C.3     1  UNL1        0.0001
     30 H           0.5808    3.0388   -1.0337 H       1  UNL1        0.0601
     31 H          -1.8113    3.3428   -1.4331 H       1  UNL1        0.0336
     32 H          -0.9306    2.2019   -2.5275 H       1  UNL1        0.0336
     33 H          -0.0217   -0.9766   -1.1150 H       1  UNL1        0.0515
     34 H          -0.4122   -0.7060    0.5851 H       1  UNL1        0.0515
     35 H           4.0854    0.4659    0.8911 H       1  UNL1        0.0749
     36 H           4.2758    0.4751   -0.9375 H       1  UNL1        0.0749
     37 H           4.8794   -1.6787   -1.9904 H       1  UNL1        0.0621
     38 H           6.0755   -3.8424   -1.8153 H       1  UNL1        0.0618
     39 H           6.5073   -4.7785    0.4658 H       1  UNL1        0.0618
     40 H           5.7608   -3.5712    2.4030 H       1  UNL1        0.0618
     41 H           4.5734   -1.4211    2.2007 H       1  UNL1        0.0621
     42 H          -2.4463   -1.9164   -0.1587 H       1  UNL1        0.0640
     43 H          -5.7840   -1.8995   -1.4752 H       1  UNL1        0.1756
     44 H          -3.9493   -4.4802    1.1048 H       1  UNL1        0.2463
     45 H          -5.5616    0.6298   -1.6556 H       1  UNL1        0.0637
     46 H          -3.9693    2.4115   -2.0039 H       1  UNL1        0.0621
     47 H          -1.2370    4.6817    0.0531 H       1  UNL1        0.1484
     48 H          -0.4296    4.2722    2.9192 H       1  UNL1        0.0426
     49 H          -1.4384    5.6052    2.3600 H       1  UNL1        0.0426
     50 H          -2.2547    4.0407    2.7214 H       1  UNL1        0.0426
@<TRIPOS>BOND
     1     1     2    1
     2     2     3    1
     3     3     4   ar
     4     4     5    1
     5     5     6    1
     6     6     7   am
     7     7     8    2
     8     7     9    1
     9     9    10    1
    10    10    11    1
    11    11    12   ar
    12    12    13   ar
    13    13    14   ar
    14    14    15   ar
    15    15    16   ar
    16     4    17   ar
    17    17    18   ar
    18    18    19    1
    19    19    20    1
    20    20    21    1
    21    20    22    2
    22    20    23    2
    23    18    24   ar
    24    24    25   ar
    25     1    26    1
    26    26    27    2
    27    26    28   am
    28    28    29    1
    29     6     1    1
    30    16    11   ar
    31    25     3   ar
    32     1    30    1
    33     2    31    1
    34     2    32    1
    35     5    33    1
    36     5    34    1
    37    10    35    1
    38    10    36    1
    39    12    37    1
    40    13    38    1
    41    14    39    1
    42    15    40    1
    43    16    41    1
    44    17    42    1
    45    19    43    1
    46    21    44    1
    47    24    45    1
    48    25    46    1
    49    28    47    1
    50    29    48    1
    51    29    49    1
    52    29    50    1
