
     RDKit          3D

 75 78  0  0  0  0  0  0  0  0999 V2000
    8.1064   -3.9947    0.1876 C   0  0  0  0  0  0  0  0  0  0  0  0
    6.8197   -3.6298   -0.2536 O   0  0  0  0  0  0  0  0  0  0  0  0
    6.2530   -2.4550    0.2183 C   0  0  0  0  0  0  0  0  0  0  0  0
    6.8969   -1.6213    1.1070 C   0  0  0  0  0  0  0  0  0  0  0  0
    6.3388   -0.4535    1.5789 C   0  0  0  0  0  0  0  0  0  0  0  0
    5.0918   -0.0962    1.1537 C   0  0  0  0  0  0  0  0  0  0  0  0
    4.4995    1.1577    1.6571 C   0  0  0  0  0  0  0  0  0  0  0  0
    3.7507    0.8822    2.9295 C   0  0  0  0  0  0  0  0  0  0  0  0
    2.6832   -0.0601    2.7480 N   0  0  0  0  0  0  0  0  0  0  0  0
    1.5920    0.2836    1.9050 C   0  0  0  0  0  0  0  0  0  0  0  0
    0.6235   -0.6282    1.7456 N   0  0  0  0  0  0  0  0  0  0  0  0
   -0.4080   -0.3496    0.9742 C   0  0  0  0  0  0  0  0  0  0  0  0
   -0.4762    0.9022    0.3301 C   0  0  0  0  0  0  0  0  0  0  0  0
   -1.5483    1.0376   -0.6008 C   0  0  0  0  0  0  0  0  0  0  0  0
   -1.5167    1.8304   -1.5514 O   0  0  0  0  0  0  0  0  0  0  0  0
   -2.7348    0.2646   -0.4900 N   0  0  0  0  0  0  0  0  0  0  0  0
   -3.8133    0.4473   -1.4870 C   0  0  0  0  0  0  0  0  0  0  0  0
   -4.9404   -0.4688   -1.1576 C   0  0  0  0  0  0  0  0  0  0  0  0
   -4.5280   -1.9289   -1.1785 C   0  0  0  0  0  0  0  0  0  0  0  0
   -5.6628   -2.7880   -0.8517 N   0  0  0  0  0  0  0  0  0  0  0  0
   -6.0159   -3.2061    0.4905 C   0  0  0  0  0  0  0  0  0  0  0  0
   -6.6419   -4.5680    0.2611 C   0  0  0  0  0  0  0  0  0  0  0  0
   -7.5355   -4.2620   -0.9409 C   0  0  0  0  0  0  0  0  0  0  0  0
   -6.6175   -3.3704   -1.7248 C   0  0  0  0  0  0  0  0  0  0  0  0
   -6.6504   -3.1411   -2.9759 O   0  0  0  0  0  0  0  0  0  0  0  0
    0.4784    1.8514    0.4689 C   0  0  0  0  0  0  0  0  0  0  0  0
    0.4869    3.1550    0.0182 N   0  0  0  0  0  0  0  0  0  0  0  0
   -0.3664    4.0857   -0.5794 C   0  0  0  0  0  0  0  0  0  0  0  0
   -1.5606    4.3619    0.3046 C   0  0  0  0  0  0  0  0  0  0  0  0
   -2.1230    5.6553   -0.2439 C   0  0  0  0  0  0  0  0  0  0  0  0
   -0.8951    6.3862   -0.7518 C   0  0  0  0  0  0  0  0  0  0  0  0
    0.2832    5.5263   -0.4020 C   0  0  0  0  0  0  0  0  0  0  0  0
    1.5316    1.4700    1.2995 N   0  0  0  0  0  0  0  0  0  0  0  0
    4.4175   -0.8987    0.2693 C   0  0  0  0  0  0  0  0  0  0  0  0
    4.9944   -2.0829   -0.2034 C   0  0  0  0  0  0  0  0  0  0  0  0
    4.3401   -2.9186   -1.0988 O   0  0  0  0  0  0  0  0  0  0  0  0
    3.0398   -2.5257   -1.5288 C   0  0  0  0  0  0  0  0  0  0  0  0
    8.4614   -4.8705   -0.4215 H   0  0  0  0  0  0  0  0  0  0  0  0
    8.1457   -4.3212    1.2311 H   0  0  0  0  0  0  0  0  0  0  0  0
    8.7990   -3.1268    0.0670 H   0  0  0  0  0  0  0  0  0  0  0  0
    7.8954   -1.9180    1.4405 H   0  0  0  0  0  0  0  0  0  0  0  0
    6.9162    0.1536    2.2832 H   0  0  0  0  0  0  0  0  0  0  0  0
    3.8448    1.5837    0.8864 H   0  0  0  0  0  0  0  0  0  0  0  0
    5.3450    1.8662    1.8589 H   0  0  0  0  0  0  0  0  0  0  0  0
    3.3865    1.8752    3.2944 H   0  0  0  0  0  0  0  0  0  0  0  0
    4.4356    0.5316    3.7391 H   0  0  0  0  0  0  0  0  0  0  0  0
    2.7238   -0.9830    3.2373 H   0  0  0  0  0  0  0  0  0  0  0  0
   -1.1911   -1.0941    0.8374 H   0  0  0  0  0  0  0  0  0  0  0  0
   -2.8739   -0.4076    0.2654 H   0  0  0  0  0  0  0  0  0  0  0  0
   -3.3948    0.2608   -2.5100 H   0  0  0  0  0  0  0  0  0  0  0  0
   -4.1186    1.4888   -1.3995 H   0  0  0  0  0  0  0  0  0  0  0  0
   -5.7716   -0.2729   -1.8677 H   0  0  0  0  0  0  0  0  0  0  0  0
   -5.3283   -0.1825   -0.1568 H   0  0  0  0  0  0  0  0  0  0  0  0
   -4.1251   -2.1454   -2.1775 H   0  0  0  0  0  0  0  0  0  0  0  0
   -3.7230   -2.1010   -0.4498 H   0  0  0  0  0  0  0  0  0  0  0  0
   -6.7671   -2.5128    0.9295 H   0  0  0  0  0  0  0  0  0  0  0  0
   -5.1115   -3.2720    1.1395 H   0  0  0  0  0  0  0  0  0  0  0  0
   -5.8346   -5.2726   -0.0090 H   0  0  0  0  0  0  0  0  0  0  0  0
   -7.2426   -4.9061    1.1312 H   0  0  0  0  0  0  0  0  0  0  0  0
   -7.8322   -5.1581   -1.4865 H   0  0  0  0  0  0  0  0  0  0  0  0
   -8.4039   -3.6755   -0.5298 H   0  0  0  0  0  0  0  0  0  0  0  0
    1.4938    3.6166    0.1420 H   0  0  0  0  0  0  0  0  0  0  0  0
   -0.5331    4.1004   -1.6448 H   0  0  0  0  0  0  0  0  0  0  0  0
   -1.1475    4.5927    1.3289 H   0  0  0  0  0  0  0  0  0  0  0  0
   -2.2841    3.5769    0.4107 H   0  0  0  0  0  0  0  0  0  0  0  0
   -2.6439    6.2229    0.5562 H   0  0  0  0  0  0  0  0  0  0  0  0
   -2.7730    5.3979   -1.0916 H   0  0  0  0  0  0  0  0  0  0  0  0
   -0.8646    7.3943   -0.2918 H   0  0  0  0  0  0  0  0  0  0  0  0
   -0.9277    6.4518   -1.8738 H   0  0  0  0  0  0  0  0  0  0  0  0
    0.5502    5.6649    0.6443 H   0  0  0  0  0  0  0  0  0  0  0  0
    1.1249    5.5809   -1.0893 H   0  0  0  0  0  0  0  0  0  0  0  0
    3.4262   -0.6631   -0.1039 H   0  0  0  0  0  0  0  0  0  0  0  0
    2.7247   -3.2623   -2.2955 H   0  0  0  0  0  0  0  0  0  0  0  0
    3.0591   -1.5278   -2.0067 H   0  0  0  0  0  0  0  0  0  0  0  0
    2.3673   -2.5355   -0.6314 H   0  0  0  0  0  0  0  0  0  0  0  0
  1  2  1  0
  2  3  1  0
  3  4  2  0
  4  5  1  0
  5  6  2  0
  6  7  1  0
  7  8  1  0
  8  9  1  0
  9 10  1  0
 10 11  2  0
 11 12  1  0
 12 13  2  0
 13 14  1  0
 14 15  2  0
 14 16  1  0
 16 17  1  0
 17 18  1  0
 18 19  1  0
 19 20  1  0
 20 21  1  0
 21 22  1  0
 22 23  1  0
 23 24  1  0
 24 25  2  0
 13 26  1  0
 26 27  1  0
 27 28  1  0
 28 29  1  0
 29 30  1  0
 30 31  1  0
 31 32  1  0
 26 33  2  0
  6 34  1  0
 34 35  2  0
 35 36  1  0
 36 37  1  0
 35  3  1  0
 33 10  1  0
 24 20  1  0
 32 28  1  0
  1 38  1  0
  1 39  1  0
  1 40  1  0
  4 41  1  0
  5 42  1  0
  7 43  1  0
  7 44  1  0
  8 45  1  0
  8 46  1  0
  9 47  1  0
 12 48  1  0
 16 49  1  0
 17 50  1  0
 17 51  1  0
 18 52  1  0
 18 53  1  0
 19 54  1  0
 19 55  1  0
 21 56  1  0
 21 57  1  0
 22 58  1  0
 22 59  1  0
 23 60  1  0
 23 61  1  0
 27 62  1  0
 28 63  1  0
 29 64  1  0
 29 65  1  0
 30 66  1  0
 30 67  1  0
 31 68  1  0
 31 69  1  0
 32 70  1  0
 32 71  1  0
 34 72  1  0
 37 73  1  0
 37 74  1  0
 37 75  1  0
M  END
$$$$
