@<TRIPOS>MOLECULE
*****
 75 78 0 0 0
SMALL
GASTEIGER

@<TRIPOS>ATOM
      1 C           8.1064   -3.9947    0.1876 C.3     1  UNL1        0.0790
      2 O           6.8197   -3.6298   -0.2536 O.3     1  UNL1       -0.4915
      3 C           6.2530   -2.4550    0.2183 C.ar    1  UNL1        0.1615
      4 C           6.8969   -1.6213    1.1070 C.ar    1  UNL1       -0.0160
      5 C           6.3388   -0.4535    1.5789 C.ar    1  UNL1       -0.0548
      6 C           5.0918   -0.0962    1.1537 C.ar    1  UNL1       -0.0422
      7 C           4.4995    1.1577    1.6571 C.3     1  UNL1       -0.0119
      8 C           3.7507    0.8822    2.9295 C.3     1  UNL1        0.0158
      9 N           2.6832   -0.0601    2.7480 N.pl3   1  UNL1       -0.3131
     10 C           1.5920    0.2836    1.9050 C.ar    1  UNL1        0.2169
     11 N           0.6235   -0.6282    1.7456 N.ar    1  UNL1       -0.2221
     12 C          -0.4080   -0.3496    0.9742 C.ar    1  UNL1        0.0466
     13 C          -0.4762    0.9022    0.3301 C.ar    1  UNL1        0.0945
     14 C          -1.5483    1.0376   -0.6008 C.2     1  UNL1        0.2489
     15 O          -1.5167    1.8304   -1.5514 O.2     1  UNL1       -0.2700
     16 N          -2.7348    0.2646   -0.4900 N.am    1  UNL1       -0.3112
     17 C          -3.8133    0.4473   -1.4870 C.3     1  UNL1        0.0133
     18 C          -4.9404   -0.4688   -1.1576 C.3     1  UNL1       -0.0215
     19 C          -4.5280   -1.9289   -1.1785 C.3     1  UNL1        0.0161
     20 N          -5.6628   -2.7880   -0.8517 N.am    1  UNL1       -0.3014
     21 C          -6.0159   -3.2061    0.4905 C.3     1  UNL1        0.0151
     22 C          -6.6419   -4.5680    0.2611 C.3     1  UNL1       -0.0289
     23 C          -7.5355   -4.2620   -0.9409 C.3     1  UNL1        0.0256
     24 C          -6.6175   -3.3704   -1.7248 C.2     1  UNL1        0.2156
     25 O          -6.6504   -3.1411   -2.9759 O.2     1  UNL1       -0.2756
     26 C           0.4784    1.8514    0.4689 C.ar    1  UNL1        0.1362
     27 N           0.4869    3.1550    0.0182 N.pl3   1  UNL1       -0.3255
     28 C          -0.3664    4.0857   -0.5794 C.3     1  UNL1        0.0220
     29 C          -1.5606    4.3619    0.3046 C.3     1  UNL1       -0.0345
     30 C          -2.1230    5.6553   -0.2439 C.3     1  UNL1       -0.0513
     31 C          -0.8951    6.3862   -0.7518 C.3     1  UNL1       -0.0513
     32 C           0.2832    5.5263   -0.4020 C.3     1  UNL1       -0.0345
     33 N           1.5316    1.4700    1.2995 N.ar    1  UNL1       -0.1990
     34 C           4.4175   -0.8987    0.2693 C.ar    1  UNL1       -0.0131
     35 C           4.9944   -2.0829   -0.2034 C.ar    1  UNL1        0.1617
     36 O           4.3401   -2.9186   -1.0988 O.3     1  UNL1       -0.4914
     37 C           3.0398   -2.5257   -1.5288 C.3     1  UNL1        0.0790
     38 H           8.4614   -4.8705   -0.4215 H       1  UNL1        0.0660
     39 H           8.1457   -4.3212    1.2311 H       1  UNL1        0.0660
     40 H           8.7990   -3.1268    0.0670 H       1  UNL1        0.0660
     41 H           7.8954   -1.9180    1.4405 H       1  UNL1        0.0655
     42 H           6.9162    0.1536    2.2832 H       1  UNL1        0.0621
     43 H           3.8448    1.5837    0.8864 H       1  UNL1        0.0328
     44 H           5.3450    1.8662    1.8589 H       1  UNL1        0.0328
     45 H           3.3865    1.8752    3.2944 H       1  UNL1        0.0465
     46 H           4.4356    0.5316    3.7391 H       1  UNL1        0.0465
     47 H           2.7238   -0.9830    3.2373 H       1  UNL1        0.1489
     48 H          -1.1911   -1.0941    0.8374 H       1  UNL1        0.0839
     49 H          -2.8739   -0.4076    0.2654 H       1  UNL1        0.1490
     50 H          -3.3948    0.2608   -2.5100 H       1  UNL1        0.0462
     51 H          -4.1186    1.4888   -1.3995 H       1  UNL1        0.0462
     52 H          -5.7716   -0.2729   -1.8677 H       1  UNL1        0.0295
     53 H          -5.3283   -0.1825   -0.1568 H       1  UNL1        0.0295
     54 H          -4.1251   -2.1454   -2.1775 H       1  UNL1        0.0465
     55 H          -3.7230   -2.1010   -0.4498 H       1  UNL1        0.0465
     56 H          -6.7671   -2.5128    0.9295 H       1  UNL1        0.0465
     57 H          -5.1115   -3.2720    1.1395 H       1  UNL1        0.0465
     58 H          -5.8346   -5.2726   -0.0090 H       1  UNL1        0.0285
     59 H          -7.2426   -4.9061    1.1312 H       1  UNL1        0.0285
     60 H          -7.8322   -5.1581   -1.4865 H       1  UNL1        0.0359
     61 H          -8.4039   -3.6755   -0.5298 H       1  UNL1        0.0359
     62 H           1.4938    3.6166    0.1420 H       1  UNL1        0.1478
     63 H          -0.5331    4.1004   -1.6448 H       1  UNL1        0.0498
     64 H          -1.1475    4.5927    1.3289 H       1  UNL1        0.0283
     65 H          -2.2841    3.5769    0.4107 H       1  UNL1        0.0283
     66 H          -2.6439    6.2229    0.5562 H       1  UNL1        0.0266
     67 H          -2.7730    5.3979   -1.0916 H       1  UNL1        0.0266
     68 H          -0.8646    7.3943   -0.2918 H       1  UNL1        0.0266
     69 H          -0.9277    6.4518   -1.8738 H       1  UNL1        0.0266
     70 H           0.5502    5.6649    0.6443 H       1  UNL1        0.0283
     71 H           1.1249    5.5809   -1.0893 H       1  UNL1        0.0283
     72 H           3.4262   -0.6631   -0.1039 H       1  UNL1        0.0658
     73 H           2.7247   -3.2623   -2.2955 H       1  UNL1        0.0660
     74 H           3.0591   -1.5278   -2.0067 H       1  UNL1        0.0660
     75 H           2.3673   -2.5355   -0.6314 H       1  UNL1        0.0660
@<TRIPOS>BOND
     1     1     2    1
     2     2     3    1
     3     3     4   ar
     4     4     5   ar
     5     5     6   ar
     6     6     7    1
     7     7     8    1
     8     8     9    1
     9     9    10    1
    10    10    11   ar
    11    11    12   ar
    12    12    13   ar
    13    13    14    1
    14    14    15    2
    15    14    16   am
    16    16    17    1
    17    17    18    1
    18    18    19    1
    19    19    20    1
    20    20    21    1
    21    21    22    1
    22    22    23    1
    23    23    24    1
    24    24    25    2
    25    13    26   ar
    26    26    27    1
    27    27    28    1
    28    28    29    1
    29    29    30    1
    30    30    31    1
    31    31    32    1
    32    26    33   ar
    33     6    34   ar
    34    34    35   ar
    35    35    36    1
    36    36    37    1
    37    35     3   ar
    38    33    10   ar
    39    24    20   am
    40    32    28    1
    41     1    38    1
    42     1    39    1
    43     1    40    1
    44     4    41    1
    45     5    42    1
    46     7    43    1
    47     7    44    1
    48     8    45    1
    49     8    46    1
    50     9    47    1
    51    12    48    1
    52    16    49    1
    53    17    50    1
    54    17    51    1
    55    18    52    1
    56    18    53    1
    57    19    54    1
    58    19    55    1
    59    21    56    1
    60    21    57    1
    61    22    58    1
    62    22    59    1
    63    23    60    1
    64    23    61    1
    65    27    62    1
    66    28    63    1
    67    29    64    1
    68    29    65    1
    69    30    66    1
    70    30    67    1
    71    31    68    1
    72    31    69    1
    73    32    70    1
    74    32    71    1
    75    34    72    1
    76    37    73    1
    77    37    74    1
    78    37    75    1
