
     RDKit          3D

 69 74  0  0  0  0  0  0  0  0999 V2000
    0.4832    0.7588    3.2524 C   0  0  0  0  0  0  0  0  0  0  0  0
    1.1043    0.9936    1.8687 C   0  0  2  0  0  0  0  0  0  0  0  0
    2.5905    0.7498    2.0108 C   0  0  0  0  0  0  0  0  0  0  0  0
    3.3089    0.1295    1.0518 C   0  0  0  0  0  0  0  0  0  0  0  0
    4.7299    0.0523    1.0529 C   0  0  0  0  0  0  0  0  0  0  0  0
    5.3938   -0.4997   -0.1501 C   0  0  0  0  0  0  0  0  0  0  0  0
    6.5419   -0.1860   -0.5992 C   0  0  0  0  0  0  0  0  0  0  0  0
    7.2652    0.7517    0.1199 F   0  0  0  0  0  0  0  0  0  0  0  0
    7.0711   -0.4495   -1.9414 C   0  0  0  0  0  0  0  0  0  0  0  0
    8.3443   -0.3489   -2.3542 C   0  0  0  0  0  0  0  0  0  0  0  0
    8.7232   -0.2288   -3.7084 C   0  0  0  0  0  0  0  0  0  0  0  0
    7.7349   -0.2153   -4.6458 C   0  0  0  0  0  0  0  0  0  0  0  0
    7.9965    0.1620   -5.9980 C   0  0  0  0  0  0  0  0  0  0  0  0
    8.2152    0.5152   -7.2107 N   0  0  0  0  0  0  0  0  0  0  0  0
    6.4045   -0.3321   -4.2375 C   0  0  0  0  0  0  0  0  0  0  0  0
    6.0842   -0.4414   -2.9639 N   0  0  0  0  0  0  0  0  0  0  0  0
    5.3710    0.6368    2.0934 C   0  0  0  0  0  0  0  0  0  0  0  0
    4.6747    1.2589    3.0628 C   0  0  0  0  0  0  0  0  0  0  0  0
    3.3152    1.3520    3.0883 C   0  0  0  0  0  0  0  0  0  0  0  0
    2.6946    1.9712    4.0604 F   0  0  0  0  0  0  0  0  0  0  0  0
    1.0278    2.4185    1.5745 N   0  0  0  0  0  0  0  0  0  0  0  0
    0.1605    2.9920    0.8955 C   0  0  0  0  0  0  0  0  0  0  0  0
    0.1752    4.3873    0.6667 N   0  0  0  0  0  0  0  0  0  0  0  0
   -1.1683    2.0669    0.1425 S   0  0  0  0  0  0  0  0  0  0  0  0
   -0.5955    0.3496    0.0824 C   0  0  1  0  0  0  0  0  0  0  0  0
   -1.6091   -0.6790   -0.2223 C   0  0  0  0  0  0  0  0  0  0  0  0
   -1.1464   -1.8182   -0.7083 O   0  0  0  0  0  0  0  0  0  0  0  0
   -2.9945   -0.5875   -0.0793 N   0  0  0  0  0  0  0  0  0  0  0  0
   -3.7086    0.5560    0.5200 C   0  0  0  0  0  0  0  0  0  0  0  0
   -4.9481   -0.0730    1.2010 C   0  0  0  0  0  0  0  0  0  0  0  0
   -5.8648   -0.3667    0.1203 N   0  0  0  0  0  0  0  0  0  0  0  0
   -7.0633   -0.8704    0.6336 C   0  0  0  0  0  0  0  0  0  0  0  0
   -8.1008   -1.3294   -0.3592 C   0  0  0  0  0  0  0  0  0  0  0  0
   -9.3673   -1.8420    0.3032 C   0  0  0  0  0  0  0  0  0  0  0  0
   -8.4422   -2.8122   -0.3722 C   0  0  0  0  0  0  0  0  0  0  0  0
   -5.2185   -1.0254   -0.9522 C   0  0  0  0  0  0  0  0  0  0  0  0
   -3.8645   -1.6598   -0.5814 C   0  0  0  0  0  0  0  0  0  0  0  0
    0.7409    0.0892   -0.5299 C   0  0  0  0  0  0  0  0  0  0  0  0
    0.5490    0.0349    0.9321 C   0  0  1  0  0  0  0  0  0  0  0  0
    0.6295    1.6175    3.9478 H   0  0  0  0  0  0  0  0  0  0  0  0
    0.8491   -0.1559    3.7290 H   0  0  0  0  0  0  0  0  0  0  0  0
   -0.6276    0.6713    3.1292 H   0  0  0  0  0  0  0  0  0  0  0  0
    2.8677   -0.3779    0.2143 H   0  0  0  0  0  0  0  0  0  0  0  0
    4.8305   -1.2557   -0.7195 H   0  0  0  0  0  0  0  0  0  0  0  0
    9.1148   -0.3302   -1.5751 H   0  0  0  0  0  0  0  0  0  0  0  0
    9.7277   -0.1310   -4.0296 H   0  0  0  0  0  0  0  0  0  0  0  0
    5.6299   -0.3328   -5.0283 H   0  0  0  0  0  0  0  0  0  0  0  0
    6.4618    0.6072    2.1559 H   0  0  0  0  0  0  0  0  0  0  0  0
    5.2331    1.7277    3.8844 H   0  0  0  0  0  0  0  0  0  0  0  0
    0.1732    5.1306    1.3754 H   0  0  0  0  0  0  0  0  0  0  0  0
    0.2050    4.7094   -0.3525 H   0  0  0  0  0  0  0  0  0  0  0  0
   -3.1636    1.0551    1.3095 H   0  0  0  0  0  0  0  0  0  0  0  0
   -4.0757    1.1880   -0.2793 H   0  0  0  0  0  0  0  0  0  0  0  0
   -5.3404    0.5650    1.9508 H   0  0  0  0  0  0  0  0  0  0  0  0
   -4.5669   -1.0179    1.6490 H   0  0  0  0  0  0  0  0  0  0  0  0
   -6.9334   -1.6575    1.4388 H   0  0  0  0  0  0  0  0  0  0  0  0
   -7.5678   -0.0127    1.2040 H   0  0  0  0  0  0  0  0  0  0  0  0
   -8.2834   -0.7105   -1.2325 H   0  0  0  0  0  0  0  0  0  0  0  0
  -10.3512   -1.6667   -0.1740 H   0  0  0  0  0  0  0  0  0  0  0  0
   -9.3659   -1.9099    1.4324 H   0  0  0  0  0  0  0  0  0  0  0  0
   -7.7847   -3.4551    0.2803 H   0  0  0  0  0  0  0  0  0  0  0  0
   -8.7258   -3.2438   -1.3293 H   0  0  0  0  0  0  0  0  0  0  0  0
   -4.9416   -0.2635   -1.7383 H   0  0  0  0  0  0  0  0  0  0  0  0
   -5.8510   -1.7526   -1.4702 H   0  0  0  0  0  0  0  0  0  0  0  0
   -3.9901   -2.4907    0.0995 H   0  0  0  0  0  0  0  0  0  0  0  0
   -3.4319   -1.9235   -1.5852 H   0  0  0  0  0  0  0  0  0  0  0  0
    0.8942   -0.9177   -1.0139 H   0  0  0  0  0  0  0  0  0  0  0  0
    1.3271    0.8953   -0.9758 H   0  0  0  0  0  0  0  0  0  0  0  0
    0.4487   -1.0224    1.4134 H   0  0  0  0  0  0  0  0  0  0  0  0
  2  1  1  1
  2  3  1  0
  3  4  2  0
  4  5  1  0
  5  6  1  0
  6  7  2  0
  7  8  1  0
  7  9  1  0
  9 10  2  0
 10 11  1  0
 11 12  2  0
 12 13  1  0
 13 14  3  0
 12 15  1  0
 15 16  2  0
  5 17  2  0
 17 18  1  0
 18 19  2  0
 19 20  1  0
  2 21  1  0
 21 22  2  0
 22 23  1  0
 22 24  1  0
 24 25  1  0
 25 26  1  6
 26 27  2  0
 26 28  1  0
 28 29  1  0
 29 30  1  0
 30 31  1  0
 31 32  1  0
 32 33  1  0
 33 34  1  0
 34 35  1  0
 31 36  1  0
 36 37  1  0
 25 38  1  0
 38 39  1  0
 39  2  1  0
 19  3  1  0
 39 25  1  0
 16  9  1  0
 37 28  1  0
 35 33  1  0
  1 40  1  0
  1 41  1  0
  1 42  1  0
  4 43  1  0
  6 44  1  0
 10 45  1  0
 11 46  1  0
 15 47  1  0
 17 48  1  0
 18 49  1  0
 23 50  1  0
 23 51  1  0
 29 52  1  0
 29 53  1  0
 30 54  1  0
 30 55  1  0
 32 56  1  0
 32 57  1  0
 33 58  1  0
 34 59  1  0
 34 60  1  0
 35 61  1  0
 35 62  1  0
 36 63  1  0
 36 64  1  0
 37 65  1  0
 37 66  1  0
 38 67  1  0
 38 68  1  0
 39 69  1  1
M  END
$$$$
