@<TRIPOS>MOLECULE
*****
 69 74 0 0 0
SMALL
GASTEIGER

@<TRIPOS>ATOM
      1 C           0.4832    0.7588    3.2524 C.3     1  UNL1       -0.0351
      2 C           1.1043    0.9936    1.8687 C.3     1  UNL1        0.0935
      3 C           2.5905    0.7498    2.0108 C.ar    1  UNL1        0.0158
      4 C           3.3089    0.1295    1.0518 C.ar    1  UNL1       -0.0463
      5 C           4.7299    0.0523    1.0529 C.ar    1  UNL1       -0.0217
      6 C           5.3938   -0.4997   -0.1501 C.2     1  UNL1       -0.0172
      7 C           6.5419   -0.1860   -0.5992 C.2     1  UNL1        0.1492
      8 F           7.2652    0.7517    0.1199 F       1  UNL1       -0.2032
      9 C           7.0711   -0.4495   -1.9414 C.ar    1  UNL1        0.0990
     10 C           8.3443   -0.3489   -2.3542 C.ar    1  UNL1       -0.0322
     11 C           8.7232   -0.2288   -3.7084 C.ar    1  UNL1       -0.0408
     12 C           7.7349   -0.2153   -4.6458 C.ar    1  UNL1        0.0699
     13 C           7.9965    0.1620   -5.9980 C.1     1  UNL1        0.1007
     14 N           8.2152    0.5152   -7.2107 N.1     1  UNL1       -0.1908
     15 C           6.4045   -0.3321   -4.2375 C.ar    1  UNL1        0.0457
     16 N           6.0842   -0.4414   -2.9639 N.ar    1  UNL1       -0.2514
     17 C           5.3710    0.6368    2.0934 C.ar    1  UNL1       -0.0518
     18 C           4.6747    1.2589    3.0628 C.ar    1  UNL1       -0.0255
     19 C           3.3152    1.3520    3.0883 C.ar    1  UNL1        0.1289
     20 F           2.6946    1.9712    4.0604 F       1  UNL1       -0.2051
     21 N           1.0278    2.4185    1.5745 N.2     1  UNL1       -0.2521
     22 C           0.1605    2.9920    0.8955 C.2     1  UNL1        0.1485
     23 N           0.1752    4.3873    0.6667 N.pl3   1  UNL1       -0.3380
     24 S          -1.1683    2.0669    0.1425 S.3     1  UNL1       -0.0746
     25 C          -0.5955    0.3496    0.0824 C.3     1  UNL1        0.1054
     26 C          -1.6091   -0.6790   -0.2223 C.2     1  UNL1        0.2325
     27 O          -1.1464   -1.8182   -0.7083 O.2     1  UNL1       -0.2741
     28 N          -2.9945   -0.5875   -0.0793 N.am    1  UNL1       -0.2979
     29 C          -3.7086    0.5560    0.5200 C.3     1  UNL1        0.0275
     30 C          -4.9481   -0.0730    1.2010 C.3     1  UNL1        0.0148
     31 N          -5.8648   -0.3667    0.1203 N.3     1  UNL1       -0.2991
     32 C          -7.0633   -0.8704    0.6336 C.3     1  UNL1        0.0018
     33 C          -8.1008   -1.3294   -0.3592 C.3     1  UNL1       -0.0282
     34 C          -9.3673   -1.8420    0.3032 C.3     1  UNL1       -0.0488
     35 C          -8.4422   -2.8122   -0.3722 C.3     1  UNL1       -0.0488
     36 C          -5.2185   -1.0254   -0.9522 C.3     1  UNL1        0.0148
     37 C          -3.8645   -1.6598   -0.5814 C.3     1  UNL1        0.0275
     38 C           0.7409    0.0892   -0.5299 C.3     1  UNL1       -0.0220
     39 C           0.5490    0.0349    0.9321 C.3     1  UNL1        0.0134
     40 H           0.6295    1.6175    3.9478 H       1  UNL1        0.0256
     41 H           0.8491   -0.1559    3.7290 H       1  UNL1        0.0256
     42 H          -0.6276    0.6713    3.1292 H       1  UNL1        0.0256
     43 H           2.8677   -0.3779    0.2143 H       1  UNL1        0.0628
     44 H           4.8305   -1.2557   -0.7195 H       1  UNL1        0.0653
     45 H           9.1148   -0.3302   -1.5751 H       1  UNL1        0.0640
     46 H           9.7277   -0.1310   -4.0296 H       1  UNL1        0.0631
     47 H           5.6299   -0.3328   -5.0283 H       1  UNL1        0.0843
     48 H           6.4618    0.6072    2.1559 H       1  UNL1        0.0624
     49 H           5.2331    1.7277    3.8844 H       1  UNL1        0.0646
     50 H           0.1732    5.1306    1.3754 H       1  UNL1        0.1442
     51 H           0.2050    4.7094   -0.3525 H       1  UNL1        0.1442
     52 H          -3.1636    1.0551    1.3095 H       1  UNL1        0.0477
     53 H          -4.0757    1.1880   -0.2793 H       1  UNL1        0.0477
     54 H          -5.3404    0.5650    1.9508 H       1  UNL1        0.0442
     55 H          -4.5669   -1.0179    1.6490 H       1  UNL1        0.0442
     56 H          -6.9334   -1.6575    1.4388 H       1  UNL1        0.0429
     57 H          -7.5678   -0.0127    1.2040 H       1  UNL1        0.0429
     58 H          -8.2834   -0.7105   -1.2325 H       1  UNL1        0.0313
     59 H         -10.3512   -1.6667   -0.1740 H       1  UNL1        0.0268
     60 H          -9.3659   -1.9099    1.4324 H       1  UNL1        0.0268
     61 H          -7.7847   -3.4551    0.2803 H       1  UNL1        0.0268
     62 H          -8.7258   -3.2438   -1.3293 H       1  UNL1        0.0268
     63 H          -4.9416   -0.2635   -1.7383 H       1  UNL1        0.0442
     64 H          -5.8510   -1.7526   -1.4702 H       1  UNL1        0.0442
     65 H          -3.9901   -2.4907    0.0995 H       1  UNL1        0.0477
     66 H          -3.4319   -1.9235   -1.5852 H       1  UNL1        0.0477
     67 H           0.8942   -0.9177   -1.0139 H       1  UNL1        0.0287
     68 H           1.3271    0.8953   -0.9758 H       1  UNL1        0.0287
     69 H           0.4487   -1.0224    1.4134 H       1  UNL1        0.0346
@<TRIPOS>BOND
     1     2     1    1
     2     2     3    1
     3     3     4   ar
     4     4     5   ar
     5     5     6    1
     6     6     7    2
     7     7     8    1
     8     7     9    1
     9     9    10   ar
    10    10    11   ar
    11    11    12   ar
    12    12    13    1
    13    13    14    3
    14    12    15   ar
    15    15    16   ar
    16     5    17   ar
    17    17    18   ar
    18    18    19   ar
    19    19    20    1
    20     2    21    1
    21    21    22    2
    22    22    23    1
    23    22    24    1
    24    24    25    1
    25    25    26    1
    26    26    27    2
    27    26    28   am
    28    28    29    1
    29    29    30    1
    30    30    31    1
    31    31    32    1
    32    32    33    1
    33    33    34    1
    34    34    35    1
    35    31    36    1
    36    36    37    1
    37    25    38    1
    38    38    39    1
    39    39     2    1
    40    19     3   ar
    41    39    25    1
    42    16     9   ar
    43    37    28    1
    44    35    33    1
    45     1    40    1
    46     1    41    1
    47     1    42    1
    48     4    43    1
    49     6    44    1
    50    10    45    1
    51    11    46    1
    52    15    47    1
    53    17    48    1
    54    18    49    1
    55    23    50    1
    56    23    51    1
    57    29    52    1
    58    29    53    1
    59    30    54    1
    60    30    55    1
    61    32    56    1
    62    32    57    1
    63    33    58    1
    64    34    59    1
    65    34    60    1
    66    35    61    1
    67    35    62    1
    68    36    63    1
    69    36    64    1
    70    37    65    1
    71    37    66    1
    72    38    67    1
    73    38    68    1
    74    39    69    1
