@<TRIPOS>MOLECULE
*****
 64 64 0 0 0
SMALL
GASTEIGER

@<TRIPOS>ATOM
      1 O           7.1547    1.8498    1.8360 O.3     1  UNL1       -0.3925
      2 C           8.0582    0.9156    1.3061 C.3     1  UNL1        0.0701
      3 C           7.7397    0.8029   -0.1725 C.3     1  UNL1        0.0782
      4 O           8.5756   -0.0984   -0.8023 O.3     1  UNL1       -0.3895
      5 C           6.2696    0.4302   -0.3413 C.3     1  UNL1       -0.0247
      6 C           5.9680   -0.8864    0.3238 C.3     1  UNL1       -0.0506
      7 C           4.5180   -1.2302    0.1154 C.3     1  UNL1       -0.0506
      8 C           3.6546   -0.1811    0.7122 C.3     1  UNL1       -0.0268
      9 C           2.1446   -0.4888    0.5665 C.3     1  UNL1        0.0576
     10 O           1.6009    0.6759    1.2344 O.3     1  UNL1       -0.3917
     11 C           1.8130   -0.3074   -0.8511 C.3     1  UNL1       -0.0007
     12 C           0.4768   -0.5787   -1.4004 C.3     1  UNL1        0.0576
     13 O           0.5392   -0.2247   -2.7822 O.3     1  UNL1       -0.3917
     14 C          -0.7750   -0.2146   -0.7609 C.3     1  UNL1       -0.0267
     15 C          -1.1270   -0.8470    0.5223 C.3     1  UNL1       -0.0483
     16 C          -2.4672   -0.3522    1.0519 C.3     1  UNL1       -0.0252
     17 C          -3.5522   -0.6644    0.0773 C.3     1  UNL1        0.0730
     18 O          -3.5688   -2.0701   -0.0801 O.3     1  UNL1       -0.3902
     19 C          -4.9274   -0.3383    0.6659 C.3     1  UNL1        0.0627
     20 N          -4.9870    1.0982    0.8574 N.3     1  UNL1       -0.3016
     21 CA         -6.2920    1.5221    0.3572 C.3     1  UNL1        0.0598
     22 C          -7.2760    1.2746    1.4900 C.3     1  UNL1        0.0620
     23 O          -8.5326    1.6541    1.0844 O.3     1  UNL1       -0.3934
     24 C          -6.5456    0.6499   -0.8278 C.3     1  UNL1        0.1000
     25 O          -5.8817    1.1327   -1.9341 O.3     1  UNL1       -0.3876
     26 C          -5.9432   -0.6721   -0.4075 C.3     1  UNL1        0.1002
     27 O          -6.9269   -1.5476    0.0674 O.3     1  UNL1       -0.3875
     28 H           6.5596    1.4618    2.5122 H       1  UNL1        0.2095
     29 H           7.9955   -0.0573    1.8160 H       1  UNL1        0.0583
     30 H           9.0828    1.3210    1.4155 H       1  UNL1        0.0583
     31 H           7.8819    1.8133   -0.6045 H       1  UNL1        0.0616
     32 H           9.1167   -0.5672   -0.1068 H       1  UNL1        0.2099
     33 H           6.0159    0.4043   -1.4125 H       1  UNL1        0.0291
     34 H           5.6854    1.2462    0.1351 H       1  UNL1        0.0291
     35 H           6.1468   -0.8389    1.4190 H       1  UNL1        0.0266
     36 H           6.5856   -1.6879   -0.1541 H       1  UNL1        0.0266
     37 H           4.2833   -2.2507    0.5008 H       1  UNL1        0.0266
     38 H           4.4062   -1.3317   -1.0041 H       1  UNL1        0.0266
     39 H           3.7808    0.7706    0.1503 H       1  UNL1        0.0290
     40 H           3.9030   -0.0432    1.7664 H       1  UNL1        0.0290
     41 H           1.8297   -1.3813    1.0495 H       1  UNL1        0.0594
     42 H           1.7085    1.4351    0.6219 H       1  UNL1        0.2098
     43 H           2.5323   -0.9132   -1.5193 H       1  UNL1        0.0315
     44 H           2.0791    0.7524   -1.1918 H       1  UNL1        0.0315
     45 H           0.4323   -1.7794   -1.5746 H       1  UNL1        0.0594
     46 H          -0.2766    0.3304   -2.9239 H       1  UNL1        0.2098
     47 H          -1.6092   -0.4654   -1.4825 H       1  UNL1        0.0290
     48 H          -0.8453    0.9041   -0.6108 H       1  UNL1        0.0290
     49 H          -1.2233   -1.9781    0.4227 H       1  UNL1        0.0267
     50 H          -0.4158   -0.7049    1.3193 H       1  UNL1        0.0267
     51 H          -2.6707   -0.9254    1.9793 H       1  UNL1        0.0291
     52 H          -2.4141    0.7048    1.3341 H       1  UNL1        0.0291
     53 H          -3.5109   -0.1283   -0.8734 H       1  UNL1        0.0610
     54 H          -3.2208   -2.4917    0.7498 H       1  UNL1        0.2098
     55 H          -5.1078   -0.8887    1.5995 H       1  UNL1        0.0512
     56 H          -4.2811    1.5610    0.2415 H       1  UNL1        0.1228
     57 HA         -6.2367    2.5829    0.0848 H       1  UNL1        0.0509
     58 H1         -6.8995    1.8776    2.3538 H       1  UNL1        0.0573
     59 H2         -7.2201    0.2198    1.8153 H       1  UNL1        0.0573
     60 H          -8.8917    0.9667    0.4845 H       1  UNL1        0.2095
     61 H          -7.6179    0.5272   -1.0676 H       1  UNL1        0.0636
     62 H          -5.2282    1.8453   -1.7273 H       1  UNL1        0.2100
     63 H          -5.5000   -1.1353   -1.2951 H       1  UNL1        0.0636
     64 H          -6.5657   -2.4601   -0.0161 H       1  UNL1        0.2100
@<TRIPOS>BOND
     1     1     2    1
     2     2     3    1
     3     3     4    1
     4     3     5    1
     5     5     6    1
     6     6     7    1
     7     7     8    1
     8     8     9    1
     9     9    10    1
    10     9    11    1
    11    11    12    1
    12    12    13    1
    13    12    14    1
    14    14    15    1
    15    15    16    1
    16    16    17    1
    17    17    18    1
    18    17    19    1
    19    19    20    1
    20    20    21    1
    21    21    22    1
    22    22    23    1
    23    21    24    1
    24    24    25    1
    25    24    26    1
    26    26    27    1
    27    26    19    1
    28     1    28    1
    29     2    29    1
    30     2    30    1
    31     3    31    1
    32     4    32    1
    33     5    33    1
    34     5    34    1
    35     6    35    1
    36     6    36    1
    37     7    37    1
    38     7    38    1
    39     8    39    1
    40     8    40    1
    41     9    41    1
    42    10    42    1
    43    11    43    1
    44    11    44    1
    45    12    45    1
    46    13    46    1
    47    14    47    1
    48    14    48    1
    49    15    49    1
    50    15    50    1
    51    16    51    1
    52    16    52    1
    53    17    53    1
    54    18    54    1
    55    19    55    1
    56    20    56    1
    57    21    57    1
    58    22    58    1
    59    22    59    1
    60    23    60    1
    61    24    61    1
    62    25    62    1
    63    26    63    1
    64    27    64    1
