
     RDKit          3D

 64 64  0  0  0  0  0  0  0  0999 V2000
    7.1547    1.8498    1.8360 O   0  0  0  0  0  0  0  0  0  0  0  0
    8.0582    0.9156    1.3061 C   0  0  0  0  0  0  0  0  0  0  0  0
    7.7397    0.8029   -0.1725 C   0  0  0  0  0  0  0  0  0  0  0  0
    8.5756   -0.0984   -0.8023 O   0  0  0  0  0  0  0  0  0  0  0  0
    6.2696    0.4302   -0.3413 C   0  0  0  0  0  0  0  0  0  0  0  0
    5.9680   -0.8864    0.3238 C   0  0  0  0  0  0  0  0  0  0  0  0
    4.5180   -1.2302    0.1154 C   0  0  0  0  0  0  0  0  0  0  0  0
    3.6546   -0.1811    0.7122 C   0  0  0  0  0  0  0  0  0  0  0  0
    2.1446   -0.4888    0.5665 C   0  0  0  0  0  0  0  0  0  0  0  0
    1.6009    0.6759    1.2344 O   0  0  0  0  0  0  0  0  0  0  0  0
    1.8130   -0.3074   -0.8511 C   0  0  0  0  0  0  0  0  0  0  0  0
    0.4768   -0.5787   -1.4004 C   0  0  0  0  0  0  0  0  0  0  0  0
    0.5392   -0.2247   -2.7822 O   0  0  0  0  0  0  0  0  0  0  0  0
   -0.7750   -0.2146   -0.7609 C   0  0  0  0  0  0  0  0  0  0  0  0
   -1.1270   -0.8470    0.5223 C   0  0  0  0  0  0  0  0  0  0  0  0
   -2.4672   -0.3522    1.0519 C   0  0  0  0  0  0  0  0  0  0  0  0
   -3.5522   -0.6644    0.0773 C   0  0  1  0  0  0  0  0  0  0  0  0
   -3.5688   -2.0701   -0.0801 O   0  0  0  0  0  0  0  0  0  0  0  0
   -4.9274   -0.3383    0.6659 C   0  0  1  0  0  0  0  0  0  0  0  0
   -4.9870    1.0982    0.8574 N   0  0  0  0  0  0  0  0  0  0  0  0
   -6.2920    1.5221    0.3572 C   0  0  2  0  0  0  0  0  0  0  0  0
   -7.2760    1.2746    1.4900 C   0  0  0  0  0  0  0  0  0  0  0  0
   -8.5326    1.6541    1.0844 O   0  0  0  0  0  0  0  0  0  0  0  0
   -6.5456    0.6499   -0.8278 C   0  0  1  0  0  0  0  0  0  0  0  0
   -5.8817    1.1327   -1.9341 O   0  0  0  0  0  0  0  0  0  0  0  0
   -5.9432   -0.6721   -0.4075 C   0  0  2  0  0  0  0  0  0  0  0  0
   -6.9269   -1.5476    0.0674 O   0  0  0  0  0  0  0  0  0  0  0  0
    6.5596    1.4618    2.5122 H   0  0  0  0  0  0  0  0  0  0  0  0
    7.9955   -0.0573    1.8160 H   0  0  0  0  0  0  0  0  0  0  0  0
    9.0828    1.3210    1.4155 H   0  0  0  0  0  0  0  0  0  0  0  0
    7.8819    1.8133   -0.6045 H   0  0  0  0  0  0  0  0  0  0  0  0
    9.1167   -0.5672   -0.1068 H   0  0  0  0  0  0  0  0  0  0  0  0
    6.0159    0.4043   -1.4125 H   0  0  0  0  0  0  0  0  0  0  0  0
    5.6854    1.2462    0.1351 H   0  0  0  0  0  0  0  0  0  0  0  0
    6.1468   -0.8389    1.4190 H   0  0  0  0  0  0  0  0  0  0  0  0
    6.5856   -1.6879   -0.1541 H   0  0  0  0  0  0  0  0  0  0  0  0
    4.2833   -2.2507    0.5008 H   0  0  0  0  0  0  0  0  0  0  0  0
    4.4062   -1.3317   -1.0041 H   0  0  0  0  0  0  0  0  0  0  0  0
    3.7808    0.7706    0.1503 H   0  0  0  0  0  0  0  0  0  0  0  0
    3.9030   -0.0432    1.7664 H   0  0  0  0  0  0  0  0  0  0  0  0
    1.8297   -1.3813    1.0495 H   0  0  0  0  0  0  0  0  0  0  0  0
    1.7085    1.4351    0.6219 H   0  0  0  0  0  0  0  0  0  0  0  0
    2.5323   -0.9132   -1.5193 H   0  0  0  0  0  0  0  0  0  0  0  0
    2.0791    0.7524   -1.1918 H   0  0  0  0  0  0  0  0  0  0  0  0
    0.4323   -1.7794   -1.5746 H   0  0  0  0  0  0  0  0  0  0  0  0
   -0.2766    0.3304   -2.9239 H   0  0  0  0  0  0  0  0  0  0  0  0
   -1.6092   -0.4654   -1.4825 H   0  0  0  0  0  0  0  0  0  0  0  0
   -0.8453    0.9041   -0.6108 H   0  0  0  0  0  0  0  0  0  0  0  0
   -1.2233   -1.9781    0.4227 H   0  0  0  0  0  0  0  0  0  0  0  0
   -0.4158   -0.7049    1.3193 H   0  0  0  0  0  0  0  0  0  0  0  0
   -2.6707   -0.9254    1.9793 H   0  0  0  0  0  0  0  0  0  0  0  0
   -2.4141    0.7048    1.3341 H   0  0  0  0  0  0  0  0  0  0  0  0
   -3.5109   -0.1283   -0.8734 H   0  0  0  0  0  0  0  0  0  0  0  0
   -3.2208   -2.4917    0.7498 H   0  0  0  0  0  0  0  0  0  0  0  0
   -5.1078   -0.8887    1.5995 H   0  0  0  0  0  0  0  0  0  0  0  0
   -4.2811    1.5610    0.2415 H   0  0  0  0  0  0  0  0  0  0  0  0
   -6.2367    2.5829    0.0848 H   0  0  0  0  0  0  0  0  0  0  0  0
   -6.8995    1.8776    2.3538 H   0  0  0  0  0  0  0  0  0  0  0  0
   -7.2201    0.2198    1.8153 H   0  0  0  0  0  0  0  0  0  0  0  0
   -8.8917    0.9667    0.4845 H   0  0  0  0  0  0  0  0  0  0  0  0
   -7.6179    0.5272   -1.0676 H   0  0  0  0  0  0  0  0  0  0  0  0
   -5.2282    1.8453   -1.7273 H   0  0  0  0  0  0  0  0  0  0  0  0
   -5.5000   -1.1353   -1.2951 H   0  0  0  0  0  0  0  0  0  0  0  0
   -6.5657   -2.4601   -0.0161 H   0  0  0  0  0  0  0  0  0  0  0  0
  1  2  1  0
  2  3  1  0
  3  4  1  0
  3  5  1  0
  5  6  1  0
  6  7  1  0
  7  8  1  0
  8  9  1  0
  9 10  1  0
  9 11  1  0
 11 12  1  0
 12 13  1  0
 12 14  1  0
 14 15  1  0
 15 16  1  0
 16 17  1  0
 17 18  1  0
 17 19  1  0
 19 20  1  0
 20 21  1  0
 21 22  1  0
 22 23  1  0
 21 24  1  0
 24 25  1  0
 24 26  1  0
 26 27  1  0
 26 19  1  0
  1 28  1  0
  2 29  1  0
  2 30  1  0
  3 31  1  0
  4 32  1  0
  5 33  1  0
  5 34  1  0
  6 35  1  0
  6 36  1  0
  7 37  1  0
  7 38  1  0
  8 39  1  0
  8 40  1  0
  9 41  1  0
 10 42  1  0
 11 43  1  0
 11 44  1  0
 12 45  1  0
 13 46  1  0
 14 47  1  0
 14 48  1  0
 15 49  1  0
 15 50  1  0
 16 51  1  0
 16 52  1  0
 17 53  1  6
 18 54  1  0
 19 55  1  1
 20 56  1  0
 21 57  1  6
 22 58  1  0
 22 59  1  0
 23 60  1  0
 24 61  1  6
 25 62  1  0
 26 63  1  6
 27 64  1  0
M  END
$$$$
