
     RDKit          3D

 42 44  0  0  0  0  0  0  0  0999 V2000
    1.5695   -2.2919    0.2436 O   0  0  0  0  0  0  0  0  0  0  0  0
    2.0024   -1.3815   -0.4854 C   0  0  0  0  0  0  0  0  0  0  0  0
    3.2531   -1.5294   -1.1374 N   0  0  0  0  0  0  0  0  0  0  0  0
    4.1668   -2.6472   -1.0857 C   0  0  0  0  0  0  0  0  0  0  0  0
    4.9353   -2.6897    0.2012 C   0  0  0  0  0  0  0  0  0  0  0  0
    6.1447   -2.0353    0.3706 C   0  0  0  0  0  0  0  0  0  0  0  0
    6.7921   -2.1311    1.6013 C   0  0  0  0  0  0  0  0  0  0  0  0
    6.2618   -2.8643    2.6668 C   0  0  0  0  0  0  0  0  0  0  0  0
    5.0883   -3.4891    2.4752 N   0  0  0  0  0  0  0  0  0  0  0  0
    4.4485   -3.4088    1.2964 C   0  0  0  0  0  0  0  0  0  0  0  0
    1.2149   -0.1595   -0.6659 C   0  0  0  0  0  0  0  0  0  0  0  0
    0.0026   -0.0189   -0.0246 C   0  0  0  0  0  0  0  0  0  0  0  0
   -0.7298    1.1434   -0.2053 C   0  0  0  0  0  0  0  0  0  0  0  0
   -0.2035    2.1023   -1.0217 N   0  0  0  0  0  0  0  0  0  0  0  0
    0.9789    1.9401   -1.6339 C   0  0  0  0  0  0  0  0  0  0  0  0
    1.6876    0.8179   -1.4603 N   0  0  0  0  0  0  0  0  0  0  0  0
   -2.0179    1.3447    0.4513 C   0  0  0  0  0  0  0  0  0  0  0  0
   -2.5177    0.4815    1.2022 O   0  0  0  0  0  0  0  0  0  0  0  0
   -2.7102    2.5610    0.2205 N   0  0  0  0  0  0  0  0  0  0  0  0
   -3.9725    2.9517    0.7625 C   0  0  0  0  0  0  0  0  0  0  0  0
   -5.1485    2.3258    0.1572 C   0  0  0  0  0  0  0  0  0  0  0  0
   -5.6924    2.9903   -0.9127 C   0  0  0  0  0  0  0  0  0  0  0  0
   -6.7929    2.4613   -1.5243 N   0  0  0  0  0  0  0  0  0  0  0  0
   -7.3507    1.3002   -1.0946 C   0  0  0  0  0  0  0  0  0  0  0  0
   -6.7724    0.6630   -0.0147 C   0  0  0  0  0  0  0  0  0  0  0  0
   -5.6626    1.1454    0.6447 C   0  0  0  0  0  0  0  0  0  0  0  0
    3.5530   -0.7069   -1.7413 H   0  0  0  0  0  0  0  0  0  0  0  0
    3.5453   -3.5691   -1.1722 H   0  0  0  0  0  0  0  0  0  0  0  0
    4.8344   -2.6410   -1.9463 H   0  0  0  0  0  0  0  0  0  0  0  0
    6.5470   -1.4721   -0.4548 H   0  0  0  0  0  0  0  0  0  0  0  0
    7.7421   -1.5904    1.6672 H   0  0  0  0  0  0  0  0  0  0  0  0
    6.8940   -2.8297    3.5425 H   0  0  0  0  0  0  0  0  0  0  0  0
    3.5133   -3.9486    1.2477 H   0  0  0  0  0  0  0  0  0  0  0  0
   -0.3851   -0.7997    0.6159 H   0  0  0  0  0  0  0  0  0  0  0  0
    1.2241    2.8148   -2.2405 H   0  0  0  0  0  0  0  0  0  0  0  0
   -2.2686    3.2816   -0.4208 H   0  0  0  0  0  0  0  0  0  0  0  0
   -4.1188    4.0482    0.7914 H   0  0  0  0  0  0  0  0  0  0  0  0
   -3.9737    2.6322    1.8412 H   0  0  0  0  0  0  0  0  0  0  0  0
   -5.3352    3.9170   -1.3398 H   0  0  0  0  0  0  0  0  0  0  0  0
   -8.2227    0.9149   -1.6067 H   0  0  0  0  0  0  0  0  0  0  0  0
   -7.2770   -0.2543    0.2635 H   0  0  0  0  0  0  0  0  0  0  0  0
   -5.2477    0.6214    1.4745 H   0  0  0  0  0  0  0  0  0  0  0  0
  1  2  2  0
  2  3  1  0
  3  4  1  0
  4  5  1  0
  5  6  2  0
  6  7  1  0
  7  8  2  0
  8  9  1  0
  9 10  2  0
  2 11  1  0
 11 12  2  0
 12 13  1  0
 13 14  2  0
 14 15  1  0
 15 16  2  0
 13 17  1  0
 17 18  2  0
 17 19  1  0
 19 20  1  0
 20 21  1  0
 21 22  2  0
 22 23  1  0
 23 24  2  0
 24 25  1  0
 25 26  2  0
 10  5  1  0
 16 11  1  0
 26 21  1  0
  3 27  1  0
  4 28  1  0
  4 29  1  0
  6 30  1  0
  7 31  1  0
  8 32  1  0
 10 33  1  0
 12 34  1  0
 15 35  1  0
 19 36  1  0
 20 37  1  0
 20 38  1  0
 22 39  1  0
 24 40  1  0
 25 41  1  0
 26 42  1  0
M  END
$$$$
