@<TRIPOS>MOLECULE
*****
 42 44 0 0 0
SMALL
GASTEIGER

@<TRIPOS>ATOM
      1 O           1.5695   -2.2919    0.2436 O.2     1  UNL1       -0.2685
      2 C           2.0024   -1.3815   -0.4854 C.2     1  UNL1        0.2628
      3 N           3.2531   -1.5294   -1.1374 N.am    1  UNL1       -0.3059
      4 C           4.1668   -2.6472   -1.0857 C.3     1  UNL1        0.0386
      5 C           4.9353   -2.6897    0.2012 C.ar    1  UNL1       -0.0122
      6 C           6.1447   -2.0353    0.3706 C.ar    1  UNL1       -0.0542
      7 C           6.7921   -2.1311    1.6013 C.ar    1  UNL1       -0.0433
      8 C           6.2618   -2.8643    2.6668 C.ar    1  UNL1        0.0276
      9 N           5.0883   -3.4891    2.4752 N.ar    1  UNL1       -0.2629
     10 C           4.4485   -3.4088    1.2964 C.ar    1  UNL1        0.0322
     11 C           1.2149   -0.1595   -0.6659 C.ar    1  UNL1        0.1292
     12 C           0.0026   -0.0189   -0.0246 C.ar    1  UNL1       -0.0006
     13 C          -0.7298    1.1434   -0.2053 C.ar    1  UNL1        0.1292
     14 N          -0.2035    2.1023   -1.0217 N.ar    1  UNL1       -0.2308
     15 C           0.9789    1.9401   -1.6339 C.ar    1  UNL1        0.1176
     16 N           1.6876    0.8179   -1.4603 N.ar    1  UNL1       -0.2308
     17 C          -2.0179    1.3447    0.4513 C.2     1  UNL1        0.2628
     18 O          -2.5177    0.4815    1.2022 O.2     1  UNL1       -0.2685
     19 N          -2.7102    2.5610    0.2205 N.am    1  UNL1       -0.3059
     20 C          -3.9725    2.9517    0.7625 C.3     1  UNL1        0.0386
     21 C          -5.1485    2.3258    0.1572 C.ar    1  UNL1       -0.0122
     22 C          -5.6924    2.9903   -0.9127 C.ar    1  UNL1        0.0322
     23 N          -6.7929    2.4613   -1.5243 N.ar    1  UNL1       -0.2629
     24 C          -7.3507    1.3002   -1.0946 C.ar    1  UNL1        0.0276
     25 C          -6.7724    0.6630   -0.0147 C.ar    1  UNL1       -0.0433
     26 C          -5.6626    1.1454    0.6447 C.ar    1  UNL1       -0.0542
     27 H           3.5530   -0.7069   -1.7413 H       1  UNL1        0.1494
     28 H           3.5453   -3.5691   -1.1722 H       1  UNL1        0.0512
     29 H           4.8344   -2.6410   -1.9463 H       1  UNL1        0.0512
     30 H           6.5470   -1.4721   -0.4548 H       1  UNL1        0.0622
     31 H           7.7421   -1.5904    1.6672 H       1  UNL1        0.0633
     32 H           6.8940   -2.8297    3.5425 H       1  UNL1        0.0829
     33 H           3.5133   -3.9486    1.2477 H       1  UNL1        0.0833
     34 H          -0.3851   -0.7997    0.6159 H       1  UNL1        0.0663
     35 H           1.2241    2.8148   -2.2405 H       1  UNL1        0.1047
     36 H          -2.2686    3.2816   -0.4208 H       1  UNL1        0.1494
     37 H          -4.1188    4.0482    0.7914 H       1  UNL1        0.0512
     38 H          -3.9737    2.6322    1.8412 H       1  UNL1        0.0512
     39 H          -5.3352    3.9170   -1.3398 H       1  UNL1        0.0833
     40 H          -8.2227    0.9149   -1.6067 H       1  UNL1        0.0829
     41 H          -7.2770   -0.2543    0.2635 H       1  UNL1        0.0633
     42 H          -5.2477    0.6214    1.4745 H       1  UNL1        0.0622
@<TRIPOS>BOND
     1     1     2    2
     2     2     3   am
     3     3     4    1
     4     4     5    1
     5     5     6   ar
     6     6     7   ar
     7     7     8   ar
     8     8     9   ar
     9     9    10   ar
    10     2    11    1
    11    11    12   ar
    12    12    13   ar
    13    13    14   ar
    14    14    15   ar
    15    15    16   ar
    16    13    17    1
    17    17    18    2
    18    17    19   am
    19    19    20    1
    20    20    21    1
    21    21    22   ar
    22    22    23   ar
    23    23    24   ar
    24    24    25   ar
    25    25    26   ar
    26    10     5   ar
    27    16    11   ar
    28    26    21   ar
    29     3    27    1
    30     4    28    1
    31     4    29    1
    32     6    30    1
    33     7    31    1
    34     8    32    1
    35    10    33    1
    36    12    34    1
    37    15    35    1
    38    19    36    1
    39    20    37    1
    40    20    38    1
    41    22    39    1
    42    24    40    1
    43    25    41    1
    44    26    42    1
