
     RDKit          3D

 23 23  0  0  0  0  0  0  0  0999 V2000
    2.6663    1.1503    0.7223 O   0  0  0  0  0  0  0  0  0  0  0  0
    2.2030   -0.0594    0.2430 C   0  0  0  0  0  0  0  0  0  0  0  0
    0.8306    0.0902   -0.4304 C   0  0  1  0  0  0  0  0  0  0  0  0
    0.4335   -1.2707   -0.9059 C   0  0  0  0  0  0  0  0  0  0  0  0
   -0.9522   -1.4308   -1.1836 N   0  0  0  0  0  0  0  0  0  0  0  0
   -1.7047   -1.1186    0.0097 C   0  0  0  0  0  0  0  0  0  0  0  0
   -1.5749    0.3719    0.2403 C   0  0  1  0  0  0  0  0  0  0  0  0
   -2.3553    0.7916    1.2899 O   0  0  0  0  0  0  0  0  0  0  0  0
   -0.1344    0.7345    0.4996 C   0  0  2  0  0  0  0  0  0  0  0  0
   -0.0460    2.1350    0.3225 O   0  0  0  0  0  0  0  0  0  0  0  0
    2.8148    1.1241    1.6959 H   0  0  0  0  0  0  0  0  0  0  0  0
    2.9406   -0.4556   -0.4865 H   0  0  0  0  0  0  0  0  0  0  0  0
    2.1483   -0.7684    1.0853 H   0  0  0  0  0  0  0  0  0  0  0  0
    0.9418    0.7395   -1.3225 H   0  0  0  0  0  0  0  0  0  0  0  0
    0.7169   -2.0350   -0.1336 H   0  0  0  0  0  0  0  0  0  0  0  0
    1.0664   -1.4978   -1.8094 H   0  0  0  0  0  0  0  0  0  0  0  0
   -1.3103   -0.9339   -2.0037 H   0  0  0  0  0  0  0  0  0  0  0  0
   -1.2743   -1.6826    0.8561 H   0  0  0  0  0  0  0  0  0  0  0  0
   -2.7762   -1.3589   -0.1468 H   0  0  0  0  0  0  0  0  0  0  0  0
   -1.8798    0.8651   -0.7041 H   0  0  0  0  0  0  0  0  0  0  0  0
   -2.5218    1.7757    1.2038 H   0  0  0  0  0  0  0  0  0  0  0  0
    0.1129    0.5365    1.5718 H   0  0  0  0  0  0  0  0  0  0  0  0
   -0.3449    2.2973   -0.6138 H   0  0  0  0  0  0  0  0  0  0  0  0
  1  2  1  0
  2  3  1  0
  3  4  1  0
  4  5  1  0
  5  6  1  0
  6  7  1  0
  7  8  1  0
  7  9  1  0
  9 10  1  0
  9  3  1  0
  1 11  1  0
  2 12  1  0
  2 13  1  0
  3 14  1  6
  4 15  1  0
  4 16  1  0
  5 17  1  0
  6 18  1  0
  6 19  1  0
  7 20  1  6
  8 21  1  0
  9 22  1  1
 10 23  1  0
M  END
$$$$
