@<TRIPOS>MOLECULE
*****
 23 23 0 0 0
SMALL
GASTEIGER

@<TRIPOS>ATOM
      1 O           2.6663    1.1503    0.7223 O.3     1  UNL1       -0.3946
      2 C           2.2030   -0.0594    0.2430 C.3     1  UNL1        0.0506
      3 C           0.8306    0.0902   -0.4304 C.3     1  UNL1        0.0231
      4 C           0.4335   -1.2707   -0.9059 C.3     1  UNL1        0.0033
      5 N          -0.9522   -1.4308   -1.1836 N.3     1  UNL1       -0.3130
      6 C          -1.7047   -1.1186    0.0097 C.3     1  UNL1        0.0244
      7 C          -1.5749    0.3719    0.2403 C.3     1  UNL1        0.0938
      8 O          -2.3553    0.7916    1.2899 O.3     1  UNL1       -0.3880
      9 C          -0.1344    0.7345    0.4996 C.3     1  UNL1        0.0883
     10 O          -0.0460    2.1350    0.3225 O.3     1  UNL1       -0.3888
     11 H           2.8148    1.1241    1.6959 H       1  UNL1        0.2094
     12 H           2.9406   -0.4556   -0.4865 H       1  UNL1        0.0561
     13 H           2.1483   -0.7684    1.0853 H       1  UNL1        0.0561
     14 H           0.9418    0.7395   -1.3225 H       1  UNL1        0.0361
     15 H           0.7169   -2.0350   -0.1336 H       1  UNL1        0.0428
     16 H           1.0664   -1.4978   -1.8094 H       1  UNL1        0.0428
     17 H          -1.3103   -0.9339   -2.0037 H       1  UNL1        0.1220
     18 H          -1.2743   -1.6826    0.8561 H       1  UNL1        0.0450
     19 H          -2.7762   -1.3589   -0.1468 H       1  UNL1        0.0450
     20 H          -1.8798    0.8651   -0.7041 H       1  UNL1        0.0632
     21 H          -2.5218    1.7757    1.2038 H       1  UNL1        0.2099
     22 H           0.1129    0.5365    1.5718 H       1  UNL1        0.0623
     23 H          -0.3449    2.2973   -0.6138 H       1  UNL1        0.2099
@<TRIPOS>BOND
     1     1     2    1
     2     2     3    1
     3     3     4    1
     4     4     5    1
     5     5     6    1
     6     6     7    1
     7     7     8    1
     8     7     9    1
     9     9    10    1
    10     9     3    1
    11     1    11    1
    12     2    12    1
    13     2    13    1
    14     3    14    1
    15     4    15    1
    16     4    16    1
    17     5    17    1
    18     6    18    1
    19     6    19    1
    20     7    20    1
    21     8    21    1
    22     9    22    1
    23    10    23    1
