@<TRIPOS>MOLECULE
*****
 48 49 0 0 0
SMALL
GASTEIGER

@<TRIPOS>ATOM
      1 C           5.4368    0.0789    0.4407 C.3     1  UNL1       -0.0524
      2 C           3.9660    0.2632    0.8233 C.3     1  UNL1       -0.0040
      3 N           3.1863   -0.0262   -0.3200 N.3     1  UNL1       -0.3028
      4 C           3.2524    0.8473   -1.4142 C.3     1  UNL1       -0.0040
      5 C           2.6581    2.2153   -1.1741 C.3     1  UNL1       -0.0524
      6 C           2.7872   -1.3611   -0.5108 C.3     1  UNL1       -0.0011
      7 C           1.7763   -1.8710    0.4925 C.3     1  UNL1       -0.0385
      8 C           0.5447   -1.0036    0.3508 C.3     1  UNL1       -0.0337
      9 C          -0.5527   -1.3825    1.2846 C.3     1  UNL1        0.0179
     10 C          -1.0609   -2.7857    1.1513 C.3     1  UNL1       -0.0467
     11 N          -1.6210   -0.4159    1.1784 N.pl3   1  UNL1       -0.3407
     12 C          -2.5136   -0.2458    0.1142 C.ar    1  UNL1        0.0380
     13 C          -2.4506   -1.0895   -0.9767 C.ar    1  UNL1       -0.0221
     14 C          -3.3423   -0.9458   -2.0337 C.ar    1  UNL1        0.0300
     15 N          -4.2652    0.0083   -1.9992 N.ar    1  UNL1       -0.2548
     16 C          -4.3951    0.8714   -0.9741 C.ar    1  UNL1        0.0741
     17 C          -5.3778    1.8448   -0.9967 C.ar    1  UNL1       -0.0173
     18 C          -5.4943    2.7147    0.0568 C.ar    1  UNL1        0.0430
     19 CL         -6.7384    3.9642    0.0506 Cl      1  UNL1       -0.0835
     20 C          -4.6203    2.5882    1.1119 C.ar    1  UNL1       -0.0426
     21 C          -3.6176    1.6028    1.1455 C.ar    1  UNL1       -0.0494
     22 C          -3.5048    0.7343    0.0885 C.ar    1  UNL1        0.0213
     23 H           5.4895   -0.5785   -0.4561 H       1  UNL1        0.0242
     24 H           5.8897    1.0333    0.1436 H       1  UNL1        0.0242
     25 H           6.0113   -0.3717    1.2749 H       1  UNL1        0.0242
     26 H           3.8749    1.2572    1.2541 H       1  UNL1        0.0424
     27 H           3.7470   -0.4863    1.6150 H       1  UNL1        0.0424
     28 H           4.3221    1.0110   -1.7090 H       1  UNL1        0.0424
     29 H           2.7721    0.3499   -2.2985 H       1  UNL1        0.0424
     30 H           1.7696    2.3170   -1.8302 H       1  UNL1        0.0242
     31 H           2.2647    2.2911   -0.1293 H       1  UNL1        0.0242
     32 H           3.3476    3.0313   -1.4270 H       1  UNL1        0.0242
     33 H           2.3060   -1.4477   -1.5166 H       1  UNL1        0.0426
     34 H           3.6802   -2.0228   -0.5454 H       1  UNL1        0.0426
     35 H           1.5274   -2.9100    0.2015 H       1  UNL1        0.0278
     36 H           2.1654   -1.8866    1.5288 H       1  UNL1        0.0278
     37 H           0.8812    0.0236    0.6929 H       1  UNL1        0.0283
     38 H           0.2404   -0.9962   -0.6923 H       1  UNL1        0.0283
     39 H          -0.1672   -1.2970    2.3591 H       1  UNL1        0.0495
     40 H          -0.5919   -3.3450    0.3279 H       1  UNL1        0.0247
     41 H          -2.1646   -2.7437    1.0458 H       1  UNL1        0.0247
     42 H          -0.9122   -3.3310    2.1356 H       1  UNL1        0.0247
     43 H          -1.7357    0.2456    2.0104 H       1  UNL1        0.1464
     44 H          -1.7563   -1.8963   -1.0991 H       1  UNL1        0.0651
     45 H          -3.2953   -1.6054   -2.8920 H       1  UNL1        0.0830
     46 H          -6.0439    1.9171   -1.8346 H       1  UNL1        0.0653
     47 H          -4.7080    3.2681    1.9405 H       1  UNL1        0.0632
     48 H          -2.9671    1.5668    2.0103 H       1  UNL1        0.0625
@<TRIPOS>BOND
     1     1     2    1
     2     2     3    1
     3     3     4    1
     4     4     5    1
     5     3     6    1
     6     6     7    1
     7     7     8    1
     8     8     9    1
     9     9    10    1
    10     9    11    1
    11    11    12    1
    12    12    13   ar
    13    13    14   ar
    14    14    15   ar
    15    15    16   ar
    16    16    17   ar
    17    17    18   ar
    18    18    19    1
    19    18    20   ar
    20    20    21   ar
    21    21    22   ar
    22    22    12   ar
    23    22    16   ar
    24     1    23    1
    25     1    24    1
    26     1    25    1
    27     2    26    1
    28     2    27    1
    29     4    28    1
    30     4    29    1
    31     5    30    1
    32     5    31    1
    33     5    32    1
    34     6    33    1
    35     6    34    1
    36     7    35    1
    37     7    36    1
    38     8    37    1
    39     8    38    1
    40     9    39    1
    41    10    40    1
    42    10    41    1
    43    10    42    1
    44    11    43    1
    45    13    44    1
    46    14    45    1
    47    17    46    1
    48    20    47    1
    49    21    48    1
