@<TRIPOS>MOLECULE
*****
 68 70 0 0 0
SMALL
GASTEIGER

@<TRIPOS>ATOM
      1 C          -6.7558   -1.5858    2.0456 C.3     1  UNL1       -0.0497
      2 C          -5.3448   -1.0242    2.2353 C.3     1  UNL1        0.0048
      3 C          -5.3575   -0.0633    3.3792 C.3     1  UNL1       -0.0497
      4 N          -4.7866   -0.5381    1.0308 N.3     1  UNL1       -0.3000
      5 C          -5.4263    0.4953    0.3521 C.3     1  UNL1       -0.0122
      6 C          -3.3948   -0.7325    0.8248 C.3     1  UNL1        0.0108
      7 C          -2.4878   -0.0962    1.8329 C.3     1  UNL1       -0.0356
      8 C          -1.2100    0.4500    1.1994 C.3     1  UNL1       -0.0326
      9 C          -0.7489   -0.6490    0.2946 C.3     1  UNL1        0.0304
     10 N           0.6343   -0.6775    0.0352 N.am    1  UNL1       -0.2965
     11 C           1.4563   -1.9045    0.2091 C.3     1  UNL1        0.0172
     12 C           2.3163   -1.8163   -1.0336 C.3     1  UNL1       -0.0101
     13 C           2.6027   -0.3366   -1.1253 C.3     1  UNL1        0.1013
     14 N           3.9256   -0.0178   -0.6411 N.am    1  UNL1       -0.2987
     15 C           4.9691    0.4822   -1.4681 C.2     1  UNL1        0.2630
     16 O           4.6826    0.6420   -2.6857 O.2     1  UNL1       -0.2685
     17 C           6.2969    0.7933   -0.9383 C.ar    1  UNL1        0.1260
     18 C           7.2738    1.2757   -1.7802 C.ar    1  UNL1       -0.0312
     19 C           8.5372    1.5755   -1.2937 C.ar    1  UNL1       -0.0576
     20 C           8.7912    1.3772    0.0606 C.ar    1  UNL1       -0.0316
     21 C           7.7978    0.8928    0.8863 C.ar    1  UNL1        0.1444
     22 C           8.1069    0.6975    2.3107 C.3     1  UNL1        0.4342
     23 F           6.9764    0.5309    3.0765 F       1  UNL1       -0.1644
     24 F           9.0262   -0.3161    2.5062 F       1  UNL1       -0.1644
     25 F           8.7185    1.8717    2.7668 F       1  UNL1       -0.1644
     26 N           6.5685    0.6114    0.3635 N.ar    1  UNL1       -0.2381
     27 C           1.5288    0.3420   -0.4234 C.2     1  UNL1        0.2362
     28 O           1.3484    1.5523   -0.2173 O.2     1  UNL1       -0.2736
     29 C          -1.6127   -0.5436   -0.9532 C.3     1  UNL1       -0.0016
     30 C          -1.0833    0.4778   -1.8918 C.3     1  UNL1        0.0700
     31 S          -2.0112    0.6815   -3.3822 S.O2    1  UNL1       -0.0335
     32 C          -3.6572    1.2346   -3.1565 C.3     1  UNL1        0.0545
     33 O          -1.3321    1.6629   -4.3096 O.2     1  UNL1       -0.1746
     34 O          -2.0810   -0.6260   -4.1501 O.2     1  UNL1       -0.1746
     35 C          -3.0515   -0.3931   -0.6084 C.3     1  UNL1       -0.0313
     36 H          -7.4957   -0.7738    1.8982 H       1  UNL1        0.0245
     37 H          -6.7963   -2.2187    1.1350 H       1  UNL1        0.0245
     38 H          -7.0153   -2.1648    2.9383 H       1  UNL1        0.0245
     39 H          -4.7392   -1.9183    2.5539 H       1  UNL1        0.0457
     40 H          -4.4790   -0.2572    4.0262 H       1  UNL1        0.0245
     41 H          -5.3412    0.9656    2.9574 H       1  UNL1        0.0245
     42 H          -6.2808   -0.2119    3.9779 H       1  UNL1        0.0245
     43 H          -5.6299    0.2357   -0.7265 H       1  UNL1        0.0391
     44 H          -6.4230    0.6841    0.8024 H       1  UNL1        0.0391
     45 H          -4.9114    1.4720    0.3192 H       1  UNL1        0.0391
     46 H          -3.2233   -1.8317    0.9218 H       1  UNL1        0.0463
     47 H          -2.1426   -0.8109    2.6091 H       1  UNL1        0.0281
     48 H          -3.0252    0.7092    2.3867 H       1  UNL1        0.0281
     49 H          -0.4611    0.5626    2.0070 H       1  UNL1        0.0284
     50 H          -1.3828    1.3647    0.6373 H       1  UNL1        0.0284
     51 H          -1.0512   -1.6753    0.7040 H       1  UNL1        0.0504
     52 H           0.8193   -2.8090    0.1439 H       1  UNL1        0.0465
     53 H           2.0447   -1.8616    1.1255 H       1  UNL1        0.0465
     54 H           1.8035   -2.2115   -1.9239 H       1  UNL1        0.0303
     55 H           3.2529   -2.3980   -0.8096 H       1  UNL1        0.0303
     56 H           2.6225   -0.1041   -2.2312 H       1  UNL1        0.0595
     57 H           4.1245   -0.1602    0.3570 H       1  UNL1        0.1498
     58 H           7.0934    1.4393   -2.8532 H       1  UNL1        0.0640
     59 H           9.3281    1.9589   -1.9394 H       1  UNL1        0.0619
     60 H           9.7921    1.6203    0.4184 H       1  UNL1        0.0638
     61 H          -1.4438   -1.5418   -1.4793 H       1  UNL1        0.0335
     62 H          -1.1183    1.4888   -1.3799 H       1  UNL1        0.0503
     63 H          -0.0232    0.2707   -2.1948 H       1  UNL1        0.0503
     64 H          -4.3928    0.4514   -2.9237 H       1  UNL1        0.0464
     65 H          -3.7514    2.1551   -2.5251 H       1  UNL1        0.0464
     66 H          -3.9925    1.6232   -4.1784 H       1  UNL1        0.0464
     67 H          -3.3452    0.6489   -0.8015 H       1  UNL1        0.0284
     68 H          -3.6318   -1.0276   -1.3039 H       1  UNL1        0.0284
@<TRIPOS>BOND
     1     1     2    1
     2     2     3    1
     3     2     4    1
     4     4     5    1
     5     4     6    1
     6     6     7    1
     7     7     8    1
     8     8     9    1
     9     9    10    1
    10    10    11    1
    11    11    12    1
    12    12    13    1
    13    13    14    1
    14    14    15   am
    15    15    16    2
    16    15    17    1
    17    17    18   ar
    18    18    19   ar
    19    19    20   ar
    20    20    21   ar
    21    21    22    1
    22    22    23    1
    23    22    24    1
    24    22    25    1
    25    21    26   ar
    26    13    27    1
    27    27    28    2
    28     9    29    1
    29    29    30    1
    30    30    31    1
    31    31    32    1
    32    31    33    2
    33    31    34    2
    34    29    35    1
    35    35     6    1
    36    27    10   am
    37    26    17   ar
    38     1    36    1
    39     1    37    1
    40     1    38    1
    41     2    39    1
    42     3    40    1
    43     3    41    1
    44     3    42    1
    45     5    43    1
    46     5    44    1
    47     5    45    1
    48     6    46    1
    49     7    47    1
    50     7    48    1
    51     8    49    1
    52     8    50    1
    53     9    51    1
    54    11    52    1
    55    11    53    1
    56    12    54    1
    57    12    55    1
    58    13    56    1
    59    14    57    1
    60    18    58    1
    61    19    59    1
    62    20    60    1
    63    29    61    1
    64    30    62    1
    65    30    63    1
    66    32    64    1
    67    32    65    1
    68    32    66    1
    69    35    67    1
    70    35    68    1
