
     RDKit          3D

 68 70  0  0  0  0  0  0  0  0999 V2000
   -6.7558   -1.5858    2.0456 C   0  0  0  0  0  0  0  0  0  0  0  0
   -5.3448   -1.0242    2.2353 C   0  0  0  0  0  0  0  0  0  0  0  0
   -5.3575   -0.0633    3.3792 C   0  0  0  0  0  0  0  0  0  0  0  0
   -4.7866   -0.5381    1.0308 N   0  0  0  0  0  0  0  0  0  0  0  0
   -5.4263    0.4953    0.3521 C   0  0  0  0  0  0  0  0  0  0  0  0
   -3.3948   -0.7325    0.8248 C   0  0  2  0  0  0  0  0  0  0  0  0
   -2.4878   -0.0962    1.8329 C   0  0  0  0  0  0  0  0  0  0  0  0
   -1.2100    0.4500    1.1994 C   0  0  0  0  0  0  0  0  0  0  0  0
   -0.7489   -0.6490    0.2946 C   0  0  2  0  0  0  0  0  0  0  0  0
    0.6343   -0.6775    0.0352 N   0  0  0  0  0  0  0  0  0  0  0  0
    1.4563   -1.9045    0.2091 C   0  0  0  0  0  0  0  0  0  0  0  0
    2.3163   -1.8163   -1.0336 C   0  0  0  0  0  0  0  0  0  0  0  0
    2.6027   -0.3366   -1.1253 C   0  0  2  0  0  0  0  0  0  0  0  0
    3.9256   -0.0178   -0.6411 N   0  0  0  0  0  0  0  0  0  0  0  0
    4.9691    0.4822   -1.4681 C   0  0  0  0  0  0  0  0  0  0  0  0
    4.6826    0.6420   -2.6857 O   0  0  0  0  0  0  0  0  0  0  0  0
    6.2969    0.7933   -0.9383 C   0  0  0  0  0  0  0  0  0  0  0  0
    7.2738    1.2757   -1.7802 C   0  0  0  0  0  0  0  0  0  0  0  0
    8.5372    1.5755   -1.2937 C   0  0  0  0  0  0  0  0  0  0  0  0
    8.7912    1.3772    0.0606 C   0  0  0  0  0  0  0  0  0  0  0  0
    7.7978    0.8928    0.8863 C   0  0  0  0  0  0  0  0  0  0  0  0
    8.1069    0.6975    2.3107 C   0  0  0  0  0  0  0  0  0  0  0  0
    6.9764    0.5309    3.0765 F   0  0  0  0  0  0  0  0  0  0  0  0
    9.0262   -0.3161    2.5062 F   0  0  0  0  0  0  0  0  0  0  0  0
    8.7185    1.8717    2.7668 F   0  0  0  0  0  0  0  0  0  0  0  0
    6.5685    0.6114    0.3635 N   0  0  0  0  0  0  0  0  0  0  0  0
    1.5288    0.3420   -0.4234 C   0  0  0  0  0  0  0  0  0  0  0  0
    1.3484    1.5523   -0.2173 O   0  0  0  0  0  0  0  0  0  0  0  0
   -1.6127   -0.5436   -0.9532 C   0  0  2  0  0  0  0  0  0  0  0  0
   -1.0833    0.4778   -1.8918 C   0  0  0  0  0  0  0  0  0  0  0  0
   -2.0112    0.6815   -3.3822 S   0  0  0  0  0  6  0  0  0  0  0  0
   -3.6572    1.2346   -3.1565 C   0  0  0  0  0  0  0  0  0  0  0  0
   -1.3321    1.6629   -4.3096 O   0  0  0  0  0  0  0  0  0  0  0  0
   -2.0810   -0.6260   -4.1501 O   0  0  0  0  0  0  0  0  0  0  0  0
   -3.0515   -0.3931   -0.6084 C   0  0  0  0  0  0  0  0  0  0  0  0
   -7.4957   -0.7738    1.8982 H   0  0  0  0  0  0  0  0  0  0  0  0
   -6.7963   -2.2187    1.1350 H   0  0  0  0  0  0  0  0  0  0  0  0
   -7.0153   -2.1648    2.9383 H   0  0  0  0  0  0  0  0  0  0  0  0
   -4.7392   -1.9183    2.5539 H   0  0  0  0  0  0  0  0  0  0  0  0
   -4.4790   -0.2572    4.0262 H   0  0  0  0  0  0  0  0  0  0  0  0
   -5.3412    0.9656    2.9574 H   0  0  0  0  0  0  0  0  0  0  0  0
   -6.2808   -0.2119    3.9779 H   0  0  0  0  0  0  0  0  0  0  0  0
   -5.6299    0.2357   -0.7265 H   0  0  0  0  0  0  0  0  0  0  0  0
   -6.4230    0.6841    0.8024 H   0  0  0  0  0  0  0  0  0  0  0  0
   -4.9114    1.4720    0.3192 H   0  0  0  0  0  0  0  0  0  0  0  0
   -3.2233   -1.8317    0.9218 H   0  0  0  0  0  0  0  0  0  0  0  0
   -2.1426   -0.8109    2.6091 H   0  0  0  0  0  0  0  0  0  0  0  0
   -3.0252    0.7092    2.3867 H   0  0  0  0  0  0  0  0  0  0  0  0
   -0.4611    0.5626    2.0070 H   0  0  0  0  0  0  0  0  0  0  0  0
   -1.3828    1.3647    0.6373 H   0  0  0  0  0  0  0  0  0  0  0  0
   -1.0512   -1.6753    0.7040 H   0  0  0  0  0  0  0  0  0  0  0  0
    0.8193   -2.8090    0.1439 H   0  0  0  0  0  0  0  0  0  0  0  0
    2.0447   -1.8616    1.1255 H   0  0  0  0  0  0  0  0  0  0  0  0
    1.8035   -2.2115   -1.9239 H   0  0  0  0  0  0  0  0  0  0  0  0
    3.2529   -2.3980   -0.8096 H   0  0  0  0  0  0  0  0  0  0  0  0
    2.6225   -0.1041   -2.2312 H   0  0  0  0  0  0  0  0  0  0  0  0
    4.1245   -0.1602    0.3570 H   0  0  0  0  0  0  0  0  0  0  0  0
    7.0934    1.4393   -2.8532 H   0  0  0  0  0  0  0  0  0  0  0  0
    9.3281    1.9589   -1.9394 H   0  0  0  0  0  0  0  0  0  0  0  0
    9.7921    1.6203    0.4184 H   0  0  0  0  0  0  0  0  0  0  0  0
   -1.4438   -1.5418   -1.4793 H   0  0  0  0  0  0  0  0  0  0  0  0
   -1.1183    1.4888   -1.3799 H   0  0  0  0  0  0  0  0  0  0  0  0
   -0.0232    0.2707   -2.1948 H   0  0  0  0  0  0  0  0  0  0  0  0
   -4.3928    0.4514   -2.9237 H   0  0  0  0  0  0  0  0  0  0  0  0
   -3.7514    2.1551   -2.5251 H   0  0  0  0  0  0  0  0  0  0  0  0
   -3.9925    1.6232   -4.1784 H   0  0  0  0  0  0  0  0  0  0  0  0
   -3.3452    0.6489   -0.8015 H   0  0  0  0  0  0  0  0  0  0  0  0
   -3.6318   -1.0276   -1.3039 H   0  0  0  0  0  0  0  0  0  0  0  0
  1  2  1  0
  2  3  1  0
  2  4  1  0
  4  5  1  0
  4  6  1  0
  6  7  1  0
  7  8  1  0
  8  9  1  0
  9 10  1  0
 10 11  1  0
 11 12  1  0
 12 13  1  0
 13 14  1  0
 14 15  1  0
 15 16  2  0
 15 17  1  0
 17 18  2  0
 18 19  1  0
 19 20  2  0
 20 21  1  0
 21 22  1  0
 22 23  1  0
 22 24  1  0
 22 25  1  0
 21 26  2  0
 13 27  1  0
 27 28  2  0
  9 29  1  0
 29 30  1  0
 30 31  1  0
 31 32  1  0
 31 33  2  0
 31 34  2  0
 29 35  1  0
 35  6  1  0
 27 10  1  0
 26 17  1  0
  1 36  1  0
  1 37  1  0
  1 38  1  0
  2 39  1  0
  3 40  1  0
  3 41  1  0
  3 42  1  0
  5 43  1  0
  5 44  1  0
  5 45  1  0
  6 46  1  6
  7 47  1  0
  7 48  1  0
  8 49  1  0
  8 50  1  0
  9 51  1  1
 11 52  1  0
 11 53  1  0
 12 54  1  0
 12 55  1  0
 13 56  1  6
 14 57  1  0
 18 58  1  0
 19 59  1  0
 20 60  1  0
 29 61  1  6
 30 62  1  0
 30 63  1  0
 32 64  1  0
 32 65  1  0
 32 66  1  0
 35 67  1  0
 35 68  1  0
M  END
$$$$
