@<TRIPOS>MOLECULE
*****
 30 32 0 0 0
SMALL
GASTEIGER

@<TRIPOS>ATOM
      1 O          -0.7232   -1.9305   -3.7230 O.2     1  UNL1       -0.2261
      2 C          -0.8542   -1.4842   -2.5414 C.2     1  UNL1        0.4065
      3 N          -2.0283   -0.7259   -2.3025 N.am    1  UNL1       -0.2507
      4 C          -2.1671   -0.2283   -0.9660 C.ar    1  UNL1        0.0448
      5 C          -3.3119    0.5436   -0.7258 C.ar    1  UNL1       -0.0386
      6 C          -3.5164    1.0823    0.5249 C.ar    1  UNL1       -0.0416
      7 C          -2.5605    0.8228    1.4849 C.ar    1  UNL1        0.0415
      8 CL         -2.8208    1.5122    3.0863 Cl      1  UNL1       -0.0835
      9 C          -1.4481    0.0718    1.2493 C.ar    1  UNL1       -0.0334
     10 C          -1.2161   -0.4872   -0.0106 C.ar    1  UNL1        0.0397
     11 C          -0.0299   -1.3086   -0.2597 C.3     1  UNL1        0.2958
     12 C           1.1352   -0.5242    0.1861 C.1     1  UNL1       -0.0407
     13 C           2.0999    0.1212    0.5444 C.1     1  UNL1       -0.0943
     14 C           3.2688    0.8982    0.9650 C.3     1  UNL1        0.0209
     15 C           3.2856    2.3489    0.7701 C.3     1  UNL1       -0.0382
     16 C           4.1057    1.5216   -0.1963 C.3     1  UNL1       -0.0382
     17 C          -0.1192   -2.6008    0.5815 C.3     1  UNL1        0.4460
     18 F          -1.2578   -3.2669    0.1975 F       1  UNL1       -0.1654
     19 F           1.0103   -3.3417    0.2083 F       1  UNL1       -0.1654
     20 F          -0.0935   -2.3082    1.9222 F       1  UNL1       -0.1654
     21 O           0.0876   -1.7296   -1.5743 O.3     1  UNL1       -0.4168
     22 H          -2.7528   -0.5247   -3.0104 H       1  UNL1        0.1582
     23 H          -4.0438    0.7280   -1.5040 H       1  UNL1        0.0637
     24 H          -4.3764    1.6834    0.7698 H       1  UNL1        0.0633
     25 H          -0.7053   -0.1208    2.0116 H       1  UNL1        0.0637
     26 H           3.8736    0.4971    1.8113 H       1  UNL1        0.0433
     27 H           3.9142    2.9962    1.4191 H       1  UNL1        0.0277
     28 H           2.4095    2.9110    0.3601 H       1  UNL1        0.0277
     29 H           5.1911    1.4433   -0.0734 H       1  UNL1        0.0277
     30 H           3.6438    1.4001   -1.2049 H       1  UNL1        0.0277
@<TRIPOS>BOND
     1     1     2    2
     2     2     3   am
     3     3     4    1
     4     4     5   ar
     5     5     6   ar
     6     6     7   ar
     7     7     8    1
     8     7     9   ar
     9     9    10   ar
    10    10    11    1
    11    11    12    1
    12    12    13    3
    13    13    14    1
    14    14    15    1
    15    15    16    1
    16    11    17    1
    17    17    18    1
    18    17    19    1
    19    17    20    1
    20    11    21    1
    21    21     2    1
    22    10     4   ar
    23    16    14    1
    24     3    22    1
    25     5    23    1
    26     6    24    1
    27     9    25    1
    28    14    26    1
    29    15    27    1
    30    15    28    1
    31    16    29    1
    32    16    30    1
