@<TRIPOS>MOLECULE
*****
 69 71 0 0 0
SMALL
GASTEIGER

@<TRIPOS>ATOM
      1 C           8.3379    1.7487    0.6830 C.3     1  UNL1       -0.0130
      2 N           7.8067    0.4000    0.4596 N.3     1  UNL1       -0.3069
      3 C           8.5042   -0.0939   -0.7194 C.3     1  UNL1       -0.0130
      4 C           6.3902    0.5451    0.2208 C.3     1  UNL1        0.0141
      5 C           5.7116   -0.7850   -0.0266 C.3     1  UNL1        0.0275
      6 N           4.3238   -0.5821   -0.2585 N.am    1  UNL1       -0.2987
      7 C           3.3528   -0.5819    0.8158 C.3     1  UNL1        0.0305
      8 C           2.3002    0.5027    0.5665 C.3     1  UNL1        0.0308
      9 N           1.2147   -0.0310   -0.2972 N.am    1  UNL1       -0.2955
     10 C          -0.0334    0.0303    0.3049 C.2     1  UNL1        0.2490
     11 O          -0.0627    0.5782    1.4783 O.2     1  UNL1       -0.2699
     12 C          -1.2996   -0.4478   -0.2408 C.ar    1  UNL1        0.0657
     13 C          -1.4303   -1.3828   -1.1888 C.ar    1  UNL1       -0.0370
     14 C          -2.6648   -1.8138   -1.5878 C.ar    1  UNL1       -0.0023
     15 C          -3.0883   -2.8148   -2.5958 C.3     1  UNL1       -0.0064
     16 C          -3.2906   -2.2324   -3.9641 C.3     1  UNL1       -0.0556
     17 C          -4.3703   -3.4572   -2.0944 C.3     1  UNL1       -0.0556
     18 C          -2.0034   -3.8673   -2.6676 C.3     1  UNL1       -0.0556
     19 S          -3.7845   -0.8333   -0.5503 S.2     1  UNL1       -0.0771
     20 C          -2.4985    0.0411    0.2979 C.ar    1  UNL1        0.0853
     21 N          -2.7187    1.0336    1.3001 N.am    1  UNL1       -0.2629
     22 C          -4.0819    1.3282    1.6664 C.2     1  UNL1        0.3085
     23 O          -5.0701    0.7525    1.1471 O.2     1  UNL1       -0.2521
     24 N          -4.3627    2.3171    2.6649 N.am    1  UNL1       -0.2678
     25 C          -5.7050    2.6087    3.0255 C.ar    1  UNL1        0.0546
     26 C          -6.3364    1.9347    4.0425 C.ar    1  UNL1       -0.0389
     27 C          -7.6369    2.2322    4.3737 C.ar    1  UNL1       -0.0585
     28 C          -8.2870    3.2148    3.6670 C.ar    1  UNL1       -0.0419
     29 C          -7.6733    3.9044    2.6423 C.ar    1  UNL1        0.0610
     30 CL         -8.4948    5.1539    1.7403 Cl      1  UNL1       -0.0820
     31 C          -6.3716    3.6003    2.3174 C.ar    1  UNL1        0.0804
     32 CL         -5.5705    4.4610    1.0215 Cl      1  UNL1       -0.0801
     33 C           1.4864   -0.4925   -1.6247 C.3     1  UNL1        0.0233
     34 C           2.7259    0.2157   -2.2055 C.3     1  UNL1        0.0399
     35 C           3.9575   -0.3744   -1.6312 C.2     1  UNL1        0.2171
     36 O           4.7938   -0.7417   -2.4915 O.2     1  UNL1       -0.2755
     37 H           7.7093    2.4476    0.0967 H       1  UNL1        0.0391
     38 H           8.2488    2.0399    1.7488 H       1  UNL1        0.0391
     39 H           9.3985    1.7726    0.3565 H       1  UNL1        0.0391
     40 H           8.2479   -1.1393   -0.8961 H       1  UNL1        0.0391
     41 H           9.5933   -0.0185   -0.5449 H       1  UNL1        0.0391
     42 H           8.2632    0.5681   -1.5844 H       1  UNL1        0.0391
     43 H           6.2708    1.1421   -0.7015 H       1  UNL1        0.0442
     44 H           5.9443    1.0175    1.1113 H       1  UNL1        0.0442
     45 H           5.8641   -1.4639    0.8383 H       1  UNL1        0.0477
     46 H           6.1787   -1.2856   -0.9035 H       1  UNL1        0.0477
     47 H           2.8635   -1.5707    0.8260 H       1  UNL1        0.0480
     48 H           3.7787   -0.3933    1.7988 H       1  UNL1        0.0480
     49 H           2.7698    1.3610    0.0770 H       1  UNL1        0.0480
     50 H           1.8454    0.7253    1.5429 H       1  UNL1        0.0480
     51 H          -0.5701   -1.9089   -1.7053 H       1  UNL1        0.0634
     52 H          -2.3346   -2.3374   -4.5379 H       1  UNL1        0.0238
     53 H          -3.6759   -1.1970   -3.9626 H       1  UNL1        0.0238
     54 H          -4.0477   -2.8906   -4.4781 H       1  UNL1        0.0238
     55 H          -4.2768   -3.5959   -0.9914 H       1  UNL1        0.0238
     56 H          -4.4037   -4.4676   -2.5864 H       1  UNL1        0.0238
     57 H          -5.2530   -2.8514   -2.3795 H       1  UNL1        0.0238
     58 H          -1.7925   -4.2314   -1.6468 H       1  UNL1        0.0238
     59 H          -2.3545   -4.7241   -3.2817 H       1  UNL1        0.0238
     60 H          -1.1113   -3.4043   -3.1360 H       1  UNL1        0.0238
     61 H          -2.0058    1.5741    1.7938 H       1  UNL1        0.1569
     62 H          -3.5629    2.8123    3.1154 H       1  UNL1        0.1564
     63 H          -5.8270    1.1659    4.5958 H       1  UNL1        0.0637
     64 H          -8.1261    1.7156    5.1561 H       1  UNL1        0.0619
     65 H          -9.3100    3.4429    3.9339 H       1  UNL1        0.0633
     66 H           0.6750   -0.1795   -2.2991 H       1  UNL1        0.0469
     67 H           1.6400   -1.5754   -1.7026 H       1  UNL1        0.0469
     68 H           2.6697    0.0960   -3.2950 H       1  UNL1        0.0374
     69 H           2.6203    1.2826   -1.9524 H       1  UNL1        0.0374
@<TRIPOS>BOND
     1     1     2    1
     2     2     3    1
     3     2     4    1
     4     4     5    1
     5     5     6    1
     6     6     7    1
     7     7     8    1
     8     8     9    1
     9     9    10   am
    10    10    11    2
    11    10    12    1
    12    12    13   ar
    13    13    14   ar
    14    14    15    1
    15    15    16    1
    16    15    17    1
    17    15    18    1
    18    14    19   ar
    19    19    20   ar
    20    20    21    1
    21    21    22   am
    22    22    23    2
    23    22    24   am
    24    24    25    1
    25    25    26   ar
    26    26    27   ar
    27    27    28   ar
    28    28    29   ar
    29    29    30    1
    30    29    31   ar
    31    31    32    1
    32     9    33    1
    33    33    34    1
    34    34    35    1
    35    35    36    2
    36    35     6   am
    37    20    12   ar
    38    31    25   ar
    39     1    37    1
    40     1    38    1
    41     1    39    1
    42     3    40    1
    43     3    41    1
    44     3    42    1
    45     4    43    1
    46     4    44    1
    47     5    45    1
    48     5    46    1
    49     7    47    1
    50     7    48    1
    51     8    49    1
    52     8    50    1
    53    13    51    1
    54    16    52    1
    55    16    53    1
    56    16    54    1
    57    17    55    1
    58    17    56    1
    59    17    57    1
    60    18    58    1
    61    18    59    1
    62    18    60    1
    63    21    61    1
    64    24    62    1
    65    26    63    1
    66    27    64    1
    67    28    65    1
    68    33    66    1
    69    33    67    1
    70    34    68    1
    71    34    69    1
