
     RDKit          3D

 69 71  0  0  0  0  0  0  0  0999 V2000
    8.3379    1.7487    0.6830 C   0  0  0  0  0  0  0  0  0  0  0  0
    7.8067    0.4000    0.4596 N   0  0  0  0  0  0  0  0  0  0  0  0
    8.5042   -0.0939   -0.7194 C   0  0  0  0  0  0  0  0  0  0  0  0
    6.3902    0.5451    0.2208 C   0  0  0  0  0  0  0  0  0  0  0  0
    5.7116   -0.7850   -0.0266 C   0  0  0  0  0  0  0  0  0  0  0  0
    4.3238   -0.5821   -0.2585 N   0  0  0  0  0  0  0  0  0  0  0  0
    3.3528   -0.5819    0.8158 C   0  0  0  0  0  0  0  0  0  0  0  0
    2.3002    0.5027    0.5665 C   0  0  0  0  0  0  0  0  0  0  0  0
    1.2147   -0.0310   -0.2972 N   0  0  0  0  0  0  0  0  0  0  0  0
   -0.0334    0.0303    0.3049 C   0  0  0  0  0  0  0  0  0  0  0  0
   -0.0627    0.5782    1.4783 O   0  0  0  0  0  0  0  0  0  0  0  0
   -1.2996   -0.4478   -0.2408 C   0  0  0  0  0  0  0  0  0  0  0  0
   -1.4303   -1.3828   -1.1888 C   0  0  0  0  0  0  0  0  0  0  0  0
   -2.6648   -1.8138   -1.5878 C   0  0  0  0  0  0  0  0  0  0  0  0
   -3.0883   -2.8148   -2.5958 C   0  0  0  0  0  0  0  0  0  0  0  0
   -3.2906   -2.2324   -3.9641 C   0  0  0  0  0  0  0  0  0  0  0  0
   -4.3703   -3.4572   -2.0944 C   0  0  0  0  0  0  0  0  0  0  0  0
   -2.0034   -3.8673   -2.6676 C   0  0  0  0  0  0  0  0  0  0  0  0
   -3.7845   -0.8333   -0.5503 S   0  0  0  0  0  0  0  0  0  0  0  0
   -2.4985    0.0411    0.2979 C   0  0  0  0  0  0  0  0  0  0  0  0
   -2.7187    1.0336    1.3001 N   0  0  0  0  0  0  0  0  0  0  0  0
   -4.0819    1.3282    1.6664 C   0  0  0  0  0  0  0  0  0  0  0  0
   -5.0701    0.7525    1.1471 O   0  0  0  0  0  0  0  0  0  0  0  0
   -4.3627    2.3171    2.6649 N   0  0  0  0  0  0  0  0  0  0  0  0
   -5.7050    2.6087    3.0255 C   0  0  0  0  0  0  0  0  0  0  0  0
   -6.3364    1.9347    4.0425 C   0  0  0  0  0  0  0  0  0  0  0  0
   -7.6369    2.2322    4.3737 C   0  0  0  0  0  0  0  0  0  0  0  0
   -8.2870    3.2148    3.6670 C   0  0  0  0  0  0  0  0  0  0  0  0
   -7.6733    3.9044    2.6423 C   0  0  0  0  0  0  0  0  0  0  0  0
   -8.4948    5.1539    1.7403 Cl  0  0  0  0  0  0  0  0  0  0  0  0
   -6.3716    3.6003    2.3174 C   0  0  0  0  0  0  0  0  0  0  0  0
   -5.5705    4.4610    1.0215 Cl  0  0  0  0  0  0  0  0  0  0  0  0
    1.4864   -0.4925   -1.6247 C   0  0  0  0  0  0  0  0  0  0  0  0
    2.7259    0.2157   -2.2055 C   0  0  0  0  0  0  0  0  0  0  0  0
    3.9575   -0.3744   -1.6312 C   0  0  0  0  0  0  0  0  0  0  0  0
    4.7938   -0.7417   -2.4915 O   0  0  0  0  0  0  0  0  0  0  0  0
    7.7093    2.4476    0.0967 H   0  0  0  0  0  0  0  0  0  0  0  0
    8.2488    2.0399    1.7488 H   0  0  0  0  0  0  0  0  0  0  0  0
    9.3985    1.7726    0.3565 H   0  0  0  0  0  0  0  0  0  0  0  0
    8.2479   -1.1393   -0.8961 H   0  0  0  0  0  0  0  0  0  0  0  0
    9.5933   -0.0185   -0.5449 H   0  0  0  0  0  0  0  0  0  0  0  0
    8.2632    0.5681   -1.5844 H   0  0  0  0  0  0  0  0  0  0  0  0
    6.2708    1.1421   -0.7015 H   0  0  0  0  0  0  0  0  0  0  0  0
    5.9443    1.0175    1.1113 H   0  0  0  0  0  0  0  0  0  0  0  0
    5.8641   -1.4639    0.8383 H   0  0  0  0  0  0  0  0  0  0  0  0
    6.1787   -1.2856   -0.9035 H   0  0  0  0  0  0  0  0  0  0  0  0
    2.8635   -1.5707    0.8260 H   0  0  0  0  0  0  0  0  0  0  0  0
    3.7787   -0.3933    1.7988 H   0  0  0  0  0  0  0  0  0  0  0  0
    2.7698    1.3610    0.0770 H   0  0  0  0  0  0  0  0  0  0  0  0
    1.8454    0.7253    1.5429 H   0  0  0  0  0  0  0  0  0  0  0  0
   -0.5701   -1.9089   -1.7053 H   0  0  0  0  0  0  0  0  0  0  0  0
   -2.3346   -2.3374   -4.5379 H   0  0  0  0  0  0  0  0  0  0  0  0
   -3.6759   -1.1970   -3.9626 H   0  0  0  0  0  0  0  0  0  0  0  0
   -4.0477   -2.8906   -4.4781 H   0  0  0  0  0  0  0  0  0  0  0  0
   -4.2768   -3.5959   -0.9914 H   0  0  0  0  0  0  0  0  0  0  0  0
   -4.4037   -4.4676   -2.5864 H   0  0  0  0  0  0  0  0  0  0  0  0
   -5.2530   -2.8514   -2.3795 H   0  0  0  0  0  0  0  0  0  0  0  0
   -1.7925   -4.2314   -1.6468 H   0  0  0  0  0  0  0  0  0  0  0  0
   -2.3545   -4.7241   -3.2817 H   0  0  0  0  0  0  0  0  0  0  0  0
   -1.1113   -3.4043   -3.1360 H   0  0  0  0  0  0  0  0  0  0  0  0
   -2.0058    1.5741    1.7938 H   0  0  0  0  0  0  0  0  0  0  0  0
   -3.5629    2.8123    3.1154 H   0  0  0  0  0  0  0  0  0  0  0  0
   -5.8270    1.1659    4.5958 H   0  0  0  0  0  0  0  0  0  0  0  0
   -8.1261    1.7156    5.1561 H   0  0  0  0  0  0  0  0  0  0  0  0
   -9.3100    3.4429    3.9339 H   0  0  0  0  0  0  0  0  0  0  0  0
    0.6750   -0.1795   -2.2991 H   0  0  0  0  0  0  0  0  0  0  0  0
    1.6400   -1.5754   -1.7026 H   0  0  0  0  0  0  0  0  0  0  0  0
    2.6697    0.0960   -3.2950 H   0  0  0  0  0  0  0  0  0  0  0  0
    2.6203    1.2826   -1.9524 H   0  0  0  0  0  0  0  0  0  0  0  0
  1  2  1  0
  2  3  1  0
  2  4  1  0
  4  5  1  0
  5  6  1  0
  6  7  1  0
  7  8  1  0
  8  9  1  0
  9 10  1  0
 10 11  2  0
 10 12  1  0
 12 13  1  0
 13 14  2  0
 14 15  1  0
 15 16  1  0
 15 17  1  0
 15 18  1  0
 14 19  1  0
 19 20  1  0
 20 21  1  0
 21 22  1  0
 22 23  2  0
 22 24  1  0
 24 25  1  0
 25 26  2  0
 26 27  1  0
 27 28  2  0
 28 29  1  0
 29 30  1  0
 29 31  2  0
 31 32  1  0
  9 33  1  0
 33 34  1  0
 34 35  1  0
 35 36  2  0
 35  6  1  0
 20 12  2  0
 31 25  1  0
  1 37  1  0
  1 38  1  0
  1 39  1  0
  3 40  1  0
  3 41  1  0
  3 42  1  0
  4 43  1  0
  4 44  1  0
  5 45  1  0
  5 46  1  0
  7 47  1  0
  7 48  1  0
  8 49  1  0
  8 50  1  0
 13 51  1  0
 16 52  1  0
 16 53  1  0
 16 54  1  0
 17 55  1  0
 17 56  1  0
 17 57  1  0
 18 58  1  0
 18 59  1  0
 18 60  1  0
 21 61  1  0
 24 62  1  0
 26 63  1  0
 27 64  1  0
 28 65  1  0
 33 66  1  0
 33 67  1  0
 34 68  1  0
 34 69  1  0
M  END
$$$$
