@<TRIPOS>MOLECULE
*****
 48 52 0 0 0
SMALL
GASTEIGER

@<TRIPOS>ATOM
      1 C          -4.9633   -2.5248   -1.6891 C.3     1  UNL1       -0.0223
      2 C          -3.8775   -2.3839   -0.6556 C.ar    1  UNL1        0.0390
      3 C          -4.0046   -3.0457    0.5481 C.ar    1  UNL1       -0.0406
      4 C          -3.0089   -2.9186    1.4985 C.ar    1  UNL1       -0.0580
      5 C          -1.9108   -2.1228    1.2017 C.ar    1  UNL1       -0.0342
      6 C          -1.7915   -1.4640   -0.0047 C.ar    1  UNL1        0.0895
      7 C          -0.6166   -0.6220   -0.3076 C.ar    1  UNL1        0.0926
      8 N           0.6532   -1.0700   -0.3783 N.ar    1  UNL1       -0.3389
      9 C           1.4616   -0.0359   -0.6741 C.ar    1  UNL1        0.1254
     10 C           2.9145   -0.1509   -0.8303 C.3     1  UNL1        0.0673
     11 N           3.6525    0.0530    0.3943 N.pl3   1  UNL1       -0.3345
     12 C           5.0580   -0.0348    0.3686 C.ar    1  UNL1        0.0631
     13 C           5.7088   -0.3116   -0.8072 C.ar    1  UNL1       -0.0380
     14 C           7.0893   -0.4102   -0.8909 C.ar    1  UNL1       -0.0598
     15 C           7.8671   -0.2286    0.2317 C.ar    1  UNL1       -0.0589
     16 C           7.2309    0.0498    1.4201 C.ar    1  UNL1       -0.0246
     17 C           5.8523    0.1443    1.4843 C.ar    1  UNL1        0.1441
     18 F           5.2004    0.4207    2.6562 F       1  UNL1       -0.2036
     19 N           0.6914    1.0377   -0.7836 N.ar    1  UNL1       -0.2302
     20 C          -0.6033    0.7327   -0.5667 C.ar    1  UNL1        0.0998
     21 C          -1.7496    1.6314   -0.5954 C.ar    1  UNL1        0.0208
     22 C          -2.1277    2.3360   -1.7195 C.ar    1  UNL1       -0.0475
     23 C          -3.2142    3.1832   -1.7326 C.ar    1  UNL1       -0.0167
     24 C          -3.9185    3.2921   -0.5385 C.ar    1  UNL1        0.1557
     25 N          -4.9896    4.0065   -0.2216 N.ar    1  UNL1       -0.2149
     26 C          -5.2932    3.7723    1.0609 C.ar    1  UNL1        0.1390
     27 N          -4.4005    2.9074    1.5330 N.ar    1  UNL1       -0.1535
     28 N          -3.5670    2.6184    0.5573 N.ar    1  UNL1       -0.2198
     29 C          -2.4902    1.7834    0.5577 C.ar    1  UNL1        0.0407
     30 N          -2.7897   -1.6231   -0.8930 N.ar    1  UNL1       -0.2503
     31 H          -4.8983   -1.6636   -2.3861 H       1  UNL1        0.0292
     32 H          -4.7202   -3.4683   -2.2339 H       1  UNL1        0.0292
     33 H          -5.9494   -2.6182   -1.2317 H       1  UNL1        0.0292
     34 H          -4.8421   -3.6632    0.7962 H       1  UNL1        0.0635
     35 H          -3.0670   -3.4278    2.4721 H       1  UNL1        0.0619
     36 H          -1.1361   -2.0364    1.9677 H       1  UNL1        0.0639
     37 H           0.9099   -2.0889   -0.2162 H       1  UNL1        0.1672
     38 H           3.2855    0.6101   -1.5524 H       1  UNL1        0.0541
     39 H           3.1755   -1.1780   -1.1896 H       1  UNL1        0.0541
     40 H           3.1500    0.2615    1.2809 H       1  UNL1        0.1466
     41 H           5.1124   -0.4542   -1.6873 H       1  UNL1        0.0637
     42 H           7.6008   -0.6278   -1.8142 H       1  UNL1        0.0618
     43 H           8.9551   -0.3046    0.1735 H       1  UNL1        0.0618
     44 H           7.7996    0.1995    2.3241 H       1  UNL1        0.0647
     45 H          -1.5635    2.2370   -2.6433 H       1  UNL1        0.0626
     46 H          -3.5291    3.7451   -2.6001 H       1  UNL1        0.0655
     47 H          -6.1016    4.1960    1.6149 H       1  UNL1        0.1066
     48 H          -2.2451    1.2596    1.4696 H       1  UNL1        0.0837
@<TRIPOS>BOND
     1     1     2    1
     2     2     3   ar
     3     3     4   ar
     4     4     5   ar
     5     5     6   ar
     6     6     7    1
     7     7     8   ar
     8     8     9   ar
     9     9    10    1
    10    10    11    1
    11    11    12    1
    12    12    13   ar
    13    13    14   ar
    14    14    15   ar
    15    15    16   ar
    16    16    17   ar
    17    17    18    1
    18     9    19   ar
    19    19    20   ar
    20    20    21    1
    21    21    22   ar
    22    22    23   ar
    23    23    24   ar
    24    24    25   ar
    25    25    26   ar
    26    26    27   ar
    27    27    28   ar
    28    28    29   ar
    29     6    30   ar
    30    30     2   ar
    31    20     7   ar
    32    29    21   ar
    33    17    12   ar
    34    28    24   ar
    35     1    31    1
    36     1    32    1
    37     1    33    1
    38     3    34    1
    39     4    35    1
    40     5    36    1
    41     8    37    1
    42    10    38    1
    43    10    39    1
    44    11    40    1
    45    13    41    1
    46    14    42    1
    47    15    43    1
    48    16    44    1
    49    22    45    1
    50    23    46    1
    51    26    47    1
    52    29    48    1
