
     RDKit          3D

 56 60  0  0  0  0  0  0  0  0999 V2000
    2.2095    1.7624    0.2118 C   0  0  0  0  0  0  0  0  0  0  0  0
    2.4145    0.4643   -0.4949 C   0  0  1  0  0  0  0  0  0  0  0  0
    1.6226   -0.6360   -0.0196 N   0  0  0  0  0  0  0  0  0  0  0  0
    2.1092   -1.8746    0.4184 C   0  0  0  0  0  0  0  0  0  0  0  0
    3.3489   -2.0810    0.3972 O   0  0  0  0  0  0  0  0  0  0  0  0
    1.2530   -3.0145    0.9237 C   0  0  2  0  0  0  0  0  0  0  0  0
    1.0883   -4.0513   -0.1247 C   0  0  0  0  0  0  0  0  0  0  0  0
   -0.3936   -4.2645   -0.2245 C   0  0  1  0  0  0  0  0  0  0  0  0
   -1.0176   -4.9103    0.9605 C   0  0  0  0  0  0  0  0  0  0  0  0
   -1.0491   -3.4366    0.7942 C   0  0  1  0  0  0  0  0  0  0  0  0
   -0.0298   -2.5965    1.3227 N   0  0  0  0  0  0  0  0  0  0  0  0
   -0.2561   -1.4590    2.1611 C   0  0  0  0  0  0  0  0  0  0  0  0
    0.6876   -0.7598    2.6394 O   0  0  0  0  0  0  0  0  0  0  0  0
   -1.6327   -1.0453    2.5078 C   0  0  0  0  0  0  0  0  0  0  0  0
   -1.8440    0.3731    2.1928 N   0  0  0  0  0  0  0  0  0  0  0  0
   -1.5930    1.3728    3.0065 N   0  0  0  0  0  0  0  0  0  0  0  0
   -1.8805    2.5506    2.4165 C   0  0  0  0  0  0  0  0  0  0  0  0
   -1.7373    3.8894    2.9899 C   0  0  0  0  0  0  0  0  0  0  0  0
   -2.1156    5.0453    2.2579 N   0  0  0  0  0  0  0  0  0  0  0  0
   -1.2723    4.0593    4.1567 O   0  0  0  0  0  0  0  0  0  0  0  0
   -2.3361    2.2366    1.1613 C   0  0  0  0  0  0  0  0  0  0  0  0
   -2.7893    2.9599    0.0686 C   0  0  0  0  0  0  0  0  0  0  0  0
   -3.1897    2.3097   -1.0834 C   0  0  0  0  0  0  0  0  0  0  0  0
   -3.1457    0.9825   -1.1609 N   0  0  0  0  0  0  0  0  0  0  0  0
   -2.7213    0.2338   -0.1500 C   0  0  0  0  0  0  0  0  0  0  0  0
   -2.3106    0.8525    1.0255 C   0  0  0  0  0  0  0  0  0  0  0  0
    2.2950    0.7136   -1.9432 C   0  0  0  0  0  0  0  0  0  0  0  0
    3.4507    0.9818   -2.6558 C   0  0  0  0  0  0  0  0  0  0  0  0
    3.4329    1.2333   -4.0182 C   0  0  0  0  0  0  0  0  0  0  0  0
    2.2422    1.2246   -4.7224 C   0  0  0  0  0  0  0  0  0  0  0  0
    1.0879    0.9559   -4.0072 C   0  0  0  0  0  0  0  0  0  0  0  0
   -0.4124    0.9508   -4.9256 Cl  0  0  0  0  0  0  0  0  0  0  0  0
    1.1175    0.7069   -2.6517 C   0  0  0  0  0  0  0  0  0  0  0  0
   -0.0288    0.4515   -1.9971 F   0  0  0  0  0  0  0  0  0  0  0  0
    2.8307    2.5225   -0.3182 H   0  0  0  0  0  0  0  0  0  0  0  0
    2.5682    1.6818    1.2361 H   0  0  0  0  0  0  0  0  0  0  0  0
    1.1577    2.1009    0.1284 H   0  0  0  0  0  0  0  0  0  0  0  0
    3.4891    0.1618   -0.3056 H   0  0  0  0  0  0  0  0  0  0  0  0
    0.5803   -0.4937   -0.0130 H   0  0  0  0  0  0  0  0  0  0  0  0
    1.8350   -3.4061    1.8180 H   0  0  0  0  0  0  0  0  0  0  0  0
    1.6385   -5.0026    0.0710 H   0  0  0  0  0  0  0  0  0  0  0  0
    1.4631   -3.6079   -1.0866 H   0  0  0  0  0  0  0  0  0  0  0  0
   -0.8655   -4.3385   -1.2284 H   0  0  0  0  0  0  0  0  0  0  0  0
   -0.4035   -5.4150    1.7327 H   0  0  0  0  0  0  0  0  0  0  0  0
   -1.9704   -5.4396    0.7652 H   0  0  0  0  0  0  0  0  0  0  0  0
   -2.0619   -2.9908    0.6178 H   0  0  0  0  0  0  0  0  0  0  0  0
   -1.7616   -1.2006    3.6222 H   0  0  0  0  0  0  0  0  0  0  0  0
   -2.4267   -1.6599    2.0533 H   0  0  0  0  0  0  0  0  0  0  0  0
   -1.4905    5.5249    1.6021 H   0  0  0  0  0  0  0  0  0  0  0  0
   -3.0954    5.4386    2.3920 H   0  0  0  0  0  0  0  0  0  0  0  0
   -2.8163    4.0531    0.1512 H   0  0  0  0  0  0  0  0  0  0  0  0
   -3.5528    2.8901   -1.9491 H   0  0  0  0  0  0  0  0  0  0  0  0
   -2.6839   -0.8627   -0.2054 H   0  0  0  0  0  0  0  0  0  0  0  0
    4.4205    0.9969   -2.1309 H   0  0  0  0  0  0  0  0  0  0  0  0
    4.3289    1.4435   -4.5842 H   0  0  0  0  0  0  0  0  0  0  0  0
    2.2124    1.4222   -5.8018 H   0  0  0  0  0  0  0  0  0  0  0  0
  1  2  1  0
  2  3  1  0
  3  4  1  0
  4  5  2  0
  4  6  1  0
  6  7  1  0
  7  8  1  0
  8  9  1  0
  9 10  1  0
 10 11  1  0
 11 12  1  0
 12 13  2  0
 12 14  1  0
 14 15  1  0
 15 16  1  0
 16 17  2  0
 17 18  1  0
 18 19  1  0
 18 20  2  0
 17 21  1  0
 21 22  2  0
 22 23  1  0
 23 24  2  0
 24 25  1  0
 25 26  2  0
  2 27  1  0
 27 28  2  0
 28 29  1  0
 29 30  2  0
 30 31  1  0
 31 32  1  0
 31 33  2  0
 33 34  1  0
 11  6  1  0
 26 15  1  0
 33 27  1  0
 10  8  1  0
 26 21  1  0
  1 35  1  0
  1 36  1  0
  1 37  1  0
  2 38  1  6
  3 39  1  0
  6 40  1  1
  7 41  1  0
  7 42  1  0
  8 43  1  6
  9 44  1  0
  9 45  1  0
 10 46  1  6
 14 47  1  0
 14 48  1  0
 19 49  1  0
 19 50  1  0
 22 51  1  0
 23 52  1  0
 25 53  1  0
 28 54  1  0
 29 55  1  0
 30 56  1  0
M  END
$$$$
