@<TRIPOS>MOLECULE
*****
 56 60 0 0 0
SMALL
GASTEIGER

@<TRIPOS>ATOM
      1 C           2.2095    1.7624    0.2118 C.3     1  UNL1       -0.0424
      2 C           2.4145    0.4643   -0.4949 C.3     1  UNL1        0.0483
      3 N           1.6226   -0.6360   -0.0196 N.am    1  UNL1       -0.3071
      4 C           2.1092   -1.8746    0.4184 C.2     1  UNL1        0.2340
      5 O           3.3489   -2.0810    0.3972 O.2     1  UNL1       -0.2738
      6 C           1.2530   -3.0145    0.9237 C.3     1  UNL1        0.1028
      7 C           1.0883   -4.0513   -0.1247 C.3     1  UNL1       -0.0212
      8 C          -0.3936   -4.2645   -0.2245 C.3     1  UNL1       -0.0185
      9 C          -1.0176   -4.9103    0.9605 C.3     1  UNL1       -0.0294
     10 C          -1.0491   -3.4366    0.7942 C.3     1  UNL1        0.0301
     11 N          -0.0298   -2.5965    1.3227 N.am    1  UNL1       -0.2851
     12 C          -0.2561   -1.4590    2.1611 C.2     1  UNL1        0.2379
     13 O           0.6876   -0.7598    2.6394 O.2     1  UNL1       -0.2735
     14 C          -1.6327   -1.0453    2.5078 C.3     1  UNL1        0.1185
     15 N          -1.8440    0.3731    2.1928 N.ar    1  UNL1       -0.2527
     16 N          -1.5930    1.3728    3.0065 N.ar    1  UNL1       -0.1649
     17 C          -1.8805    2.5506    2.4165 C.ar    1  UNL1        0.1546
     18 C          -1.7373    3.8894    2.9899 C.2     1  UNL1        0.2622
     19 N          -2.1156    5.0453    2.2579 N.am    1  UNL1       -0.3240
     20 O          -1.2723    4.0593    4.1567 O.2     1  UNL1       -0.2687
     21 C          -2.3361    2.2366    1.1613 C.ar    1  UNL1        0.0351
     22 C          -2.7893    2.9599    0.0686 C.ar    1  UNL1       -0.0322
     23 C          -3.1897    2.3097   -1.0834 C.ar    1  UNL1        0.0283
     24 N          -3.1457    0.9825   -1.1609 N.ar    1  UNL1       -0.2611
     25 C          -2.7213    0.2338   -0.1500 C.ar    1  UNL1        0.0532
     26 C          -2.3106    0.8525    1.0255 C.ar    1  UNL1        0.0882
     27 C           2.2950    0.7136   -1.9432 C.ar    1  UNL1        0.0091
     28 C           3.4507    0.9818   -2.6558 C.ar    1  UNL1       -0.0540
     29 C           3.4329    1.2333   -4.0182 C.ar    1  UNL1       -0.0599
     30 C           2.2422    1.2246   -4.7224 C.ar    1  UNL1       -0.0406
     31 C           1.0879    0.9559   -4.0072 C.ar    1  UNL1        0.0764
     32 CL         -0.4124    0.9508   -4.9256 Cl      1  UNL1       -0.0806
     33 C           1.1175    0.7069   -2.6517 C.ar    1  UNL1        0.1465
     34 F          -0.0288    0.4515   -1.9971 F       1  UNL1       -0.2036
     35 H           2.8307    2.5225   -0.3182 H       1  UNL1        0.0251
     36 H           2.5682    1.6818    1.2361 H       1  UNL1        0.0251
     37 H           1.1577    2.1009    0.1284 H       1  UNL1        0.0251
     38 H           3.4891    0.1618   -0.3056 H       1  UNL1        0.0546
     39 H           0.5803   -0.4937   -0.0130 H       1  UNL1        0.1493
     40 H           1.8350   -3.4061    1.8180 H       1  UNL1        0.0597
     41 H           1.6385   -5.0026    0.0710 H       1  UNL1        0.0291
     42 H           1.4631   -3.6079   -1.0866 H       1  UNL1        0.0291
     43 H          -0.8655   -4.3385   -1.2284 H       1  UNL1        0.0320
     44 H          -0.4035   -5.4150    1.7327 H       1  UNL1        0.0286
     45 H          -1.9704   -5.4396    0.7652 H       1  UNL1        0.0286
     46 H          -2.0619   -2.9908    0.6178 H       1  UNL1        0.0503
     47 H          -1.7616   -1.2006    3.6222 H       1  UNL1        0.0605
     48 H          -2.4267   -1.6599    2.0533 H       1  UNL1        0.0605
     49 H          -1.4905    5.5249    1.6021 H       1  UNL1        0.1453
     50 H          -3.0954    5.4386    2.3920 H       1  UNL1        0.1453
     51 H          -2.8163    4.0531    0.1512 H       1  UNL1        0.0640
     52 H          -3.5528    2.8901   -1.9491 H       1  UNL1        0.0830
     53 H          -2.6839   -0.8627   -0.2054 H       1  UNL1        0.0851
     54 H           4.4205    0.9969   -2.1309 H       1  UNL1        0.0622
     55 H           4.3289    1.4435   -4.5842 H       1  UNL1        0.0618
     56 H           2.2124    1.4222   -5.8018 H       1  UNL1        0.0633
@<TRIPOS>BOND
     1     1     2    1
     2     2     3    1
     3     3     4   am
     4     4     5    2
     5     4     6    1
     6     6     7    1
     7     7     8    1
     8     8     9    1
     9     9    10    1
    10    10    11    1
    11    11    12   am
    12    12    13    2
    13    12    14    1
    14    14    15    1
    15    15    16   ar
    16    16    17   ar
    17    17    18    1
    18    18    19   am
    19    18    20    2
    20    17    21   ar
    21    21    22   ar
    22    22    23   ar
    23    23    24   ar
    24    24    25   ar
    25    25    26   ar
    26     2    27    1
    27    27    28   ar
    28    28    29   ar
    29    29    30   ar
    30    30    31   ar
    31    31    32    1
    32    31    33   ar
    33    33    34    1
    34    11     6    1
    35    26    15   ar
    36    33    27   ar
    37    10     8    1
    38    26    21   ar
    39     1    35    1
    40     1    36    1
    41     1    37    1
    42     2    38    1
    43     3    39    1
    44     6    40    1
    45     7    41    1
    46     7    42    1
    47     8    43    1
    48     9    44    1
    49     9    45    1
    50    10    46    1
    51    14    47    1
    52    14    48    1
    53    19    49    1
    54    19    50    1
    55    22    51    1
    56    23    52    1
    57    25    53    1
    58    28    54    1
    59    29    55    1
    60    30    56    1
