
     RDKit          3D

 27 29  0  0  0  0  0  0  0  0999 V2000
   -1.3980    3.1224   -0.6928 O   0  0  0  0  0  0  0  0  0  0  0  0
   -1.7198    1.7987   -0.4615 C   0  0  0  0  0  0  0  0  0  0  0  0
   -3.0694    1.4602   -0.4570 C   0  0  0  0  0  0  0  0  0  0  0  0
   -3.4601    0.1513   -0.2311 C   0  0  0  0  0  0  0  0  0  0  0  0
   -2.4736   -0.7841   -0.0155 C   0  0  0  0  0  0  0  0  0  0  0  0
   -1.1237   -0.4989   -0.0103 C   0  0  0  0  0  0  0  0  0  0  0  0
   -0.7706    0.8154   -0.2386 C   0  0  0  0  0  0  0  0  0  0  0  0
    0.5621    1.1672   -0.2463 C   0  0  0  0  0  0  0  0  0  0  0  0
    0.8835    2.3655   -0.4547 O   0  0  0  0  0  0  0  0  0  0  0  0
    1.4924    0.1757   -0.0227 C   0  0  0  0  0  0  0  0  0  0  0  0
    2.8156    0.5650   -0.0377 C   0  0  0  0  0  0  0  0  0  0  0  0
    3.2824    1.8375   -0.2533 O   0  0  0  0  0  0  0  0  0  0  0  0
    3.7472   -0.4348    0.1873 C   0  0  0  0  0  0  0  0  0  0  0  0
    3.4028   -1.7535    0.4167 C   0  0  0  0  0  0  0  0  0  0  0  0
    2.0469   -2.0842    0.4197 C   0  0  0  0  0  0  0  0  0  0  0  0
    1.0843   -1.1231    0.2002 C   0  0  0  0  0  0  0  0  0  0  0  0
   -0.2085   -1.4162    0.1989 O   0  0  0  0  0  0  0  0  0  0  0  0
   -2.9106   -2.1198    0.2128 N   0  0  0  0  0  4  0  0  0  0  0  0
   -4.1287   -2.2786    0.8488 O   0  0  0  0  0  1  0  0  0  0  0  0
   -2.4306   -3.2452   -0.0368 O   0  0  0  0  0  0  0  0  0  0  0  0
   -0.9869    3.7072    0.0245 H   0  0  0  0  0  0  0  0  0  0  0  0
   -3.8765    2.1864   -0.6247 H   0  0  0  0  0  0  0  0  0  0  0  0
   -4.5213   -0.0947   -0.2313 H   0  0  0  0  0  0  0  0  0  0  0  0
    3.1365    2.3834   -1.0918 H   0  0  0  0  0  0  0  0  0  0  0  0
    4.8121   -0.2571    0.1999 H   0  0  0  0  0  0  0  0  0  0  0  0
    4.1123   -2.5343    0.5918 H   0  0  0  0  0  0  0  0  0  0  0  0
    1.7000   -3.1113    0.5948 H   0  0  0  0  0  0  0  0  0  0  0  0
  1  2  1  0
  2  3  2  0
  3  4  1  0
  4  5  2  0
  5  6  1  0
  6  7  2  0
  7  8  1  0
  8  9  2  0
  8 10  1  0
 10 11  2  0
 11 12  1  0
 11 13  1  0
 13 14  2  0
 14 15  1  0
 15 16  2  0
 16 17  1  0
  5 18  1  0
 18 19  1  0
 18 20  2  0
  7  2  1  0
 16 10  1  0
 17  6  1  0
  1 21  1  0
  3 22  1  0
  4 23  1  0
 12 24  1  0
 13 25  1  0
 14 26  1  0
 15 27  1  0
M  CHG  2  18   1  19  -1
M  END
$$$$
