@<TRIPOS>MOLECULE
*****
 58 58 0 0 0
SMALL
GASTEIGER

@<TRIPOS>ATOM
      1 C           2.4580    1.5818   -0.5315 C.3     0  UNK0        0.1390
      2 O           2.8380    1.0798   -1.7759 O.3     0  UNK0       -0.3821
      3 C           1.4092    0.6789    0.0478 C.3     0  UNK0        0.0585
      4 C           0.2026    0.5545   -0.7619 C.2     0  UNK0        0.2166
      5 O          -0.0060    1.1283   -1.8679 O.2     0  UNK0       -0.2757
      6 N          -0.7899   -0.2943   -0.2173 N.am    1  ILE1       -0.3037
      7 CA         -2.0683   -0.5256   -0.9181 C.3     1  ILE1        0.1021
      8 C          -3.1730    0.0633   -0.1582 C.2     1  ILE1        0.2368
      9 O          -4.2939   -0.1295   -0.7442 O.2     1  ILE1       -0.2735
     10 N          -3.1946    0.7886    1.0813 N.am    2  PRO2       -0.2865
     11 CD         -2.2926    1.2680    2.0977 C.3     2  PRO2        0.0157
     12 CG         -2.8547    0.5714    3.3452 C.3     2  PRO2       -0.0349
     13 CB         -4.3232    0.9950    3.1797 C.3     2  PRO2       -0.0225
     14 CA         -4.3971    1.3019    1.7075 C.3     2  PRO2        0.1228
     15 C          -4.5024    2.7781    1.4512 C.2     2  PRO2        0.3255
     16 O          -5.6002    3.4121    2.0096 O.3     2  PRO2       -0.4793
     17 OXT        -3.7024    3.5159    0.7814 O.2     2  PRO2       -0.2489
     18 CB         -2.2575   -1.9694   -1.1950 C.3     1  ILE1       -0.0171
     19 CG2        -3.5551   -2.2020   -1.9203 C.3     1  ILE1       -0.0603
     20 CG1        -1.1291   -2.5233   -2.0619 C.3     1  ILE1       -0.0512
     21 CD1        -1.3506   -4.0029   -2.3269 C.3     1  ILE1       -0.0650
     22 C           3.6846    1.5232    0.3398 C.2     0  UNK0        0.2421
     23 O           3.7137    1.9063    1.5373 O.2     0  UNK0       -0.2730
     24 N           4.9391    1.0099   -0.1561 N.am    0  UNK0       -0.3132
     25 C           6.1292    0.9448    0.6650 C.3     0  UNK0        0.0114
     26 C           7.3006    0.3678   -0.0918 C.3     0  UNK0       -0.0402
     27 C           7.0416   -1.0237   -0.5806 C.3     0  UNK0       -0.0639
     28 H           2.1714    2.6247   -0.6085 H       0  UNK0        0.0695
     29 H           2.3035    0.2762   -2.0138 H       0  UNK0        0.2104
     30 H           1.8383   -0.3229    0.2394 H       0  UNK0        0.0389
     31 H           1.1367    1.0754    1.0516 H       0  UNK0        0.0389
     32 H          -0.8295   -0.8558    0.6514 H       1  ILE1        0.1495
     33 HA         -1.9642    0.0230   -1.8719 H       1  ILE1        0.0597
     34 HD1        -2.4061    2.3490    2.3147 H       2  PRO2        0.0465
     35 HD2        -1.2389    1.0842    1.9418 H       2  PRO2        0.0465
     36 HG1        -2.7799   -0.5143    3.2915 H       2  PRO2        0.0281
     37 HG2        -2.4101    1.0012    4.2590 H       2  PRO2        0.0281
     38 HB1        -4.4010    1.9725    3.7366 H       2  PRO2        0.0289
     39 HB2        -5.0293    0.2473    3.5397 H       2  PRO2        0.0289
     40 HA         -5.2750    0.8158    1.2278 H       2  PRO2        0.0616
     41 H          -5.9772    4.3042    1.6666 H       2  PRO2        0.2951
     42 HB         -2.2940   -2.5978   -0.2823 H       1  ILE1        0.0321
     43 HG21       -4.4282   -2.3723   -1.2450 H       1  ILE1        0.0233
     44 HG22       -3.4729   -3.1396   -2.5531 H       1  ILE1        0.0233
     45 HG23       -3.8409   -1.3881   -2.6146 H       1  ILE1        0.0233
     46 HG11       -0.1532   -2.3379   -1.5447 H       1  ILE1        0.0266
     47 HG12       -1.1043   -2.0227   -3.0546 H       1  ILE1        0.0266
     48 HD11       -2.0286   -4.3700   -1.5260 H       1  ILE1        0.0230
     49 HD12       -0.3674   -4.5037   -2.2116 H       1  ILE1        0.0230
     50 HD13       -1.8572   -4.1914   -3.2857 H       1  ILE1        0.0230
     51 H           5.0073    0.6725   -1.1324 H       0  UNK0        0.1488
     52 H           6.4157    1.9619    1.0017 H       0  UNK0        0.0462
     53 H           5.9257    0.2548    1.5178 H       0  UNK0        0.0462
     54 H           8.1277    0.2839    0.6722 H       0  UNK0        0.0278
     55 H           7.6742    1.0068   -0.8968 H       0  UNK0        0.0278
     56 H           7.3998   -1.7909    0.1314 H       0  UNK0        0.0230
     57 H           7.6802   -1.1661   -1.4969 H       0  UNK0        0.0230
     58 H           5.9515   -1.1787   -0.8238 H       0  UNK0        0.0230
@<TRIPOS>BOND
     1     1     2    1
     2     1     3    1
     3     3     4    1
     4     4     5    2
     5     4     6   am
     6     6     7    1
     7     7     8    1
     8     8     9    2
     9     8    10   am
    10    10    11    1
    11    11    12    1
    12    12    13    1
    13    13    14    1
    14    14    15    1
    15    15    16    1
    16    15    17    2
    17     7    18    1
    18    18    19    1
    19    18    20    1
    20    20    21    1
    21     1    22    1
    22    22    23    2
    23    22    24   am
    24    24    25    1
    25    25    26    1
    26    26    27    1
    27    14    10    1
    28     1    28    1
    29     2    29    1
    30     3    30    1
    31     3    31    1
    32     6    32    1
    33     7    33    1
    34    11    34    1
    35    11    35    1
    36    12    36    1
    37    12    37    1
    38    13    38    1
    39    13    39    1
    40    14    40    1
    41    16    41    1
    42    18    42    1
    43    19    43    1
    44    19    44    1
    45    19    45    1
    46    20    46    1
    47    20    47    1
    48    21    48    1
    49    21    49    1
    50    21    50    1
    51    24    51    1
    52    25    52    1
    53    25    53    1
    54    26    54    1
    55    26    55    1
    56    27    56    1
    57    27    57    1
    58    27    58    1
