
     RDKit          3D

 58 58  0  0  0  0  0  0  0  0999 V2000
    2.4580    1.5818   -0.5315 C   0  0  1  0  0  0  0  0  0  0  0  0
    2.8380    1.0798   -1.7759 O   0  0  0  0  0  0  0  0  0  0  0  0
    1.4092    0.6789    0.0478 C   0  0  0  0  0  0  0  0  0  0  0  0
    0.2026    0.5545   -0.7619 C   0  0  0  0  0  0  0  0  0  0  0  0
   -0.0060    1.1283   -1.8679 O   0  0  0  0  0  0  0  0  0  0  0  0
   -0.7899   -0.2943   -0.2173 N   0  0  0  0  0  0  0  0  0  0  0  0
   -2.0683   -0.5256   -0.9181 C   0  0  2  0  0  0  0  0  0  0  0  0
   -3.1730    0.0633   -0.1582 C   0  0  0  0  0  0  0  0  0  0  0  0
   -4.2939   -0.1295   -0.7442 O   0  0  0  0  0  0  0  0  0  0  0  0
   -3.1946    0.7886    1.0813 N   0  0  0  0  0  0  0  0  0  0  0  0
   -2.2926    1.2680    2.0977 C   0  0  0  0  0  0  0  0  0  0  0  0
   -2.8547    0.5714    3.3452 C   0  0  0  0  0  0  0  0  0  0  0  0
   -4.3232    0.9950    3.1797 C   0  0  0  0  0  0  0  0  0  0  0  0
   -4.3971    1.3019    1.7075 C   0  0  1  0  0  0  0  0  0  0  0  0
   -4.5024    2.7781    1.4512 C   0  0  0  0  0  0  0  0  0  0  0  0
   -5.6002    3.4121    2.0096 O   0  0  0  0  0  0  0  0  0  0  0  0
   -3.7024    3.5159    0.7814 O   0  0  0  0  0  0  0  0  0  0  0  0
   -2.2575   -1.9694   -1.1950 C   0  0  1  0  0  0  0  0  0  0  0  0
   -3.5551   -2.2020   -1.9203 C   0  0  0  0  0  0  0  0  0  0  0  0
   -1.1291   -2.5233   -2.0619 C   0  0  0  0  0  0  0  0  0  0  0  0
   -1.3506   -4.0029   -2.3269 C   0  0  0  0  0  0  0  0  0  0  0  0
    3.6846    1.5232    0.3398 C   0  0  0  0  0  0  0  0  0  0  0  0
    3.7137    1.9063    1.5373 O   0  0  0  0  0  0  0  0  0  0  0  0
    4.9391    1.0099   -0.1561 N   0  0  0  0  0  0  0  0  0  0  0  0
    6.1292    0.9448    0.6650 C   0  0  0  0  0  0  0  0  0  0  0  0
    7.3006    0.3678   -0.0918 C   0  0  0  0  0  0  0  0  0  0  0  0
    7.0416   -1.0237   -0.5806 C   0  0  0  0  0  0  0  0  0  0  0  0
    2.1714    2.6247   -0.6085 H   0  0  0  0  0  0  0  0  0  0  0  0
    2.3035    0.2762   -2.0138 H   0  0  0  0  0  0  0  0  0  0  0  0
    1.8383   -0.3229    0.2394 H   0  0  0  0  0  0  0  0  0  0  0  0
    1.1367    1.0754    1.0516 H   0  0  0  0  0  0  0  0  0  0  0  0
   -0.8295   -0.8558    0.6514 H   0  0  0  0  0  0  0  0  0  0  0  0
   -1.9642    0.0230   -1.8719 H   0  0  0  0  0  0  0  0  0  0  0  0
   -2.4061    2.3490    2.3147 H   0  0  0  0  0  0  0  0  0  0  0  0
   -1.2389    1.0842    1.9418 H   0  0  0  0  0  0  0  0  0  0  0  0
   -2.7799   -0.5143    3.2915 H   0  0  0  0  0  0  0  0  0  0  0  0
   -2.4101    1.0012    4.2590 H   0  0  0  0  0  0  0  0  0  0  0  0
   -4.4010    1.9725    3.7366 H   0  0  0  0  0  0  0  0  0  0  0  0
   -5.0293    0.2473    3.5397 H   0  0  0  0  0  0  0  0  0  0  0  0
   -5.2750    0.8158    1.2278 H   0  0  0  0  0  0  0  0  0  0  0  0
   -5.9772    4.3042    1.6666 H   0  0  0  0  0  0  0  0  0  0  0  0
   -2.2940   -2.5978   -0.2823 H   0  0  0  0  0  0  0  0  0  0  0  0
   -4.4282   -2.3723   -1.2450 H   0  0  0  0  0  0  0  0  0  0  0  0
   -3.4729   -3.1396   -2.5531 H   0  0  0  0  0  0  0  0  0  0  0  0
   -3.8409   -1.3881   -2.6146 H   0  0  0  0  0  0  0  0  0  0  0  0
   -0.1532   -2.3379   -1.5447 H   0  0  0  0  0  0  0  0  0  0  0  0
   -1.1043   -2.0227   -3.0546 H   0  0  0  0  0  0  0  0  0  0  0  0
   -2.0286   -4.3700   -1.5260 H   0  0  0  0  0  0  0  0  0  0  0  0
   -0.3674   -4.5037   -2.2116 H   0  0  0  0  0  0  0  0  0  0  0  0
   -1.8572   -4.1914   -3.2857 H   0  0  0  0  0  0  0  0  0  0  0  0
    5.0073    0.6725   -1.1324 H   0  0  0  0  0  0  0  0  0  0  0  0
    6.4157    1.9619    1.0017 H   0  0  0  0  0  0  0  0  0  0  0  0
    5.9257    0.2548    1.5178 H   0  0  0  0  0  0  0  0  0  0  0  0
    8.1277    0.2839    0.6722 H   0  0  0  0  0  0  0  0  0  0  0  0
    7.6742    1.0068   -0.8968 H   0  0  0  0  0  0  0  0  0  0  0  0
    7.3998   -1.7909    0.1314 H   0  0  0  0  0  0  0  0  0  0  0  0
    7.6802   -1.1661   -1.4969 H   0  0  0  0  0  0  0  0  0  0  0  0
    5.9515   -1.1787   -0.8238 H   0  0  0  0  0  0  0  0  0  0  0  0
  1  2  1  0
  1  3  1  0
  3  4  1  0
  4  5  2  0
  4  6  1  0
  6  7  1  0
  7  8  1  0
  8  9  2  0
  8 10  1  0
 10 11  1  0
 11 12  1  0
 12 13  1  0
 13 14  1  0
 14 15  1  0
 15 16  1  0
 15 17  2  0
  7 18  1  0
 18 19  1  0
 18 20  1  0
 20 21  1  0
  1 22  1  0
 22 23  2  0
 22 24  1  0
 24 25  1  0
 25 26  1  0
 26 27  1  0
 14 10  1  0
  1 28  1  6
  2 29  1  0
  3 30  1  0
  3 31  1  0
  6 32  1  0
  7 33  1  6
 11 34  1  0
 11 35  1  0
 12 36  1  0
 12 37  1  0
 13 38  1  0
 13 39  1  0
 14 40  1  6
 16 41  1  0
 18 42  1  1
 19 43  1  0
 19 44  1  0
 19 45  1  0
 20 46  1  0
 20 47  1  0
 21 48  1  0
 21 49  1  0
 21 50  1  0
 24 51  1  0
 25 52  1  0
 25 53  1  0
 26 54  1  0
 26 55  1  0
 27 56  1  0
 27 57  1  0
 27 58  1  0
M  END
$$$$
