
     RDKit          3D

 24 24  0  0  0  0  0  0  0  0999 V2000
   -1.8054   -0.0360    0.3033 C   0  0  1  0  0  0  0  0  0  0  0  0
   -1.3603   -1.4155    0.2336 N   0  0  0  0  0  0  0  0  0  0  0  0
   -0.9985    0.7317   -0.7352 C   0  0  0  0  0  0  0  0  0  0  0  0
    0.4450    0.5860   -0.3610 C   0  0  0  0  0  0  0  0  0  0  0  0
    1.0552    1.5119    0.4939 C   0  0  0  0  0  0  0  0  0  0  0  0
    2.3915    1.3650    0.8318 C   0  0  0  0  0  0  0  0  0  0  0  0
    3.3847    2.7027    2.1038 I   0  0  0  0  0  0  0  0  0  0  0  0
    3.0212    0.2737    0.2700 C   0  0  0  0  0  0  0  0  0  0  0  0
    4.3760    0.0850    0.5845 O   0  0  0  0  0  0  0  0  0  0  0  0
    2.4622   -0.6626   -0.5753 C   0  0  0  0  0  0  0  0  0  0  0  0
    3.6010   -2.2677   -1.3315 I   0  0  0  0  0  0  0  0  0  0  0  0
    1.1294   -0.4881   -0.8926 C   0  0  0  0  0  0  0  0  0  0  0  0
   -3.2467    0.0178   -0.0343 C   0  0  0  0  0  0  0  0  0  0  0  0
   -3.9520   -1.1586   -0.3530 O   0  0  0  0  0  0  0  0  0  0  0  0
   -3.9754    1.0348   -0.0786 O   0  0  0  0  0  0  0  0  0  0  0  0
   -1.6196    0.4148    1.2839 H   0  0  0  0  0  0  0  0  0  0  0  0
   -2.0013   -1.9283   -0.4175 H   0  0  0  0  0  0  0  0  0  0  0  0
   -1.3470   -1.8828    1.1650 H   0  0  0  0  0  0  0  0  0  0  0  0
   -1.3102    1.7874   -0.8275 H   0  0  0  0  0  0  0  0  0  0  0  0
   -1.1810    0.2298   -1.7068 H   0  0  0  0  0  0  0  0  0  0  0  0
    0.4889    2.3528    0.9000 H   0  0  0  0  0  0  0  0  0  0  0  0
    4.7149   -0.8111    0.8655 H   0  0  0  0  0  0  0  0  0  0  0  0
    0.6672   -1.2036   -1.5502 H   0  0  0  0  0  0  0  0  0  0  0  0
   -4.9400   -1.2392   -0.1716 H   0  0  0  0  0  0  0  0  0  0  0  0
  1  2  1  0
  1  3  1  0
  3  4  1  0
  4  5  2  0
  5  6  1  0
  6  7  1  0
  6  8  2  0
  8  9  1  0
  8 10  1  0
 10 11  1  0
 10 12  2  0
  1 13  1  0
 13 14  1  0
 13 15  2  0
 12  4  1  0
  1 16  1  1
  2 17  1  0
  2 18  1  0
  3 19  1  0
  3 20  1  0
  5 21  1  0
  9 22  1  0
 12 23  1  0
 14 24  1  0
M  END
$$$$
