
     RDKit          3D

 42 44  0  0  0  0  0  0  0  0999 V2000
    4.9438    3.0618   -1.7958 C   0  0  0  0  0  0  0  0  0  0  0  0
    4.2282    2.8347   -0.6371 O   0  0  0  0  0  0  0  0  0  0  0  0
    3.9328    1.6367   -0.0251 C   0  0  0  0  0  0  0  0  0  0  0  0
    3.1815    1.6460    1.1566 C   0  0  0  0  0  0  0  0  0  0  0  0
    2.9394    0.4031    1.6861 C   0  0  0  0  0  0  0  0  0  0  0  0
    3.3425   -0.8022    1.1955 C   0  0  0  0  0  0  0  0  0  0  0  0
    4.0813   -0.7530    0.0271 C   0  0  0  0  0  0  0  0  0  0  0  0
    4.3824    0.4299   -0.5886 C   0  0  0  0  0  0  0  0  0  0  0  0
    3.0062   -1.9981    1.8527 N   0  0  0  0  0  0  0  0  0  0  0  0
    1.6639   -2.2824    1.7864 C   0  0  0  0  0  0  0  0  0  0  0  0
    0.8385   -3.2761    2.2370 N   0  0  0  0  0  0  0  0  0  0  0  0
   -0.4348   -3.1412    1.9469 C   0  0  0  0  0  0  0  0  0  0  0  0
   -1.1923   -4.2198    2.4519 N   0  0  0  0  0  0  0  0  0  0  0  0
   -1.0140   -2.1316    1.2558 C   0  0  0  0  0  0  0  0  0  0  0  0
    0.5064   -1.1662    0.9361 S   0  0  0  0  0  0  0  0  0  0  0  0
   -2.2989   -1.8619    0.8617 C   0  0  0  0  0  0  0  0  0  0  0  0
   -3.1125   -2.7749    1.1611 O   0  0  0  0  0  0  0  0  0  0  0  0
   -2.6812   -0.6447    0.1672 C   0  0  0  0  0  0  0  0  0  0  0  0
   -2.0389    0.5835    0.1902 C   0  0  0  0  0  0  0  0  0  0  0  0
   -2.5565    1.6029   -0.5687 C   0  0  0  0  0  0  0  0  0  0  0  0
   -3.6687    1.5209   -1.3617 C   0  0  0  0  0  0  0  0  0  0  0  0
   -4.0258    2.6652   -2.0486 O   0  0  0  0  0  0  0  0  0  0  0  0
   -5.1500    2.6540   -2.8824 C   0  0  0  0  0  0  0  0  0  0  0  0
   -4.3113    0.2793   -1.3780 C   0  0  0  0  0  0  0  0  0  0  0  0
   -3.8199   -0.7702   -0.6276 C   0  0  0  0  0  0  0  0  0  0  0  0
    4.3416    3.2808   -2.6900 H   0  0  0  0  0  0  0  0  0  0  0  0
    5.5548    3.9981   -1.6214 H   0  0  0  0  0  0  0  0  0  0  0  0
    5.7035    2.2883   -2.0133 H   0  0  0  0  0  0  0  0  0  0  0  0
    2.8387    2.5766    1.5864 H   0  0  0  0  0  0  0  0  0  0  0  0
    2.3495    0.4380    2.6143 H   0  0  0  0  0  0  0  0  0  0  0  0
    4.4246   -1.6929   -0.4014 H   0  0  0  0  0  0  0  0  0  0  0  0
    4.9539    0.4094   -1.4853 H   0  0  0  0  0  0  0  0  0  0  0  0
    1.4351   -3.9578    2.7399 H   0  0  0  0  0  0  0  0  0  0  0  0
   -1.5031   -4.0054    3.4452 H   0  0  0  0  0  0  0  0  0  0  0  0
   -1.7247   -5.0417    2.7302 H   0  0  0  0  0  0  0  0  0  0  0  0
   -1.1790    0.6710    0.8045 H   0  0  0  0  0  0  0  0  0  0  0  0
   -1.9933    2.5251   -0.4950 H   0  0  0  0  0  0  0  0  0  0  0  0
   -4.9736    1.9146   -3.7164 H   0  0  0  0  0  0  0  0  0  0  0  0
   -6.0732    2.4595   -2.3326 H   0  0  0  0  0  0  0  0  0  0  0  0
   -5.2969    3.6249   -3.4171 H   0  0  0  0  0  0  0  0  0  0  0  0
   -5.1906    0.2407   -2.0168 H   0  0  0  0  0  0  0  0  0  0  0  0
   -4.4093   -1.6768   -0.7298 H   0  0  0  0  0  0  0  0  0  0  0  0
  1  2  1  0
  2  3  1  0
  3  4  2  0
  4  5  1  0
  5  6  2  0
  6  7  1  0
  7  8  2  0
  6  9  1  0
  9 10  2  0
 10 11  1  0
 11 12  1  0
 12 13  1  0
 12 14  2  0
 14 15  1  0
 14 16  1  0
 16 17  2  0
 16 18  1  0
 18 19  2  0
 19 20  1  0
 20 21  2  0
 21 22  1  0
 22 23  1  0
 21 24  1  0
 24 25  2  0
  8  3  1  0
 15 10  1  0
 25 18  1  0
  1 26  1  0
  1 27  1  0
  1 28  1  0
  4 29  1  0
  5 30  1  0
  7 31  1  0
  8 32  1  0
 11 33  1  0
 13 34  1  0
 13 35  1  0
 19 36  1  0
 20 37  1  0
 23 38  1  0
 23 39  1  0
 23 40  1  0
 24 41  1  0
 25 42  1  0
M  END
$$$$
