@<TRIPOS>MOLECULE
*****
 49 51 0 0 0
SMALL
GASTEIGER

@<TRIPOS>ATOM
      1 C           7.6480   -0.8982    3.0971 C.2     1  UNL1       -0.0938
      2 C           6.3407   -0.8850    3.0917 C.2     1  UNL1       -0.0066
      3 C           5.5520   -0.7024    1.8711 C.2     1  UNL1        0.2405
      4 O           6.1720   -0.5499    0.7637 O.2     1  UNL1       -0.2705
      5 N           4.1537   -0.6861    1.8547 N.am    1  UNL1       -0.2820
      6 C           3.4148   -0.5063    0.6476 C.ar    1  UNL1        0.0338
      7 C           3.0567    0.7495    0.2034 C.ar    1  UNL1       -0.0386
      8 C           2.3393    0.9118   -0.9659 C.ar    1  UNL1       -0.0336
      9 C           1.9465   -0.1570   -1.7434 C.ar    1  UNL1        0.1056
     10 S           1.0344    0.0451   -3.2273 S.O2    1  UNL1        0.0609
     11 O           1.3277    1.4408   -3.7541 O.2     1  UNL1       -0.1528
     12 O           1.3836   -0.9545   -4.2614 O.2     1  UNL1       -0.1528
     13 N          -0.6321    0.0085   -2.8017 N.3     1  UNL1       -0.1736
     14 C          -1.0245   -1.2378   -2.2080 C.3     1  UNL1        0.0363
     15 C          -2.4708   -1.2625   -1.7809 C.3     1  UNL1        0.0280
     16 N          -2.9048   -0.0249   -1.2060 N.pl3   1  UNL1       -0.3126
     17 C          -3.6635    0.0863   -0.0125 C.ar    1  UNL1        0.1216
     18 C          -4.0781   -1.0045    0.7166 C.ar    1  UNL1       -0.0217
     19 C          -4.8179   -0.8607    1.8805 C.ar    1  UNL1       -0.0568
     20 C          -5.1485    0.3995    2.3222 C.ar    1  UNL1       -0.0405
     21 C          -4.7258    1.4814    1.5806 C.ar    1  UNL1        0.0403
     22 C          -5.0425    2.8824    1.9917 C.3     1  UNL1       -0.0223
     23 N          -4.0226    1.3006    0.4771 N.ar    1  UNL1       -0.2372
     24 C          -2.5328    1.1947   -1.9089 C.3     1  UNL1        0.0280
     25 C          -1.0352    1.1704   -2.0557 C.3     1  UNL1        0.0363
     26 C           2.3012   -1.4171   -1.3055 C.ar    1  UNL1       -0.0336
     27 C           3.0208   -1.5744   -0.1321 C.ar    1  UNL1       -0.0386
     28 H           8.1843   -0.7715    2.1783 H       1  UNL1        0.0536
     29 H           8.1934   -1.0343    4.0094 H       1  UNL1        0.0536
     30 H           5.7527   -1.0119    4.0149 H       1  UNL1        0.0663
     31 H           3.6616   -0.8141    2.7862 H       1  UNL1        0.1551
     32 H           3.3575    1.6071    0.8036 H       1  UNL1        0.0637
     33 H           2.0504    1.8958   -1.3278 H       1  UNL1        0.0638
     34 H          -0.3614   -1.4980   -1.3503 H       1  UNL1        0.0459
     35 H          -0.8851   -2.0338   -2.9691 H       1  UNL1        0.0459
     36 H          -3.0616   -1.3868   -2.7293 H       1  UNL1        0.0477
     37 H          -2.6592   -2.1631   -1.1992 H       1  UNL1        0.0477
     38 H          -3.8427   -2.0079    0.4080 H       1  UNL1        0.0652
     39 H          -5.1573   -1.6932    2.4735 H       1  UNL1        0.0619
     40 H          -5.7149    0.6061    3.2071 H       1  UNL1        0.0635
     41 H          -4.0769    3.3833    2.1852 H       1  UNL1        0.0292
     42 H          -5.6209    2.8592    2.9241 H       1  UNL1        0.0292
     43 H          -5.5636    3.4452    1.2065 H       1  UNL1        0.0292
     44 H          -2.9868    1.1124   -2.9199 H       1  UNL1        0.0477
     45 H          -2.9116    2.0927   -1.4211 H       1  UNL1        0.0477
     46 H          -0.7216    2.0590   -2.6404 H       1  UNL1        0.0459
     47 H          -0.5282    1.2241   -1.0829 H       1  UNL1        0.0459
     48 H           2.0007   -2.2589   -1.9029 H       1  UNL1        0.0638
     49 H           3.2989   -2.5612    0.2114 H       1  UNL1        0.0637
@<TRIPOS>BOND
     1     1     2    2
     2     2     3    1
     3     3     4    2
     4     3     5   am
     5     5     6    1
     6     6     7   ar
     7     7     8   ar
     8     8     9   ar
     9     9    10    1
    10    10    11    2
    11    10    12    2
    12    10    13    1
    13    13    14    1
    14    14    15    1
    15    15    16    1
    16    16    17    1
    17    17    18   ar
    18    18    19   ar
    19    19    20   ar
    20    20    21   ar
    21    21    22    1
    22    21    23   ar
    23    16    24    1
    24    24    25    1
    25     9    26   ar
    26    26    27   ar
    27    27     6   ar
    28    25    13    1
    29    23    17   ar
    30     1    28    1
    31     1    29    1
    32     2    30    1
    33     5    31    1
    34     7    32    1
    35     8    33    1
    36    14    34    1
    37    14    35    1
    38    15    36    1
    39    15    37    1
    40    18    38    1
    41    19    39    1
    42    20    40    1
    43    22    41    1
    44    22    42    1
    45    22    43    1
    46    24    44    1
    47    24    45    1
    48    25    46    1
    49    25    47    1
    50    26    48    1
    51    27    49    1
