
     RDKit          3D

 49 51  0  0  0  0  0  0  0  0999 V2000
    7.6480   -0.8982    3.0971 C   0  0  0  0  0  0  0  0  0  0  0  0
    6.3407   -0.8850    3.0917 C   0  0  0  0  0  0  0  0  0  0  0  0
    5.5520   -0.7024    1.8711 C   0  0  0  0  0  0  0  0  0  0  0  0
    6.1720   -0.5499    0.7637 O   0  0  0  0  0  0  0  0  0  0  0  0
    4.1537   -0.6861    1.8547 N   0  0  0  0  0  0  0  0  0  0  0  0
    3.4148   -0.5063    0.6476 C   0  0  0  0  0  0  0  0  0  0  0  0
    3.0567    0.7495    0.2034 C   0  0  0  0  0  0  0  0  0  0  0  0
    2.3393    0.9118   -0.9659 C   0  0  0  0  0  0  0  0  0  0  0  0
    1.9465   -0.1570   -1.7434 C   0  0  0  0  0  0  0  0  0  0  0  0
    1.0344    0.0451   -3.2273 S   0  0  0  0  0  6  0  0  0  0  0  0
    1.3277    1.4408   -3.7541 O   0  0  0  0  0  0  0  0  0  0  0  0
    1.3836   -0.9545   -4.2614 O   0  0  0  0  0  0  0  0  0  0  0  0
   -0.6321    0.0085   -2.8017 N   0  0  0  0  0  0  0  0  0  0  0  0
   -1.0245   -1.2378   -2.2080 C   0  0  0  0  0  0  0  0  0  0  0  0
   -2.4708   -1.2625   -1.7809 C   0  0  0  0  0  0  0  0  0  0  0  0
   -2.9048   -0.0249   -1.2060 N   0  0  0  0  0  0  0  0  0  0  0  0
   -3.6635    0.0863   -0.0125 C   0  0  0  0  0  0  0  0  0  0  0  0
   -4.0781   -1.0045    0.7166 C   0  0  0  0  0  0  0  0  0  0  0  0
   -4.8179   -0.8607    1.8805 C   0  0  0  0  0  0  0  0  0  0  0  0
   -5.1485    0.3995    2.3222 C   0  0  0  0  0  0  0  0  0  0  0  0
   -4.7258    1.4814    1.5806 C   0  0  0  0  0  0  0  0  0  0  0  0
   -5.0425    2.8824    1.9917 C   0  0  0  0  0  0  0  0  0  0  0  0
   -4.0226    1.3006    0.4771 N   0  0  0  0  0  0  0  0  0  0  0  0
   -2.5328    1.1947   -1.9089 C   0  0  0  0  0  0  0  0  0  0  0  0
   -1.0352    1.1704   -2.0557 C   0  0  0  0  0  0  0  0  0  0  0  0
    2.3012   -1.4171   -1.3055 C   0  0  0  0  0  0  0  0  0  0  0  0
    3.0208   -1.5744   -0.1321 C   0  0  0  0  0  0  0  0  0  0  0  0
    8.1843   -0.7715    2.1783 H   0  0  0  0  0  0  0  0  0  0  0  0
    8.1934   -1.0343    4.0094 H   0  0  0  0  0  0  0  0  0  0  0  0
    5.7527   -1.0119    4.0149 H   0  0  0  0  0  0  0  0  0  0  0  0
    3.6616   -0.8141    2.7862 H   0  0  0  0  0  0  0  0  0  0  0  0
    3.3575    1.6071    0.8036 H   0  0  0  0  0  0  0  0  0  0  0  0
    2.0504    1.8958   -1.3278 H   0  0  0  0  0  0  0  0  0  0  0  0
   -0.3614   -1.4980   -1.3503 H   0  0  0  0  0  0  0  0  0  0  0  0
   -0.8851   -2.0338   -2.9691 H   0  0  0  0  0  0  0  0  0  0  0  0
   -3.0616   -1.3868   -2.7293 H   0  0  0  0  0  0  0  0  0  0  0  0
   -2.6592   -2.1631   -1.1992 H   0  0  0  0  0  0  0  0  0  0  0  0
   -3.8427   -2.0079    0.4080 H   0  0  0  0  0  0  0  0  0  0  0  0
   -5.1573   -1.6932    2.4735 H   0  0  0  0  0  0  0  0  0  0  0  0
   -5.7149    0.6061    3.2071 H   0  0  0  0  0  0  0  0  0  0  0  0
   -4.0769    3.3833    2.1852 H   0  0  0  0  0  0  0  0  0  0  0  0
   -5.6209    2.8592    2.9241 H   0  0  0  0  0  0  0  0  0  0  0  0
   -5.5636    3.4452    1.2065 H   0  0  0  0  0  0  0  0  0  0  0  0
   -2.9868    1.1124   -2.9199 H   0  0  0  0  0  0  0  0  0  0  0  0
   -2.9116    2.0927   -1.4211 H   0  0  0  0  0  0  0  0  0  0  0  0
   -0.7216    2.0590   -2.6404 H   0  0  0  0  0  0  0  0  0  0  0  0
   -0.5282    1.2241   -1.0829 H   0  0  0  0  0  0  0  0  0  0  0  0
    2.0007   -2.2589   -1.9029 H   0  0  0  0  0  0  0  0  0  0  0  0
    3.2989   -2.5612    0.2114 H   0  0  0  0  0  0  0  0  0  0  0  0
  1  2  2  3
  2  3  1  0
  3  4  2  0
  3  5  1  0
  5  6  1  0
  6  7  2  0
  7  8  1  0
  8  9  2  0
  9 10  1  0
 10 11  2  0
 10 12  2  0
 10 13  1  0
 13 14  1  0
 14 15  1  0
 15 16  1  0
 16 17  1  0
 17 18  2  0
 18 19  1  0
 19 20  2  0
 20 21  1  0
 21 22  1  0
 21 23  2  0
 16 24  1  0
 24 25  1  0
  9 26  1  0
 26 27  2  0
 27  6  1  0
 25 13  1  0
 23 17  1  0
  1 28  1  0
  1 29  1  0
  2 30  1  0
  5 31  1  0
  7 32  1  0
  8 33  1  0
 14 34  1  0
 14 35  1  0
 15 36  1  0
 15 37  1  0
 18 38  1  0
 19 39  1  0
 20 40  1  0
 22 41  1  0
 22 42  1  0
 22 43  1  0
 24 44  1  0
 24 45  1  0
 25 46  1  0
 25 47  1  0
 26 48  1  0
 27 49  1  0
M  END
$$$$
