
     RDKit          3D

 81 88  0  0  0  0  0  0  0  0999 V2000
    6.5479   -1.4880    0.1628 C   0  0  0  0  0  0  0  0  0  0  0  0
    5.6989   -1.2629   -1.0568 C   0  0  0  0  0  0  0  0  0  0  0  0
    6.1164   -2.2861   -2.4652 S   0  0  0  0  0  0  0  0  0  0  0  0
    4.2460   -1.3648   -0.7039 C   0  0  0  0  0  0  0  0  0  0  0  0
    3.3047   -0.4230   -0.4296 C   0  0  0  0  0  0  0  0  0  0  0  0
    3.7926    0.9001   -0.1451 C   0  0  0  0  0  0  0  0  0  0  0  0
    2.7952    1.5699    0.4367 C   0  0  0  0  0  0  0  0  0  0  0  0
    3.1443    2.9065    0.7978 C   0  0  0  0  0  0  0  0  0  0  0  0
    4.4114    3.6947    0.8098 C   0  0  0  0  0  0  0  0  0  0  0  0
    2.0106    3.4188    1.1925 C   0  0  0  0  0  0  0  0  0  0  0  0
    1.9073    4.8381    1.6749 C   0  0  0  0  0  0  0  0  0  0  0  0
    0.9815    5.5812    0.7429 C   0  0  0  0  0  0  0  0  0  0  0  0
    1.3172    4.8889    3.3872 S   0  0  0  0  0  0  0  0  0  0  0  0
    0.9982    2.4218    1.0686 C   0  0  0  0  0  0  0  0  0  0  0  0
    1.4347    1.3558    0.6484 N   0  0  0  0  0  4  0  0  0  0  0  0
    0.5658   -0.1852    0.2956 Fe  0  0  0  0  0  4  0  0  0  0  0  0
   -1.0264    0.7456    0.1827 N   0  0  0  0  0  0  0  0  0  0  0  0
   -1.1590    1.9530    0.6741 C   0  0  0  0  0  0  0  0  0  0  0  0
   -0.3741    2.9097    1.1584 C   0  0  0  0  0  0  0  0  0  0  0  0
   -2.4668    2.3440    0.5935 C   0  0  0  0  0  0  0  0  0  0  0  0
   -3.2045    3.5863    1.0083 C   0  0  0  0  0  0  0  0  0  0  0  0
   -3.1436    1.3142    0.0252 C   0  0  0  0  0  0  0  0  0  0  0  0
   -4.6019    1.3432   -0.2606 C   0  0  0  0  0  0  0  0  0  0  0  0
   -4.9518    2.1432   -1.4759 C   0  0  0  0  0  0  0  0  0  0  0  0
   -6.4478    2.0574   -1.6248 C   0  0  0  0  0  0  0  0  0  0  0  0
   -7.5884    1.5219   -1.0702 O   0  0  0  0  0  0  0  0  0  0  0  0
   -7.0403    2.6527   -2.5780 O   0  0  0  0  0  0  0  0  0  0  0  0
   -2.1978    0.3739   -0.1890 C   0  0  0  0  0  0  0  0  0  0  0  0
   -2.6373   -0.8295   -0.5088 C   0  0  0  0  0  0  0  0  0  0  0  0
   -1.5411   -1.7905   -0.3954 C   0  0  0  0  0  0  0  0  0  0  0  0
   -0.3198   -1.7044   -0.1046 N   0  0  0  0  0  4  0  0  0  0  0  0
    0.1820   -2.9663   -0.2117 C   0  0  0  0  0  0  0  0  0  0  0  0
    1.4149   -3.4425   -0.3223 C   0  0  0  0  0  0  0  0  0  0  0  0
    2.2722   -2.2594   -0.3160 C   0  0  0  0  0  0  0  0  0  0  0  0
    2.1513   -0.9629   -0.2142 N   0  0  0  0  0  0  0  0  0  0  0  0
    3.5749   -2.5423   -0.6219 C   0  0  0  0  0  0  0  0  0  0  0  0
    4.3391   -3.8246   -0.8369 C   0  0  0  0  0  0  0  0  0  0  0  0
   -0.8651   -3.8746   -0.5753 C   0  0  0  0  0  0  0  0  0  0  0  0
   -0.8498   -5.3504   -0.7662 C   0  0  0  0  0  0  0  0  0  0  0  0
   -1.9349   -3.1407   -0.6901 C   0  0  0  0  0  0  0  0  0  0  0  0
   -3.2139   -3.7898   -1.1046 C   0  0  0  0  0  0  0  0  0  0  0  0
   -4.1367   -4.1243    0.0092 C   0  0  0  0  0  0  0  0  0  0  0  0
   -4.5884   -3.0104    0.8273 C   0  0  0  0  0  0  0  0  0  0  0  0
   -4.0376   -2.5015    1.9830 O   0  0  0  0  0  0  0  0  0  0  0  0
   -5.6467   -2.4343    0.3985 O   0  0  0  0  0  0  0  0  0  0  0  0
    7.1455   -0.6215    0.4454 H   0  0  0  0  0  0  0  0  0  0  0  0
    7.2592   -2.3194   -0.1019 H   0  0  0  0  0  0  0  0  0  0  0  0
    5.9472   -1.8831    1.0277 H   0  0  0  0  0  0  0  0  0  0  0  0
    5.9005   -0.1950   -1.3556 H   0  0  0  0  0  0  0  0  0  0  0  0
    7.0750   -3.2447   -2.0932 H   0  0  0  0  0  0  0  0  0  0  0  0
    4.8164    1.2724   -0.3921 H   0  0  0  0  0  0  0  0  0  0  0  0
    4.7008    3.8986    1.8640 H   0  0  0  0  0  0  0  0  0  0  0  0
    5.2077    3.1147    0.3409 H   0  0  0  0  0  0  0  0  0  0  0  0
    4.1671    4.6258    0.2434 H   0  0  0  0  0  0  0  0  0  0  0  0
    2.8620    5.2951    1.6438 H   0  0  0  0  0  0  0  0  0  0  0  0
    0.6193    4.9630   -0.1079 H   0  0  0  0  0  0  0  0  0  0  0  0
    1.5287    6.4293    0.2274 H   0  0  0  0  0  0  0  0  0  0  0  0
    0.1708    6.1023    1.2961 H   0  0  0  0  0  0  0  0  0  0  0  0
    2.4088    4.7344    4.2915 H   0  0  0  0  0  0  0  0  0  0  0  0
   -0.6800    3.8925    1.5797 H   0  0  0  0  0  0  0  0  0  0  0  0
   -3.2649    4.2621    0.1520 H   0  0  0  0  0  0  0  0  0  0  0  0
   -4.1411    3.2833    1.4704 H   0  0  0  0  0  0  0  0  0  0  0  0
   -2.6180    4.1152    1.8052 H   0  0  0  0  0  0  0  0  0  0  0  0
   -5.0702    1.7970    0.6348 H   0  0  0  0  0  0  0  0  0  0  0  0
   -5.0037    0.3030   -0.3098 H   0  0  0  0  0  0  0  0  0  0  0  0
   -4.7282    3.1941   -1.3140 H   0  0  0  0  0  0  0  0  0  0  0  0
   -4.4581    1.7582   -2.3930 H   0  0  0  0  0  0  0  0  0  0  0  0
   -8.0552    0.6840   -1.3498 H   0  0  0  0  0  0  0  0  0  0  0  0
   -3.6765   -1.0335   -0.8524 H   0  0  0  0  0  0  0  0  0  0  0  0
    1.7123   -4.5096   -0.3846 H   0  0  0  0  0  0  0  0  0  0  0  0
    4.3847   -3.9897   -1.9201 H   0  0  0  0  0  0  0  0  0  0  0  0
    3.8050   -4.6373   -0.2977 H   0  0  0  0  0  0  0  0  0  0  0  0
    5.3382   -3.7256   -0.4266 H   0  0  0  0  0  0  0  0  0  0  0  0
    0.1599   -5.8027   -0.6475 H   0  0  0  0  0  0  0  0  0  0  0  0
   -1.5795   -5.8308   -0.0829 H   0  0  0  0  0  0  0  0  0  0  0  0
   -1.1884   -5.5212   -1.8002 H   0  0  0  0  0  0  0  0  0  0  0  0
   -2.9813   -4.6200   -1.7799 H   0  0  0  0  0  0  0  0  0  0  0  0
   -3.7289   -3.0326   -1.7801 H   0  0  0  0  0  0  0  0  0  0  0  0
   -3.6135   -4.8643    0.6761 H   0  0  0  0  0  0  0  0  0  0  0  0
   -4.9868   -4.7215   -0.4150 H   0  0  0  0  0  0  0  0  0  0  0  0
   -4.6682   -2.1346    2.6958 H   0  0  0  0  0  0  0  0  0  0  0  0
  1  2  1  0
  2  3  1  0
  2  4  1  0
  4  5  2  0
  5  6  1  0
  6  7  2  0
  7  8  1  0
  8  9  1  0
  8 10  2  0
 10 11  1  0
 11 12  1  0
 11 13  1  0
 10 14  1  0
 14 15  2  0
 15 16  1  0
 16 17  1  0
 17 18  1  0
 18 19  2  0
 18 20  1  0
 20 21  1  0
 20 22  2  0
 22 23  1  0
 23 24  1  0
 24 25  1  0
 25 26  1  0
 25 27  2  0
 22 28  1  0
 28 29  2  0
 29 30  1  0
 30 31  2  0
 31 32  1  0
 32 33  2  0
 33 34  1  0
 34 35  1  0
 34 36  2  0
 36 37  1  0
 32 38  1  0
 38 39  1  0
 38 40  2  0
 40 41  1  0
 41 42  1  0
 42 43  1  0
 43 44  1  0
 43 45  2  0
 36  4  1  0
 35  5  1  0
 15  7  1  0
 31 16  1  0
 19 14  1  0
 40 30  1  0
 35 16  1  0
 28 17  1  0
  1 46  1  0
  1 47  1  0
  1 48  1  0
  2 49  1  0
  3 50  1  0
  6 51  1  0
  9 52  1  0
  9 53  1  0
  9 54  1  0
 11 55  1  0
 12 56  1  0
 12 57  1  0
 12 58  1  0
 13 59  1  0
 19 60  1  0
 21 61  1  0
 21 62  1  0
 21 63  1  0
 23 64  1  0
 23 65  1  0
 24 66  1  0
 24 67  1  0
 26 68  1  0
 29 69  1  0
 33 70  1  0
 37 71  1  0
 37 72  1  0
 37 73  1  0
 39 74  1  0
 39 75  1  0
 39 76  1  0
 41 77  1  0
 41 78  1  0
 42 79  1  0
 42 80  1  0
 44 81  1  0
M  CHG  3  15   1  16  -2  31   1
M  END
$$$$
