
     RDKit          3D

 56 61  0  0  0  0  0  0  0  0999 V2000
    4.0898   -0.0841    2.8441 C   0  0  0  0  0  0  0  0  0  0  0  0
    3.4349    1.1081    2.5571 O   0  0  0  0  0  0  0  0  0  0  0  0
    3.6621    1.4300    1.2192 C   0  0  0  0  0  0  0  0  0  0  0  0
    3.1210    0.3169    0.4030 C   0  0  0  0  0  0  0  0  0  0  0  0
    3.8247   -0.6439   -0.2123 N   0  0  0  0  0  0  0  0  0  0  0  0
    2.9897   -1.4544   -0.8374 N   0  0  0  0  0  0  0  0  0  0  0  0
    3.3835   -2.6103   -1.6124 C   0  0  0  0  0  0  0  0  0  0  0  0
    4.0557   -3.7340   -0.8182 C   0  0  0  0  0  0  0  0  0  0  0  0
    2.7068   -3.9107   -1.4184 C   0  0  0  0  0  0  0  0  0  0  0  0
    1.7302   -1.0276   -0.6341 C   0  0  0  0  0  0  0  0  0  0  0  0
    1.7817    0.0984    0.1514 C   0  0  0  0  0  0  0  0  0  0  0  0
    0.4125    0.6064    0.3902 C   0  0  0  0  0  0  0  0  0  0  0  0
    0.3674    1.9871   -0.1961 C   0  0  0  0  0  0  0  0  0  0  0  0
    0.2676    3.0603    0.6625 C   0  0  0  0  0  0  0  0  0  0  0  0
    0.2330    4.3237    0.1015 C   0  0  0  0  0  0  0  0  0  0  0  0
    0.2959    4.5046   -1.2668 C   0  0  0  0  0  0  0  0  0  0  0  0
    0.2505    6.1095   -1.9563 Cl  0  0  0  0  0  0  0  0  0  0  0  0
    0.3956    3.4347   -2.1266 C   0  0  0  0  0  0  0  0  0  0  0  0
    0.4299    2.1680   -1.5547 C   0  0  0  0  0  0  0  0  0  0  0  0
   -0.4577   -0.3049   -0.2714 N   0  0  0  0  0  0  0  0  0  0  0  0
   -1.8935   -0.2444   -0.2798 C   0  0  0  0  0  0  0  0  0  0  0  0
   -2.6175    0.4065   -1.2498 C   0  0  0  0  0  0  0  0  0  0  0  0
   -4.0063    0.4207   -1.1843 C   0  0  0  0  0  0  0  0  0  0  0  0
   -4.7691    1.1292   -2.2435 C   0  0  0  0  0  0  0  0  0  0  0  0
   -4.5793   -0.2383   -0.1204 C   0  0  0  0  0  0  0  0  0  0  0  0
   -5.8779   -0.3917    0.2013 N   0  0  0  0  0  0  0  0  0  0  0  0
   -5.9490   -1.1038    1.3166 N   0  0  0  0  0  0  0  0  0  0  0  0
   -4.7066   -1.4228    1.7356 C   0  0  0  0  0  0  0  0  0  0  0  0
   -4.3721   -2.2146    2.9480 C   0  0  0  0  0  0  0  0  0  0  0  0
   -3.8755   -0.8767    0.8310 N   0  0  0  0  0  0  0  0  0  0  0  0
   -2.5450   -0.8913    0.7699 C   0  0  0  0  0  0  0  0  0  0  0  0
    0.3261   -1.3009   -0.9150 C   0  0  0  0  0  0  0  0  0  0  0  0
   -0.0600   -2.2620   -1.6097 O   0  0  0  0  0  0  0  0  0  0  0  0
    3.9465   -0.3937    3.8981 H   0  0  0  0  0  0  0  0  0  0  0  0
    5.1744    0.0921    2.7029 H   0  0  0  0  0  0  0  0  0  0  0  0
    3.6980   -0.8818    2.1499 H   0  0  0  0  0  0  0  0  0  0  0  0
    3.1646    2.3883    0.9526 H   0  0  0  0  0  0  0  0  0  0  0  0
    4.7447    1.5906    1.0446 H   0  0  0  0  0  0  0  0  0  0  0  0
    3.8622   -2.4341   -2.6169 H   0  0  0  0  0  0  0  0  0  0  0  0
    4.1313   -3.6106    0.2808 H   0  0  0  0  0  0  0  0  0  0  0  0
    4.9373   -4.2313   -1.2655 H   0  0  0  0  0  0  0  0  0  0  0  0
    1.8499   -4.0298   -0.7278 H   0  0  0  0  0  0  0  0  0  0  0  0
    2.6620   -4.5895   -2.2919 H   0  0  0  0  0  0  0  0  0  0  0  0
    0.2707    0.6509    1.4876 H   0  0  0  0  0  0  0  0  0  0  0  0
    0.2180    2.9370    1.7376 H   0  0  0  0  0  0  0  0  0  0  0  0
    0.1537    5.1710    0.7881 H   0  0  0  0  0  0  0  0  0  0  0  0
    0.4445    3.5616   -3.2033 H   0  0  0  0  0  0  0  0  0  0  0  0
    0.5088    1.3149   -2.2398 H   0  0  0  0  0  0  0  0  0  0  0  0
   -2.1031    0.9050   -2.0639 H   0  0  0  0  0  0  0  0  0  0  0  0
   -4.6607    0.6006   -3.2219 H   0  0  0  0  0  0  0  0  0  0  0  0
   -5.8556    1.1429   -2.0328 H   0  0  0  0  0  0  0  0  0  0  0  0
   -4.4446    2.1860   -2.3690 H   0  0  0  0  0  0  0  0  0  0  0  0
   -3.5398   -2.9507    2.7422 H   0  0  0  0  0  0  0  0  0  0  0  0
   -4.0150   -1.5921    3.7831 H   0  0  0  0  0  0  0  0  0  0  0  0
   -5.2110   -2.8139    3.3098 H   0  0  0  0  0  0  0  0  0  0  0  0
   -1.9861   -1.4013    1.5311 H   0  0  0  0  0  0  0  0  0  0  0  0
  1  2  1  0
  2  3  1  0
  3  4  1  0
  4  5  2  0
  5  6  1  0
  6  7  1  0
  7  8  1  0
  8  9  1  0
  6 10  1  0
 10 11  2  0
 11 12  1  0
 12 13  1  0
 13 14  2  0
 14 15  1  0
 15 16  2  0
 16 17  1  0
 16 18  1  0
 18 19  2  0
 12 20  1  0
 20 21  1  0
 21 22  1  0
 22 23  2  0
 23 24  1  0
 23 25  1  0
 25 26  2  0
 26 27  1  0
 27 28  2  0
 28 29  1  0
 28 30  1  0
 30 31  1  0
 20 32  1  0
 32 33  2  0
 11  4  1  0
 19 13  1  0
 31 21  2  0
  9  7  1  0
 32 10  1  0
 30 25  1  0
  1 34  1  0
  1 35  1  0
  1 36  1  0
  3 37  1  0
  3 38  1  0
  7 39  1  0
  8 40  1  0
  8 41  1  0
  9 42  1  0
  9 43  1  0
 12 44  1  0
 14 45  1  0
 15 46  1  0
 18 47  1  0
 19 48  1  0
 22 49  1  0
 24 50  1  0
 24 51  1  0
 24 52  1  0
 29 53  1  0
 29 54  1  0
 29 55  1  0
 31 56  1  0
M  END
$$$$
