@<TRIPOS>MOLECULE
*****
 56 61 0 0 0
SMALL
GASTEIGER

@<TRIPOS>ATOM
      1 C           4.0898   -0.0841    2.8441 C.3     1  UNL1        0.0369
      2 O           3.4349    1.1081    2.5571 O.3     1  UNL1       -0.3768
      3 C           3.6621    1.4300    1.2192 C.3     1  UNL1        0.0913
      4 C           3.1210    0.3169    0.4030 C.ar    1  UNL1        0.0946
      5 N           3.8247   -0.6439   -0.2123 N.ar    1  UNL1       -0.1726
      6 N           2.9897   -1.4544   -0.8374 N.ar    1  UNL1       -0.2555
      7 C           3.3835   -2.6103   -1.6124 C.3     1  UNL1        0.0537
      8 C           4.0557   -3.7340   -0.8182 C.3     1  UNL1       -0.0285
      9 C           2.7068   -3.9107   -1.4184 C.3     1  UNL1       -0.0285
     10 C           1.7302   -1.0276   -0.6341 C.ar    1  UNL1        0.1297
     11 C           1.7817    0.0984    0.1514 C.ar    1  UNL1        0.0330
     12 C           0.4125    0.6064    0.3902 C.3     1  UNL1        0.0855
     13 C           0.3674    1.9871   -0.1961 C.ar    1  UNL1       -0.0221
     14 C           0.2676    3.0603    0.6625 C.ar    1  UNL1       -0.0551
     15 C           0.2330    4.3237    0.1015 C.ar    1  UNL1       -0.0431
     16 C           0.2959    4.5046   -1.2668 C.ar    1  UNL1        0.0410
     17 CL          0.2505    6.1095   -1.9563 Cl      1  UNL1       -0.0835
     18 C           0.3956    3.4347   -2.1266 C.ar    1  UNL1       -0.0431
     19 C           0.4299    2.1680   -1.5547 C.ar    1  UNL1       -0.0551
     20 N          -0.4577   -0.3049   -0.2714 N.am    1  UNL1       -0.2531
     21 C          -1.8935   -0.2444   -0.2798 C.ar    1  UNL1        0.0545
     22 C          -2.6175    0.4065   -1.2498 C.ar    1  UNL1       -0.0324
     23 C          -4.0063    0.4207   -1.1843 C.ar    1  UNL1       -0.0041
     24 C          -4.7691    1.1292   -2.2435 C.3     1  UNL1       -0.0361
     25 C          -4.5793   -0.2383   -0.1204 C.ar    1  UNL1        0.1641
     26 N          -5.8779   -0.3917    0.2013 N.ar    1  UNL1       -0.1292
     27 N          -5.9490   -1.1038    1.3166 N.ar    1  UNL1       -0.1340
     28 C          -4.7066   -1.4228    1.7356 C.ar    1  UNL1        0.1347
     29 C          -4.3721   -2.2146    2.9480 C.3     1  UNL1       -0.0041
     30 N          -3.8755   -0.8767    0.8310 N.ar    1  UNL1       -0.2846
     31 C          -2.5450   -0.8913    0.7699 C.ar    1  UNL1        0.0344
     32 C           0.3261   -1.3009   -0.9150 C.2     1  UNL1        0.2700
     33 O          -0.0600   -2.2620   -1.6097 O.2     1  UNL1       -0.2679
     34 H           3.9465   -0.3937    3.8981 H       1  UNL1        0.0524
     35 H           5.1744    0.0921    2.7029 H       1  UNL1        0.0524
     36 H           3.6980   -0.8818    2.1499 H       1  UNL1        0.0524
     37 H           3.1646    2.3883    0.9526 H       1  UNL1        0.0626
     38 H           4.7447    1.5906    1.0446 H       1  UNL1        0.0626
     39 H           3.8622   -2.4341   -2.6169 H       1  UNL1        0.0545
     40 H           4.1313   -3.6106    0.2808 H       1  UNL1        0.0286
     41 H           4.9373   -4.2313   -1.2655 H       1  UNL1        0.0286
     42 H           1.8499   -4.0298   -0.7278 H       1  UNL1        0.0286
     43 H           2.6620   -4.5895   -2.2919 H       1  UNL1        0.0286
     44 H           0.2707    0.6509    1.4876 H       1  UNL1        0.0606
     45 H           0.2180    2.9370    1.7376 H       1  UNL1        0.0621
     46 H           0.1537    5.1710    0.7881 H       1  UNL1        0.0632
     47 H           0.4445    3.5616   -3.2033 H       1  UNL1        0.0632
     48 H           0.5088    1.3149   -2.2398 H       1  UNL1        0.0621
     49 H          -2.1031    0.9050   -2.0639 H       1  UNL1        0.0640
     50 H          -4.6607    0.6006   -3.2219 H       1  UNL1        0.0279
     51 H          -5.8556    1.1429   -2.0328 H       1  UNL1        0.0279
     52 H          -4.4446    2.1860   -2.3690 H       1  UNL1        0.0279
     53 H          -3.5398   -2.9507    2.7422 H       1  UNL1        0.0308
     54 H          -4.0150   -1.5921    3.7831 H       1  UNL1        0.0308
     55 H          -5.2110   -2.8139    3.3098 H       1  UNL1        0.0308
     56 H          -1.9861   -1.4013    1.5311 H       1  UNL1        0.0833
@<TRIPOS>BOND
     1     1     2    1
     2     2     3    1
     3     3     4    1
     4     4     5   ar
     5     5     6   ar
     6     6     7    1
     7     7     8    1
     8     8     9    1
     9     6    10   ar
    10    10    11   ar
    11    11    12    1
    12    12    13    1
    13    13    14   ar
    14    14    15   ar
    15    15    16   ar
    16    16    17    1
    17    16    18   ar
    18    18    19   ar
    19    12    20    1
    20    20    21    1
    21    21    22   ar
    22    22    23   ar
    23    23    24    1
    24    23    25   ar
    25    25    26   ar
    26    26    27   ar
    27    27    28   ar
    28    28    29    1
    29    28    30   ar
    30    30    31   ar
    31    20    32   am
    32    32    33    2
    33    11     4   ar
    34    19    13   ar
    35    31    21   ar
    36     9     7    1
    37    32    10    1
    38    30    25   ar
    39     1    34    1
    40     1    35    1
    41     1    36    1
    42     3    37    1
    43     3    38    1
    44     7    39    1
    45     8    40    1
    46     8    41    1
    47     9    42    1
    48     9    43    1
    49    12    44    1
    50    14    45    1
    51    15    46    1
    52    18    47    1
    53    19    48    1
    54    22    49    1
    55    24    50    1
    56    24    51    1
    57    24    52    1
    58    29    53    1
    59    29    54    1
    60    29    55    1
    61    31    56    1
