@<TRIPOS>MOLECULE
*****
 62 65 0 0 0
SMALL
GASTEIGER

@<TRIPOS>ATOM
      1 C           7.7047    3.2569    0.3172 C.3     1  UNL1       -0.0622
      2 C           7.2629    3.9852   -0.9260 C.3     1  UNL1       -0.0214
      3 C           5.7491    4.1656   -0.9075 C.3     1  UNL1        0.0926
      4 O           5.1934    2.8622   -0.8606 O.3     1  UNL1       -0.4601
      5 C           3.8461    2.5963   -0.8317 C.2     1  UNL1        0.3595
      6 O           3.0445    3.5639   -0.8474 O.2     1  UNL1       -0.2432
      7 C           3.3327    1.2171   -0.7833 C.ar    1  UNL1        0.1702
      8 C           1.9971    0.8739   -0.7524 C.ar    1  UNL1       -0.0015
      9 C           1.9443   -0.5035   -0.7113 C.ar    1  UNL1        0.0755
     10 C           0.7465   -1.3140   -0.6688 C.ar    1  UNL1        0.0040
     11 C           0.6378   -2.4276   -1.4834 C.ar    1  UNL1       -0.0523
     12 C          -0.5143   -3.1728   -1.4155 C.ar    1  UNL1       -0.0577
     13 C          -1.5526   -2.8447   -0.5677 C.ar    1  UNL1       -0.0191
     14 C          -1.4541   -1.7280    0.2550 C.ar    1  UNL1        0.1339
     15 O          -2.5152   -1.4236    1.0971 O.3     1  UNL1       -0.4115
     16 C          -3.5699   -0.6181    0.7646 C.2     1  UNL1        0.4058
     17 O          -3.5727   -0.1146   -0.4020 O.2     1  UNL1       -0.2260
     18 N          -4.6490   -0.3239    1.6567 N.am    1  UNL1       -0.2779
     19 C          -5.7049    0.5304    1.2123 C.3     1  UNL1        0.0263
     20 C          -5.8070    1.8121    2.0472 C.3     1  UNL1       -0.0344
     21 C          -6.6914    2.7543    1.2256 C.3     1  UNL1       -0.0514
     22 C          -8.0592    2.1691    1.0113 C.3     1  UNL1       -0.0529
     23 C          -8.0271    0.7608    0.5065 C.3     1  UNL1       -0.0514
     24 C          -7.0606   -0.1200    1.2627 C.3     1  UNL1       -0.0344
     25 C          -0.3004   -0.9957    0.1762 C.ar    1  UNL1       -0.0100
     26 N           3.2052   -0.9852   -0.7169 N.ar    1  UNL1       -0.2313
     27 C           3.6067   -2.3542   -0.6832 C.ar    1  UNL1        0.0660
     28 C           3.2143   -3.1705    0.3570 C.ar    1  UNL1       -0.0362
     29 C           3.5886   -4.5052    0.4175 C.ar    1  UNL1       -0.0598
     30 C           4.3714   -5.0679   -0.5657 C.ar    1  UNL1       -0.0616
     31 C           4.7679   -4.2581   -1.6091 C.ar    1  UNL1       -0.0598
     32 C           4.3902   -2.9130   -1.6694 C.ar    1  UNL1       -0.0362
     33 N           3.9978    0.0723   -0.7603 N.ar    1  UNL1       -0.1592
     34 H           8.6825    2.7569    0.2033 H       1  UNL1        0.0231
     35 H           7.8093    3.9639    1.1652 H       1  UNL1        0.0231
     36 H           6.9688    2.4772    0.6285 H       1  UNL1        0.0231
     37 H           7.8003    4.9357   -0.9955 H       1  UNL1        0.0295
     38 H           7.5459    3.3648   -1.7976 H       1  UNL1        0.0295
     39 H           5.4193    4.7342   -1.7853 H       1  UNL1        0.0697
     40 H           5.4686    4.7025   -0.0006 H       1  UNL1        0.0697
     41 H           1.1289    1.5215   -0.7577 H       1  UNL1        0.0663
     42 H           1.4724   -2.6652   -2.1442 H       1  UNL1        0.0624
     43 H          -0.5736   -4.0415   -2.0654 H       1  UNL1        0.0619
     44 H          -2.4595   -3.4458   -0.5258 H       1  UNL1        0.0654
     45 H          -4.6638   -0.7205    2.6004 H       1  UNL1        0.1523
     46 H          -5.5481    0.8826    0.1642 H       1  UNL1        0.0499
     47 H          -6.2646    1.6081    3.0389 H       1  UNL1        0.0283
     48 H          -4.8123    2.3117    2.1307 H       1  UNL1        0.0283
     49 H          -6.1848    2.8735    0.2454 H       1  UNL1        0.0266
     50 H          -6.7974    3.7347    1.7056 H       1  UNL1        0.0266
     51 H          -8.5544    2.7896    0.2246 H       1  UNL1        0.0265
     52 H          -8.6717    2.2309    1.9223 H       1  UNL1        0.0265
     53 H          -7.7170    0.7568   -0.5541 H       1  UNL1        0.0266
     54 H          -9.0570    0.3539    0.5692 H       1  UNL1        0.0266
     55 H          -7.0896   -1.1229    0.8140 H       1  UNL1        0.0283
     56 H          -7.4442   -0.2037    2.3124 H       1  UNL1        0.0283
     57 H          -0.2436   -0.1177    0.8348 H       1  UNL1        0.0661
     58 H           2.6011   -2.7231    1.1239 H       1  UNL1        0.0639
     59 H           3.2760   -5.1348    1.2357 H       1  UNL1        0.0618
     60 H           4.6802   -6.1113   -0.5445 H       1  UNL1        0.0618
     61 H           5.3893   -4.7032   -2.3904 H       1  UNL1        0.0618
     62 H           4.7160   -2.2957   -2.5027 H       1  UNL1        0.0639
@<TRIPOS>BOND
     1     1     2    1
     2     2     3    1
     3     3     4    1
     4     4     5    1
     5     5     6    2
     6     5     7    1
     7     7     8   ar
     8     8     9   ar
     9     9    10    1
    10    10    11   ar
    11    11    12   ar
    12    12    13   ar
    13    13    14   ar
    14    14    15    1
    15    15    16    1
    16    16    17    2
    17    16    18   am
    18    18    19    1
    19    19    20    1
    20    20    21    1
    21    21    22    1
    22    22    23    1
    23    23    24    1
    24    14    25   ar
    25     9    26   ar
    26    26    27    1
    27    27    28   ar
    28    28    29   ar
    29    29    30   ar
    30    30    31   ar
    31    31    32   ar
    32    26    33   ar
    33    33     7   ar
    34    25    10   ar
    35    32    27   ar
    36    24    19    1
    37     1    34    1
    38     1    35    1
    39     1    36    1
    40     2    37    1
    41     2    38    1
    42     3    39    1
    43     3    40    1
    44     8    41    1
    45    11    42    1
    46    12    43    1
    47    13    44    1
    48    18    45    1
    49    19    46    1
    50    20    47    1
    51    20    48    1
    52    21    49    1
    53    21    50    1
    54    22    51    1
    55    22    52    1
    56    23    53    1
    57    23    54    1
    58    24    55    1
    59    24    56    1
    60    25    57    1
    61    28    58    1
    62    29    59    1
    63    30    60    1
    64    31    61    1
    65    32    62    1
