@<TRIPOS>MOLECULE
*****
 54 58 0 0 0
SMALL
GASTEIGER

@<TRIPOS>ATOM
      1 C          -3.6475   -0.2549   -2.1287 C.3     1  UNL1       -0.0454
      2 C          -3.0021    0.7948   -1.2401 C.3     1  UNL1        0.0411
      3 N          -2.2072    0.2096   -0.2057 N.ar    1  UNL1       -0.2419
      4 C          -0.8969   -0.0822   -0.4273 C.ar    1  UNL1        0.2740
      5 O          -0.4479    0.1922   -1.5700 O.2     1  UNL1       -0.2656
      6 C          -0.0628   -0.6433    0.5016 C.ar    1  UNL1        0.0518
      7 C           1.3344   -0.9441    0.2356 C.ar    1  UNL1       -0.0089
      8 C           2.3419   -0.0573    0.4648 C.ar    1  UNL1       -0.0415
      9 C           3.6825   -0.3227    0.2184 C.ar    1  UNL1        0.0373
     10 C           4.6869    0.6798    0.4921 C.2     1  UNL1        0.2443
     11 O           4.3024    1.7977    0.9600 O.2     1  UNL1       -0.2702
     12 N           6.0456    0.4425    0.2546 N.am    1  UNL1       -0.3085
     13 C           7.0634    1.4668    0.5351 C.3     1  UNL1        0.0235
     14 C           8.1330    1.5975   -0.5297 C.3     1  UNL1       -0.0328
     15 C           8.4627    1.0155    0.8058 C.3     1  UNL1       -0.0328
     16 C           3.9566   -1.5717   -0.2876 C.ar    1  UNL1       -0.0494
     17 C           2.9513   -2.5022   -0.5337 C.ar    1  UNL1       -0.0575
     18 C           1.6449   -2.1938   -0.2747 C.ar    1  UNL1       -0.0425
     19 C           0.5572   -3.1776   -0.5322 C.3     1  UNL1       -0.0391
     20 C          -0.6022   -0.9237    1.7343 C.ar    1  UNL1       -0.0027
     21 C          -1.9200   -0.6275    1.9506 C.ar    1  UNL1        0.1772
     22 N          -2.6350   -0.8157    3.0716 N.ar    1  UNL1       -0.1276
     23 N          -3.8484   -0.4012    2.8747 N.ar    1  UNL1       -0.1269
     24 C          -3.8981    0.0641    1.5844 C.ar    1  UNL1        0.1877
     25 C          -5.0954    0.6202    0.9901 C.ar    1  UNL1        0.0743
     26 C          -5.3304    1.9852    1.1568 C.ar    1  UNL1        0.1355
     27 F          -4.4408    2.7703    1.8410 F       1  UNL1       -0.2047
     28 C          -6.4491    2.5629    0.6422 C.ar    1  UNL1       -0.0257
     29 C          -7.3805    1.8171   -0.0574 C.ar    1  UNL1       -0.0576
     30 C          -7.1402    0.4753   -0.2154 C.ar    1  UNL1       -0.0425
     31 C          -6.0146   -0.1162    0.3006 C.ar    1  UNL1        0.0545
     32 CL         -5.7818   -1.8477    0.0858 Cl      1  UNL1       -0.0827
     33 N          -2.7062   -0.0676    0.9874 N.ar    1  UNL1       -0.2096
     34 H          -3.4544   -1.2490   -1.6762 H       1  UNL1        0.0247
     35 H          -4.7224   -0.1233   -2.2698 H       1  UNL1        0.0247
     36 H          -3.1610   -0.3135   -3.1443 H       1  UNL1        0.0247
     37 H          -3.6703    1.5999   -0.9718 H       1  UNL1        0.0507
     38 H          -2.2481    1.3012   -1.9366 H       1  UNL1        0.0507
     39 H           2.0841    0.9185    0.8649 H       1  UNL1        0.0631
     40 H           6.3556   -0.4663   -0.1255 H       1  UNL1        0.1493
     41 H           6.6906    2.4298    0.9427 H       1  UNL1        0.0498
     42 H           8.5390    2.6143   -0.7115 H       1  UNL1        0.0284
     43 H           8.0896    0.9328   -1.4191 H       1  UNL1        0.0284
     44 H           9.0633    1.6328    1.5334 H       1  UNL1        0.0284
     45 H           8.6677   -0.0689    0.8510 H       1  UNL1        0.0284
     46 H           4.9641   -1.8585   -0.5061 H       1  UNL1        0.0625
     47 H           3.1655   -3.4876   -0.9328 H       1  UNL1        0.0621
     48 H           0.5394   -3.9733    0.2297 H       1  UNL1        0.0278
     49 H           0.6747   -3.6039   -1.5541 H       1  UNL1        0.0278
     50 H          -0.4359   -2.6650   -0.5387 H       1  UNL1        0.0278
     51 H          -0.0019   -1.3740    2.5342 H       1  UNL1        0.0663
     52 H          -6.6408    3.6320    0.7683 H       1  UNL1        0.0646
     53 H          -8.2760    2.2754   -0.4706 H       1  UNL1        0.0619
     54 H          -7.8784   -0.0954   -0.7653 H       1  UNL1        0.0632
@<TRIPOS>BOND
     1     1     2    1
     2     2     3    1
     3     3     4   ar
     4     4     5    2
     5     4     6   ar
     6     6     7    1
     7     7     8   ar
     8     8     9   ar
     9     9    10    1
    10    10    11    2
    11    10    12   am
    12    12    13    1
    13    13    14    1
    14    14    15    1
    15     9    16   ar
    16    16    17   ar
    17    17    18   ar
    18    18    19    1
    19     6    20   ar
    20    20    21   ar
    21    21    22   ar
    22    22    23   ar
    23    23    24   ar
    24    24    25    1
    25    25    26   ar
    26    26    27    1
    27    26    28   ar
    28    28    29   ar
    29    29    30   ar
    30    30    31   ar
    31    31    32    1
    32    24    33   ar
    33    33     3   ar
    34    18     7   ar
    35    33    21   ar
    36    15    13    1
    37    31    25   ar
    38     1    34    1
    39     1    35    1
    40     1    36    1
    41     2    37    1
    42     2    38    1
    43     8    39    1
    44    12    40    1
    45    13    41    1
    46    14    42    1
    47    14    43    1
    48    15    44    1
    49    15    45    1
    50    16    46    1
    51    17    47    1
    52    19    48    1
    53    19    49    1
    54    19    50    1
    55    20    51    1
    56    28    52    1
    57    29    53    1
    58    30    54    1
