
     RDKit          3D

 31 30  0  0  0  0  0  0  0  0999 V2000
    0.0000    0.0000    0.0000 Mg  0  0  0  0  0 15  0  0  0  0  0  0
   -1.0492   -2.0772    0.2935 O   0  0  0  0  0  0  0  0  0  0  0  0
   -0.1716   -0.9960    0.0875 C   0  0  0  0  0  0  0  0  0  0  0  0
    1.1975   -1.1558    0.0236 C   0  0  0  0  0  0  0  0  0  0  0  0
    2.0151   -0.0568   -0.1811 C   0  0  0  0  0  0  0  0  0  0  0  0
    1.4911    1.2305   -0.3276 C   0  0  0  0  0  0  0  0  0  0  0  0
    0.1142    1.2936   -0.2498 C   0  0  0  0  0  0  0  0  0  0  0  0
   -0.7614    0.2453   -0.0485 C   0  0  0  0  0  0  0  0  0  0  0  0
   -2.1943    0.5208    0.0033 C   0  0  0  0  0  0  0  0  0  0  0  0
   -3.0910   -0.5159    0.2042 O   0  0  0  0  0  1  0  0  0  0  0  0
   -2.7115    1.6461   -0.1211 O   0  0  0  0  0  0  0  0  0  0  0  0
   -1.0492   -2.0772    0.2935 O   0  0  0  0  0  0  0  0  0  0  0  0
   -0.1716   -0.9960    0.0875 C   0  0  0  0  0  0  0  0  0  0  0  0
    1.1975   -1.1558    0.0236 C   0  0  0  0  0  0  0  0  0  0  0  0
    2.0151   -0.0568   -0.1811 C   0  0  0  0  0  0  0  0  0  0  0  0
    1.4911    1.2305   -0.3276 C   0  0  0  0  0  0  0  0  0  0  0  0
    0.1142    1.2936   -0.2498 C   0  0  0  0  0  0  0  0  0  0  0  0
   -0.7614    0.2453   -0.0485 C   0  0  0  0  0  0  0  0  0  0  0  0
   -2.1943    0.5208    0.0033 C   0  0  0  0  0  0  0  0  0  0  0  0
   -3.0910   -0.5159    0.2042 O   0  0  0  0  0  1  0  0  0  0  0  0
   -2.7115    1.6461   -0.1211 O   0  0  0  0  0  0  0  0  0  0  0  0
   -1.3208   -2.2196    1.2634 H   0  0  0  0  0  0  0  0  0  0  0  0
    1.6170   -2.1527    0.1362 H   0  0  0  0  0  0  0  0  0  0  0  0
    3.0900   -0.1551   -0.2350 H   0  0  0  0  0  0  0  0  0  0  0  0
    2.0871    2.0979   -0.4861 H   0  0  0  0  0  0  0  0  0  0  0  0
   -0.3122    2.2948   -0.3626 H   0  0  0  0  0  0  0  0  0  0  0  0
   -1.3208   -2.2196    1.2634 H   0  0  0  0  0  0  0  0  0  0  0  0
    1.6170   -2.1527    0.1362 H   0  0  0  0  0  0  0  0  0  0  0  0
    3.0900   -0.1551   -0.2350 H   0  0  0  0  0  0  0  0  0  0  0  0
    2.0871    2.0979   -0.4861 H   0  0  0  0  0  0  0  0  0  0  0  0
   -0.3122    2.2948   -0.3626 H   0  0  0  0  0  0  0  0  0  0  0  0
  2  3  1  0
  3  4  2  0
  4  5  1  0
  5  6  2  0
  6  7  1  0
  7  8  2  0
  8  9  1  0
  9 10  1  0
  9 11  2  0
 12 13  1  0
 13 14  2  0
 14 15  1  0
 15 16  2  0
 16 17  1  0
 17 18  2  0
 18 19  1  0
 19 20  1  0
 19 21  2  0
  8  3  1  0
 18 13  1  0
  2 22  1  0
  4 23  1  0
  5 24  1  0
  6 25  1  0
  7 26  1  0
 12 27  1  0
 14 28  1  0
 15 29  1  0
 16 30  1  0
 17 31  1  0
M  CHG  3   1   2  10  -1  20  -1
M  END
$$$$
