@<TRIPOS>MOLECULE
*****
 31 30 0 0 0
SMALL
GASTEIGER

@<TRIPOS>ATOM
      1 MG          0.0000    0.0000    0.0000 Mg      1  UNL1        0.0000
      2 O          -1.0492   -2.0772    0.2935 O.3     2  UNL2        0.0000
      3 C          -0.1716   -0.9960    0.0875 C.ar    2  UNL2        0.0000
      4 C           1.1975   -1.1558    0.0236 C.ar    2  UNL2        0.0000
      5 C           2.0151   -0.0568   -0.1811 C.ar    2  UNL2        0.0000
      6 C           1.4911    1.2305   -0.3276 C.ar    2  UNL2        0.0000
      7 C           0.1142    1.2936   -0.2498 C.ar    2  UNL2        0.0000
      8 C          -0.7614    0.2453   -0.0485 C.ar    2  UNL2        0.0000
      9 C          -2.1943    0.5208    0.0033 C.2     2  UNL2        0.0000
     10 O          -3.0910   -0.5159    0.2042 O.co2   2  UNL2       -0.5000
     11 O          -2.7115    1.6461   -0.1211 O.co2   2  UNL2       -0.5000
     12 O          -1.0492   -2.0772    0.2935 O.3     3  UNL3        0.0000
     13 C          -0.1716   -0.9960    0.0875 C.ar    3  UNL3        0.0000
     14 C           1.1975   -1.1558    0.0236 C.ar    3  UNL3        0.0000
     15 C           2.0151   -0.0568   -0.1811 C.ar    3  UNL3        0.0000
     16 C           1.4911    1.2305   -0.3276 C.ar    3  UNL3        0.0000
     17 C           0.1142    1.2936   -0.2498 C.ar    3  UNL3        0.0000
     18 C          -0.7614    0.2453   -0.0485 C.ar    3  UNL3        0.0000
     19 C          -2.1943    0.5208    0.0033 C.2     3  UNL3        0.0000
     20 O          -3.0910   -0.5159    0.2042 O.co2   3  UNL3       -0.5000
     21 O          -2.7115    1.6461   -0.1211 O.co2   3  UNL3       -0.5000
     22 H          -1.3208   -2.2196    1.2634 H       2  UNL2        0.0000
     23 H           1.6170   -2.1527    0.1362 H       2  UNL2        0.0000
     24 H           3.0900   -0.1551   -0.2350 H       2  UNL2        0.0000
     25 H           2.0871    2.0979   -0.4861 H       2  UNL2        0.0000
     26 H          -0.3122    2.2948   -0.3626 H       2  UNL2        0.0000
     27 H          -1.3208   -2.2196    1.2634 H       3  UNL3        0.0000
     28 H           1.6170   -2.1527    0.1362 H       3  UNL3        0.0000
     29 H           3.0900   -0.1551   -0.2350 H       3  UNL3        0.0000
     30 H           2.0871    2.0979   -0.4861 H       3  UNL3        0.0000
     31 H          -0.3122    2.2948   -0.3626 H       3  UNL3        0.0000
@<TRIPOS>UNITY_ATOM_ATTR
1 1
charge 2
10 1
charge -1
20 1
charge -1
@<TRIPOS>BOND
     1     2     3    1
     2     3     4   ar
     3     4     5   ar
     4     5     6   ar
     5     6     7   ar
     6     7     8   ar
     7     8     9    1
     8     9    10   ar
     9     9    11   ar
    10    12    13    1
    11    13    14   ar
    12    14    15   ar
    13    15    16   ar
    14    16    17   ar
    15    17    18   ar
    16    18    19    1
    17    19    20   ar
    18    19    21   ar
    19     8     3   ar
    20    18    13   ar
    21     2    22    1
    22     4    23    1
    23     5    24    1
    24     6    25    1
    25     7    26    1
    26    12    27    1
    27    14    28    1
    28    15    29    1
    29    16    30    1
    30    17    31    1
