@<TRIPOS>MOLECULE
*****
 64 67 0 0 0
SMALL
GASTEIGER

@<TRIPOS>ATOM
      1 C          -2.1237   -3.8985   -2.3550 C.3     1  UNL1       -0.0396
      2 C          -1.7436   -2.7329   -1.5463 C.ar    1  UNL1       -0.0484
      3 C          -0.3999   -2.4283   -1.3447 C.ar    1  UNL1       -0.0581
      4 C          -0.0302   -1.3198   -0.5999 C.ar    1  UNL1       -0.0502
      5 C          -1.0352   -0.5441   -0.0770 C.ar    1  UNL1        0.0292
      6 C          -1.0232    0.6071    0.6857 C.ar    1  UNL1        0.1201
      7 C           0.1478    1.3373    1.1874 C.ar    1  UNL1        0.1104
      8 C           0.0097    2.4416    1.9973 C.ar    1  UNL1        0.0575
      9 N           1.0395    3.1448    2.5029 N.ar    1  UNL1       -0.2338
     10 C           2.3039    2.7422    2.1972 C.ar    1  UNL1        0.1574
     11 N           3.5401    3.1728    2.5047 N.ar    1  UNL1       -0.3438
     12 C           4.4610    2.3858    1.9189 C.ar    1  UNL1        0.0178
     13 C           3.8074    1.3990    1.1974 C.ar    1  UNL1        0.0815
     14 C           4.3909    0.3418    0.3740 C.2     1  UNL1        0.2481
     15 O           3.7232   -0.3369   -0.4318 O.2     1  UNL1       -0.2701
     16 N           5.7914    0.0554    0.4792 N.am    1  UNL1       -0.3040
     17 C           6.4296   -0.9543   -0.3015 C.3     1  UNL1        0.0523
     18 C           5.8393   -2.3375   -0.1550 C.3     1  UNL1       -0.0418
     19 C           7.8748   -1.1101    0.2310 C.3     1  UNL1       -0.0418
     20 C           6.5786   -0.5568   -1.7368 C.3     1  UNL1        0.0649
     21 O           5.4081   -0.2934   -2.4086 O.3     1  UNL1       -0.3929
     22 C           2.4625    1.6407    1.3879 C.ar    1  UNL1        0.1202
     23 N           1.3985    0.9452    0.8886 N.ar    1  UNL1       -0.2397
     24 N          -2.3076    0.9250    0.8965 N.ar    1  UNL1       -0.1685
     25 N          -3.1301    0.0839    0.3399 N.ar    1  UNL1       -0.2630
     26 C          -4.6060    0.0466    0.3241 C.3     1  UNL1        0.0434
     27 C          -5.1213    0.7380   -0.9181 C.3     1  UNL1       -0.0205
     28 C          -6.6395    0.6878   -0.8911 C.3     1  UNL1       -0.0000
     29 N          -7.1807    1.3547    0.2191 N.3     1  UNL1       -0.3083
     30 C          -7.0459    2.7466    0.2998 C.3     1  UNL1       -0.0130
     31 C          -7.4926    0.5905    1.3516 C.3     1  UNL1       -0.0130
     32 C          -2.3816   -0.8452   -0.2754 C.ar    1  UNL1        0.0698
     33 C          -2.7362   -1.9527   -1.0183 C.ar    1  UNL1       -0.0331
     34 H          -2.4829   -3.5080   -3.3442 H       1  UNL1        0.0278
     35 H          -2.9719   -4.4607   -1.9356 H       1  UNL1        0.0278
     36 H          -1.2660   -4.5819   -2.4696 H       1  UNL1        0.0278
     37 H           0.3239   -3.0758   -1.7822 H       1  UNL1        0.0620
     38 H           0.9939   -1.0755   -0.4392 H       1  UNL1        0.0625
     39 H          -1.0190    2.7514    2.2238 H       1  UNL1        0.0853
     40 H           3.7639    4.0103    3.1176 H       1  UNL1        0.1668
     41 H           5.5393    2.4863    1.9847 H       1  UNL1        0.0816
     42 H           6.3952    0.6083    1.1584 H       1  UNL1        0.1496
     43 H           4.9004   -2.4499   -0.7327 H       1  UNL1        0.0251
     44 H           6.5719   -3.0499   -0.6156 H       1  UNL1        0.0251
     45 H           5.7426   -2.6068    0.8984 H       1  UNL1        0.0251
     46 H           8.5057   -1.6469   -0.5302 H       1  UNL1        0.0251
     47 H           7.8941   -1.7375    1.1443 H       1  UNL1        0.0251
     48 H           8.3296   -0.1101    0.3887 H       1  UNL1        0.0251
     49 H           7.1465    0.4234   -1.7259 H       1  UNL1        0.0578
     50 H           7.2290   -1.2525   -2.3090 H       1  UNL1        0.0578
     51 H           5.2109    0.6759   -2.5112 H       1  UNL1        0.2095
     52 H          -4.9331    0.5830    1.2584 H       1  UNL1        0.0509
     53 H          -4.9410   -1.0038    0.4019 H       1  UNL1        0.0509
     54 H          -4.7917    1.7661   -1.0215 H       1  UNL1        0.0295
     55 H          -4.7513    0.1497   -1.7846 H       1  UNL1        0.0295
     56 H          -6.9945    1.1221   -1.8509 H       1  UNL1        0.0427
     57 H          -6.9904   -0.3919   -0.8513 H       1  UNL1        0.0427
     58 H          -6.8825    3.1503    1.3363 H       1  UNL1        0.0391
     59 H          -6.1940    3.0928   -0.3547 H       1  UNL1        0.0391
     60 H          -7.9684    3.2110   -0.1489 H       1  UNL1        0.0391
     61 H          -7.1071   -0.4603    1.2119 H       1  UNL1        0.0391
     62 H          -8.6091    0.5383    1.5244 H       1  UNL1        0.0391
     63 H          -7.0889    0.9874    2.3128 H       1  UNL1        0.0391
     64 H          -3.7639   -2.2214   -1.1959 H       1  UNL1        0.0641
@<TRIPOS>BOND
     1     1     2    1
     2     2     3   ar
     3     3     4   ar
     4     4     5   ar
     5     5     6   ar
     6     6     7    1
     7     7     8   ar
     8     8     9   ar
     9     9    10   ar
    10    10    11   ar
    11    11    12   ar
    12    12    13   ar
    13    13    14    1
    14    14    15    2
    15    14    16   am
    16    16    17    1
    17    17    18    1
    18    17    19    1
    19    17    20    1
    20    20    21    1
    21    13    22   ar
    22    22    23   ar
    23     6    24   ar
    24    24    25   ar
    25    25    26    1
    26    26    27    1
    27    27    28    1
    28    28    29    1
    29    29    30    1
    30    29    31    1
    31    25    32   ar
    32    32    33   ar
    33    33     2   ar
    34    32     5   ar
    35    23     7   ar
    36    22    10   ar
    37     1    34    1
    38     1    35    1
    39     1    36    1
    40     3    37    1
    41     4    38    1
    42     8    39    1
    43    11    40    1
    44    12    41    1
    45    16    42    1
    46    18    43    1
    47    18    44    1
    48    18    45    1
    49    19    46    1
    50    19    47    1
    51    19    48    1
    52    20    49    1
    53    20    50    1
    54    21    51    1
    55    26    52    1
    56    26    53    1
    57    27    54    1
    58    27    55    1
    59    28    56    1
    60    28    57    1
    61    30    58    1
    62    30    59    1
    63    30    60    1
    64    31    61    1
    65    31    62    1
    66    31    63    1
    67    33    64    1
