
     RDKit          3D

 64 67  0  0  0  0  0  0  0  0999 V2000
   -2.1237   -3.8985   -2.3550 C   0  0  0  0  0  0  0  0  0  0  0  0
   -1.7436   -2.7329   -1.5463 C   0  0  0  0  0  0  0  0  0  0  0  0
   -0.3999   -2.4283   -1.3447 C   0  0  0  0  0  0  0  0  0  0  0  0
   -0.0302   -1.3198   -0.5999 C   0  0  0  0  0  0  0  0  0  0  0  0
   -1.0352   -0.5441   -0.0770 C   0  0  0  0  0  0  0  0  0  0  0  0
   -1.0232    0.6071    0.6857 C   0  0  0  0  0  0  0  0  0  0  0  0
    0.1478    1.3373    1.1874 C   0  0  0  0  0  0  0  0  0  0  0  0
    0.0097    2.4416    1.9973 C   0  0  0  0  0  0  0  0  0  0  0  0
    1.0395    3.1448    2.5029 N   0  0  0  0  0  0  0  0  0  0  0  0
    2.3039    2.7422    2.1972 C   0  0  0  0  0  0  0  0  0  0  0  0
    3.5401    3.1728    2.5047 N   0  0  0  0  0  0  0  0  0  0  0  0
    4.4610    2.3858    1.9189 C   0  0  0  0  0  0  0  0  0  0  0  0
    3.8074    1.3990    1.1974 C   0  0  0  0  0  0  0  0  0  0  0  0
    4.3909    0.3418    0.3740 C   0  0  0  0  0  0  0  0  0  0  0  0
    3.7232   -0.3369   -0.4318 O   0  0  0  0  0  0  0  0  0  0  0  0
    5.7914    0.0554    0.4792 N   0  0  0  0  0  0  0  0  0  0  0  0
    6.4296   -0.9543   -0.3015 C   0  0  0  0  0  0  0  0  0  0  0  0
    5.8393   -2.3375   -0.1550 C   0  0  0  0  0  0  0  0  0  0  0  0
    7.8748   -1.1101    0.2310 C   0  0  0  0  0  0  0  0  0  0  0  0
    6.5786   -0.5568   -1.7368 C   0  0  0  0  0  0  0  0  0  0  0  0
    5.4081   -0.2934   -2.4086 O   0  0  0  0  0  0  0  0  0  0  0  0
    2.4625    1.6407    1.3879 C   0  0  0  0  0  0  0  0  0  0  0  0
    1.3985    0.9452    0.8886 N   0  0  0  0  0  0  0  0  0  0  0  0
   -2.3076    0.9250    0.8965 N   0  0  0  0  0  0  0  0  0  0  0  0
   -3.1301    0.0839    0.3399 N   0  0  0  0  0  0  0  0  0  0  0  0
   -4.6060    0.0466    0.3241 C   0  0  0  0  0  0  0  0  0  0  0  0
   -5.1213    0.7380   -0.9181 C   0  0  0  0  0  0  0  0  0  0  0  0
   -6.6395    0.6878   -0.8911 C   0  0  0  0  0  0  0  0  0  0  0  0
   -7.1807    1.3547    0.2191 N   0  0  0  0  0  0  0  0  0  0  0  0
   -7.0459    2.7466    0.2998 C   0  0  0  0  0  0  0  0  0  0  0  0
   -7.4926    0.5905    1.3516 C   0  0  0  0  0  0  0  0  0  0  0  0
   -2.3816   -0.8452   -0.2754 C   0  0  0  0  0  0  0  0  0  0  0  0
   -2.7362   -1.9527   -1.0183 C   0  0  0  0  0  0  0  0  0  0  0  0
   -2.4829   -3.5080   -3.3442 H   0  0  0  0  0  0  0  0  0  0  0  0
   -2.9719   -4.4607   -1.9356 H   0  0  0  0  0  0  0  0  0  0  0  0
   -1.2660   -4.5819   -2.4696 H   0  0  0  0  0  0  0  0  0  0  0  0
    0.3239   -3.0758   -1.7822 H   0  0  0  0  0  0  0  0  0  0  0  0
    0.9939   -1.0755   -0.4392 H   0  0  0  0  0  0  0  0  0  0  0  0
   -1.0190    2.7514    2.2238 H   0  0  0  0  0  0  0  0  0  0  0  0
    3.7639    4.0103    3.1176 H   0  0  0  0  0  0  0  0  0  0  0  0
    5.5393    2.4863    1.9847 H   0  0  0  0  0  0  0  0  0  0  0  0
    6.3952    0.6083    1.1584 H   0  0  0  0  0  0  0  0  0  0  0  0
    4.9004   -2.4499   -0.7327 H   0  0  0  0  0  0  0  0  0  0  0  0
    6.5719   -3.0499   -0.6156 H   0  0  0  0  0  0  0  0  0  0  0  0
    5.7426   -2.6068    0.8984 H   0  0  0  0  0  0  0  0  0  0  0  0
    8.5057   -1.6469   -0.5302 H   0  0  0  0  0  0  0  0  0  0  0  0
    7.8941   -1.7375    1.1443 H   0  0  0  0  0  0  0  0  0  0  0  0
    8.3296   -0.1101    0.3887 H   0  0  0  0  0  0  0  0  0  0  0  0
    7.1465    0.4234   -1.7259 H   0  0  0  0  0  0  0  0  0  0  0  0
    7.2290   -1.2525   -2.3090 H   0  0  0  0  0  0  0  0  0  0  0  0
    5.2109    0.6759   -2.5112 H   0  0  0  0  0  0  0  0  0  0  0  0
   -4.9331    0.5830    1.2584 H   0  0  0  0  0  0  0  0  0  0  0  0
   -4.9410   -1.0038    0.4019 H   0  0  0  0  0  0  0  0  0  0  0  0
   -4.7917    1.7661   -1.0215 H   0  0  0  0  0  0  0  0  0  0  0  0
   -4.7513    0.1497   -1.7846 H   0  0  0  0  0  0  0  0  0  0  0  0
   -6.9945    1.1221   -1.8509 H   0  0  0  0  0  0  0  0  0  0  0  0
   -6.9904   -0.3919   -0.8513 H   0  0  0  0  0  0  0  0  0  0  0  0
   -6.8825    3.1503    1.3363 H   0  0  0  0  0  0  0  0  0  0  0  0
   -6.1940    3.0928   -0.3547 H   0  0  0  0  0  0  0  0  0  0  0  0
   -7.9684    3.2110   -0.1489 H   0  0  0  0  0  0  0  0  0  0  0  0
   -7.1071   -0.4603    1.2119 H   0  0  0  0  0  0  0  0  0  0  0  0
   -8.6091    0.5383    1.5244 H   0  0  0  0  0  0  0  0  0  0  0  0
   -7.0889    0.9874    2.3128 H   0  0  0  0  0  0  0  0  0  0  0  0
   -3.7639   -2.2214   -1.1959 H   0  0  0  0  0  0  0  0  0  0  0  0
  1  2  1  0
  2  3  2  0
  3  4  1  0
  4  5  2  0
  5  6  1  0
  6  7  1  0
  7  8  2  0
  8  9  1  0
  9 10  2  0
 10 11  1  0
 11 12  1  0
 12 13  2  0
 13 14  1  0
 14 15  2  0
 14 16  1  0
 16 17  1  0
 17 18  1  0
 17 19  1  0
 17 20  1  0
 20 21  1  0
 13 22  1  0
 22 23  2  0
  6 24  2  0
 24 25  1  0
 25 26  1  0
 26 27  1  0
 27 28  1  0
 28 29  1  0
 29 30  1  0
 29 31  1  0
 25 32  1  0
 32 33  2  0
 33  2  1  0
 32  5  1  0
 23  7  1  0
 22 10  1  0
  1 34  1  0
  1 35  1  0
  1 36  1  0
  3 37  1  0
  4 38  1  0
  8 39  1  0
 11 40  1  0
 12 41  1  0
 16 42  1  0
 18 43  1  0
 18 44  1  0
 18 45  1  0
 19 46  1  0
 19 47  1  0
 19 48  1  0
 20 49  1  0
 20 50  1  0
 21 51  1  0
 26 52  1  0
 26 53  1  0
 27 54  1  0
 27 55  1  0
 28 56  1  0
 28 57  1  0
 30 58  1  0
 30 59  1  0
 30 60  1  0
 31 61  1  0
 31 62  1  0
 31 63  1  0
 33 64  1  0
M  END
$$$$
