@<TRIPOS>MOLECULE
*****
 39 41 0 0 0
SMALL
GASTEIGER

@<TRIPOS>ATOM
      1 N          -3.5577    2.0484   -1.9835 N.am    1  UNL1       -0.3253
      2 C          -2.9946    1.3353   -0.8937 C.2     1  UNL1        0.2433
      3 O          -1.8506    1.5933   -1.2951 O.2     1  UNL1       -0.2704
      4 C          -3.7727    0.6665    0.1345 C.ar    1  UNL1        0.0576
      5 C          -5.1381    0.8030    0.0291 C.ar    1  UNL1       -0.0478
      6 C          -5.8753    0.1974    1.0114 C.ar    1  UNL1       -0.0609
      7 C          -5.2757   -0.4996    2.0323 C.ar    1  UNL1       -0.0600
      8 C          -3.8993   -0.6207    2.1124 C.ar    1  UNL1       -0.0398
      9 C          -3.1230   -0.0190    1.1323 C.ar    1  UNL1        0.0446
     10 N          -1.7197   -0.1662    1.2525 N.pl3   1  UNL1       -0.2987
     11 C          -0.7628   -0.7836    0.4090 C.ar    1  UNL1        0.1280
     12 N           0.5472   -0.7437    0.7318 N.ar    1  UNL1       -0.1992
     13 C           1.4662   -1.3362   -0.0510 C.ar    1  UNL1        0.2212
     14 N           2.8303   -1.2589    0.3418 N.pl3   1  UNL1       -0.2835
     15 C           3.8960   -0.3620    0.0773 C.ar    1  UNL1        0.0370
     16 C           5.1086   -0.6379    0.6767 C.ar    1  UNL1        0.0011
     17 C           6.1202    0.2634    0.3874 C.ar    1  UNL1        0.1186
     18 O           7.3749    0.0606    0.9493 O.3     1  UNL1       -0.5067
     19 C           5.9523    1.3585   -0.4327 C.ar    1  UNL1       -0.0201
     20 C           4.7204    1.5672   -0.9917 C.ar    1  UNL1       -0.0566
     21 C           3.6418    0.7086   -0.7547 C.ar    1  UNL1       -0.0402
     22 N           1.1287   -1.9972   -1.1932 N.ar    1  UNL1       -0.2225
     23 C          -0.1675   -2.0837   -1.5896 C.ar    1  UNL1        0.0344
     24 C          -1.0632   -1.4598   -0.7508 C.ar    1  UNL1       -0.0033
     25 H          -3.8451    3.0711   -1.9799 H       1  UNL1        0.1453
     26 H          -3.7999    1.7584   -2.9576 H       1  UNL1        0.1453
     27 H          -5.6015    1.3549   -0.7788 H       1  UNL1        0.0626
     28 H          -6.9530    0.2408    1.0266 H       1  UNL1        0.0618
     29 H          -5.8855   -0.9759    2.8078 H       1  UNL1        0.0618
     30 H          -3.4593   -1.1714    2.9220 H       1  UNL1        0.0636
     31 H          -1.4088    0.2819    2.1395 H       1  UNL1        0.1536
     32 H           2.9047   -2.1071    0.9458 H       1  UNL1        0.1550
     33 H           5.2531   -1.4937    1.3219 H       1  UNL1        0.0673
     34 H           7.6923   -0.8683    1.2667 H       1  UNL1        0.2921
     35 H           6.8003    2.0338   -0.6189 H       1  UNL1        0.0654
     36 H           4.6372    2.4484   -1.6342 H       1  UNL1        0.0619
     37 H           2.6939    0.9023   -1.2077 H       1  UNL1        0.0636
     38 H          -0.4958   -2.5931   -2.4839 H       1  UNL1        0.0832
     39 H          -2.1191   -1.5155   -1.0490 H       1  UNL1        0.0667
@<TRIPOS>BOND
     1     1     2   am
     2     2     3    2
     3     2     4    1
     4     4     5   ar
     5     5     6   ar
     6     6     7   ar
     7     7     8   ar
     8     8     9   ar
     9     9    10    1
    10    10    11    1
    11    11    12   ar
    12    12    13   ar
    13    13    14    1
    14    14    15    1
    15    15    16   ar
    16    16    17   ar
    17    17    18    1
    18    17    19   ar
    19    19    20   ar
    20    20    21   ar
    21    13    22   ar
    22    22    23   ar
    23    23    24   ar
    24     9     4   ar
    25    24    11   ar
    26    21    15   ar
    27     1    25    1
    28     1    26    1
    29     5    27    1
    30     6    28    1
    31     7    29    1
    32     8    30    1
    33    10    31    1
    34    14    32    1
    35    16    33    1
    36    18    34    1
    37    19    35    1
    38    20    36    1
    39    21    37    1
    40    23    38    1
    41    24    39    1
