
     RDKit          3D

 39 41  0  0  0  0  0  0  0  0999 V2000
   -3.5577    2.0484   -1.9835 N   0  0  0  0  0  0  0  0  0  0  0  0
   -2.9946    1.3353   -0.8937 C   0  0  0  0  0  0  0  0  0  0  0  0
   -1.8506    1.5933   -1.2951 O   0  0  0  0  0  0  0  0  0  0  0  0
   -3.7727    0.6665    0.1345 C   0  0  0  0  0  0  0  0  0  0  0  0
   -5.1381    0.8030    0.0291 C   0  0  0  0  0  0  0  0  0  0  0  0
   -5.8753    0.1974    1.0114 C   0  0  0  0  0  0  0  0  0  0  0  0
   -5.2757   -0.4996    2.0323 C   0  0  0  0  0  0  0  0  0  0  0  0
   -3.8993   -0.6207    2.1124 C   0  0  0  0  0  0  0  0  0  0  0  0
   -3.1230   -0.0190    1.1323 C   0  0  0  0  0  0  0  0  0  0  0  0
   -1.7197   -0.1662    1.2525 N   0  0  0  0  0  0  0  0  0  0  0  0
   -0.7628   -0.7836    0.4090 C   0  0  0  0  0  0  0  0  0  0  0  0
    0.5472   -0.7437    0.7318 N   0  0  0  0  0  0  0  0  0  0  0  0
    1.4662   -1.3362   -0.0510 C   0  0  0  0  0  0  0  0  0  0  0  0
    2.8303   -1.2589    0.3418 N   0  0  0  0  0  0  0  0  0  0  0  0
    3.8960   -0.3620    0.0773 C   0  0  0  0  0  0  0  0  0  0  0  0
    5.1086   -0.6379    0.6767 C   0  0  0  0  0  0  0  0  0  0  0  0
    6.1202    0.2634    0.3874 C   0  0  0  0  0  0  0  0  0  0  0  0
    7.3749    0.0606    0.9493 O   0  0  0  0  0  0  0  0  0  0  0  0
    5.9523    1.3585   -0.4327 C   0  0  0  0  0  0  0  0  0  0  0  0
    4.7204    1.5672   -0.9917 C   0  0  0  0  0  0  0  0  0  0  0  0
    3.6418    0.7086   -0.7547 C   0  0  0  0  0  0  0  0  0  0  0  0
    1.1287   -1.9972   -1.1932 N   0  0  0  0  0  0  0  0  0  0  0  0
   -0.1675   -2.0837   -1.5896 C   0  0  0  0  0  0  0  0  0  0  0  0
   -1.0632   -1.4598   -0.7508 C   0  0  0  0  0  0  0  0  0  0  0  0
   -3.8451    3.0711   -1.9799 H   0  0  0  0  0  0  0  0  0  0  0  0
   -3.7999    1.7584   -2.9576 H   0  0  0  0  0  0  0  0  0  0  0  0
   -5.6015    1.3549   -0.7788 H   0  0  0  0  0  0  0  0  0  0  0  0
   -6.9530    0.2408    1.0266 H   0  0  0  0  0  0  0  0  0  0  0  0
   -5.8855   -0.9759    2.8078 H   0  0  0  0  0  0  0  0  0  0  0  0
   -3.4593   -1.1714    2.9220 H   0  0  0  0  0  0  0  0  0  0  0  0
   -1.4088    0.2819    2.1395 H   0  0  0  0  0  0  0  0  0  0  0  0
    2.9047   -2.1071    0.9458 H   0  0  0  0  0  0  0  0  0  0  0  0
    5.2531   -1.4937    1.3219 H   0  0  0  0  0  0  0  0  0  0  0  0
    7.6923   -0.8683    1.2667 H   0  0  0  0  0  0  0  0  0  0  0  0
    6.8003    2.0338   -0.6189 H   0  0  0  0  0  0  0  0  0  0  0  0
    4.6372    2.4484   -1.6342 H   0  0  0  0  0  0  0  0  0  0  0  0
    2.6939    0.9023   -1.2077 H   0  0  0  0  0  0  0  0  0  0  0  0
   -0.4958   -2.5931   -2.4839 H   0  0  0  0  0  0  0  0  0  0  0  0
   -2.1191   -1.5155   -1.0490 H   0  0  0  0  0  0  0  0  0  0  0  0
  1  2  1  0
  2  3  2  0
  2  4  1  0
  4  5  2  0
  5  6  1  0
  6  7  2  0
  7  8  1  0
  8  9  2  0
  9 10  1  0
 10 11  1  0
 11 12  2  0
 12 13  1  0
 13 14  1  0
 14 15  1  0
 15 16  2  0
 16 17  1  0
 17 18  1  0
 17 19  2  0
 19 20  1  0
 20 21  2  0
 13 22  2  0
 22 23  1  0
 23 24  2  0
  9  4  1  0
 24 11  1  0
 21 15  1  0
  1 25  1  0
  1 26  1  0
  5 27  1  0
  6 28  1  0
  7 29  1  0
  8 30  1  0
 10 31  1  0
 14 32  1  0
 16 33  1  0
 18 34  1  0
 19 35  1  0
 20 36  1  0
 21 37  1  0
 23 38  1  0
 24 39  1  0
M  END
$$$$
