@<TRIPOS>MOLECULE
*****
 48 50 0 0 0
SMALL
GASTEIGER

@<TRIPOS>ATOM
      1 C           4.7047    1.5759   -0.5712 C.3     1  UNL1       -0.0130
      2 N           4.5454    0.2034   -0.2964 N.3     1  UNL1       -0.3083
      3 C           5.7870   -0.3688    0.1715 C.3     1  UNL1       -0.0130
      4 C           3.4791   -0.1811    0.5492 C.3     1  UNL1       -0.0003
      5 C           2.1070    0.0045   -0.0584 C.3     1  UNL1       -0.0240
      6 C           1.0819   -0.4291    0.9597 C.3     1  UNL1        0.0184
      7 N          -0.2836   -0.3019    0.4910 N.pl3   1  UNL1       -0.2995
      8 C          -0.8464    1.0027    0.4132 C.ar    1  UNL1        0.0380
      9 C          -0.2195    2.1615    0.7783 C.ar    1  UNL1       -0.0401
     10 C          -0.8591    3.3777    0.6627 C.ar    1  UNL1       -0.0600
     11 C          -2.1534    3.4969    0.1793 C.ar    1  UNL1       -0.0614
     12 C          -2.7832    2.3039   -0.1895 C.ar    1  UNL1       -0.0560
     13 C          -2.1253    1.0780   -0.0685 C.ar    1  UNL1       -0.0160
     14 C          -3.0038   -0.0258   -0.5109 C.3     1  UNL1        0.0186
     15 C          -3.4441    0.1370   -1.9502 C.3     1  UNL1       -0.0516
     16 C          -4.2674    0.0207    0.3418 C.3     1  UNL1       -0.0516
     17 C          -2.3205   -1.3316   -0.3931 C.ar    1  UNL1       -0.0160
     18 C          -3.0388   -2.4646   -0.7962 C.ar    1  UNL1       -0.0560
     19 C          -2.4724   -3.7377   -0.7227 C.ar    1  UNL1       -0.0614
     20 C          -1.1695   -3.8772   -0.2408 C.ar    1  UNL1       -0.0600
     21 C          -0.5257   -2.7219    0.1352 C.ar    1  UNL1       -0.0401
     22 C          -1.0327   -1.4424    0.0858 C.ar    1  UNL1        0.0380
     23 H           5.5284    2.0370    0.0543 H       1  UNL1        0.0391
     24 H           5.0096    1.7429   -1.6272 H       1  UNL1        0.0391
     25 H           3.8299    2.2219   -0.3773 H       1  UNL1        0.0391
     26 H           6.5913   -0.0640   -0.5367 H       1  UNL1        0.0391
     27 H           5.7319   -1.4928    0.2057 H       1  UNL1        0.0391
     28 H           6.0743   -0.0528    1.1933 H       1  UNL1        0.0391
     29 H           3.6242   -1.2861    0.7550 H       1  UNL1        0.0427
     30 H           3.5714    0.3017    1.5433 H       1  UNL1        0.0427
     31 H           2.0710   -0.6901   -0.9590 H       1  UNL1        0.0293
     32 H           1.9476    0.9956   -0.4910 H       1  UNL1        0.0293
     33 H           1.3527   -1.4237    1.3470 H       1  UNL1        0.0468
     34 H           1.2234    0.2312    1.8862 H       1  UNL1        0.0468
     35 H           0.7619    2.1099    1.1646 H       1  UNL1        0.0636
     36 H          -0.3366    4.2792    0.9578 H       1  UNL1        0.0618
     37 H          -2.5997    4.4691    0.1136 H       1  UNL1        0.0618
     38 H          -3.7881    2.4722   -0.5564 H       1  UNL1        0.0621
     39 H          -4.0649   -0.7435   -2.2202 H       1  UNL1        0.0241
     40 H          -2.5506    0.1443   -2.6061 H       1  UNL1        0.0241
     41 H          -4.0464    1.0681   -2.0523 H       1  UNL1        0.0241
     42 H          -5.0179    0.6306   -0.1985 H       1  UNL1        0.0241
     43 H          -4.7193   -0.9569    0.4861 H       1  UNL1        0.0241
     44 H          -4.0441    0.4308    1.3518 H       1  UNL1        0.0241
     45 H          -4.0343   -2.4845   -1.1779 H       1  UNL1        0.0621
     46 H          -3.0011   -4.6419   -1.0247 H       1  UNL1        0.0618
     47 H          -0.7482   -4.8620   -0.1902 H       1  UNL1        0.0618
     48 H           0.4738   -2.9165    0.4933 H       1  UNL1        0.0636
@<TRIPOS>BOND
     1     1     2    1
     2     2     3    1
     3     2     4    1
     4     4     5    1
     5     5     6    1
     6     6     7    1
     7     7     8    1
     8     8     9   ar
     9     9    10   ar
    10    10    11   ar
    11    11    12   ar
    12    12    13   ar
    13    13    14    1
    14    14    15    1
    15    14    16    1
    16    14    17    1
    17    17    18   ar
    18    18    19   ar
    19    19    20   ar
    20    20    21   ar
    21    21    22   ar
    22    22     7    1
    23    13     8   ar
    24    22    17   ar
    25     1    23    1
    26     1    24    1
    27     1    25    1
    28     3    26    1
    29     3    27    1
    30     3    28    1
    31     4    29    1
    32     4    30    1
    33     5    31    1
    34     5    32    1
    35     6    33    1
    36     6    34    1
    37     9    35    1
    38    10    36    1
    39    11    37    1
    40    12    38    1
    41    15    39    1
    42    15    40    1
    43    15    41    1
    44    16    42    1
    45    16    43    1
    46    16    44    1
    47    18    45    1
    48    19    46    1
    49    20    47    1
    50    21    48    1
