
     RDKit          3D

 49 53  0  0  0  0  0  0  0  0999 V2000
   -7.1165   -0.3277   -0.8020 C   0  0  0  0  0  0  0  0  0  0  0  0
   -5.6766   -0.2900   -0.5958 N   0  0  0  0  0  0  0  0  0  0  0  0
   -4.7939   -1.2427   -0.7461 N   0  0  0  0  0  0  0  0  0  0  0  0
   -3.5401   -0.8192   -0.4771 C   0  0  0  0  0  0  0  0  0  0  0  0
   -2.3671   -1.6744   -0.5149 C   0  0  0  0  0  0  0  0  0  0  0  0
   -2.5976   -3.0644   -0.5907 C   0  0  0  0  0  0  0  0  0  0  0  0
   -1.5881   -3.9204   -0.5816 N   0  0  0  0  0  0  0  0  0  0  0  0
   -0.3306   -3.4260   -0.4979 C   0  0  0  0  0  0  0  0  0  0  0  0
    0.8159   -4.1054   -0.4979 N   0  0  0  0  0  0  0  0  0  0  0  0
    1.8002   -3.2265   -0.4319 C   0  0  0  0  0  0  0  0  0  0  0  0
    1.2504   -1.9271   -0.3878 C   0  0  0  0  0  0  0  0  0  0  0  0
    2.1661   -0.7801   -0.3710 C   0  0  0  0  0  0  0  0  0  0  0  0
    2.3232   -0.1044   -1.4258 O   0  0  0  0  0  0  0  0  0  0  0  0
    2.9026   -0.4007    0.7746 N   0  0  0  0  0  0  0  0  0  0  0  0
    3.8858    0.6607    0.8468 C   0  0  2  0  0  0  0  0  0  0  0  0
    4.3344    0.8714    2.2827 C   0  0  0  0  0  0  0  0  0  0  0  0
    3.7770    1.8557    0.0149 C   0  0  0  0  0  0  0  0  0  0  0  0
    5.0063    1.4470   -0.7824 C   0  0  1  0  0  0  0  0  0  0  0  0
    6.1467    2.3018   -0.7034 N   0  0  0  0  0  0  0  0  0  0  0  0
    5.1645    0.2387    0.0663 C   0  0  0  0  0  0  0  0  0  0  0  0
   -0.0827   -2.0720   -0.4252 C   0  0  0  0  0  0  0  0  0  0  0  0
   -1.1082   -1.2032   -0.4334 N   0  0  0  0  0  0  0  0  0  0  0  0
   -3.6740    0.4819   -0.1399 C   0  0  0  0  0  0  0  0  0  0  0  0
   -2.7203    1.3990    0.2519 C   0  0  0  0  0  0  0  0  0  0  0  0
   -3.1208    2.6682    0.5746 C   0  0  0  0  0  0  0  0  0  0  0  0
   -4.4612    2.9971    0.4996 C   0  0  0  0  0  0  0  0  0  0  0  0
   -4.9035    4.2434    0.8132 F   0  0  0  0  0  0  0  0  0  0  0  0
   -5.4198    2.0853    0.1075 C   0  0  0  0  0  0  0  0  0  0  0  0
   -5.0089    0.8104   -0.2137 C   0  0  0  0  0  0  0  0  0  0  0  0
   -7.3844    0.6481   -1.2733 H   0  0  0  0  0  0  0  0  0  0  0  0
   -7.6722   -0.4914    0.1286 H   0  0  0  0  0  0  0  0  0  0  0  0
   -7.4128   -1.1156   -1.5397 H   0  0  0  0  0  0  0  0  0  0  0  0
   -3.6292   -3.4036   -0.6624 H   0  0  0  0  0  0  0  0  0  0  0  0
    0.9628   -5.1574   -0.5386 H   0  0  0  0  0  0  0  0  0  0  0  0
    2.8911   -3.4157   -0.4083 H   0  0  0  0  0  0  0  0  0  0  0  0
    2.6866   -0.9854    1.6402 H   0  0  0  0  0  0  0  0  0  0  0  0
    3.9785    0.0193    2.8898 H   0  0  0  0  0  0  0  0  0  0  0  0
    5.4475    0.8582    2.3910 H   0  0  0  0  0  0  0  0  0  0  0  0
    3.9015    1.8067    2.7013 H   0  0  0  0  0  0  0  0  0  0  0  0
    2.8724    2.0096   -0.6221 H   0  0  0  0  0  0  0  0  0  0  0  0
    4.0649    2.8168    0.5527 H   0  0  0  0  0  0  0  0  0  0  0  0
    4.7458    1.2758   -1.8464 H   0  0  0  0  0  0  0  0  0  0  0  0
    5.9598    3.3113   -0.6165 H   0  0  0  0  0  0  0  0  0  0  0  0
    6.9610    1.9646   -0.1906 H   0  0  0  0  0  0  0  0  0  0  0  0
    6.0765    0.1875    0.6907 H   0  0  0  0  0  0  0  0  0  0  0  0
    5.0459   -0.7546   -0.4246 H   0  0  0  0  0  0  0  0  0  0  0  0
   -1.6692    1.1748    0.3221 H   0  0  0  0  0  0  0  0  0  0  0  0
   -2.4227    3.4257    0.8895 H   0  0  0  0  0  0  0  0  0  0  0  0
   -6.4671    2.3489    0.0557 H   0  0  0  0  0  0  0  0  0  0  0  0
  1  2  1  0
  2  3  1  0
  3  4  2  0
  4  5  1  0
  5  6  2  0
  6  7  1  0
  7  8  2  0
  8  9  1  0
  9 10  1  0
 10 11  2  0
 11 12  1  0
 12 13  2  0
 12 14  1  0
 15 14  1  1
 15 16  1  0
 15 17  1  0
 17 18  1  0
 18 19  1  0
 18 20  1  0
 11 21  1  0
 21 22  2  0
  4 23  1  0
 23 24  2  0
 24 25  1  0
 25 26  2  0
 26 27  1  0
 26 28  1  0
 28 29  2  0
 29  2  1  0
 22  5  1  0
 29 23  1  0
 21  8  1  0
 20 15  1  0
  1 30  1  0
  1 31  1  0
  1 32  1  0
  6 33  1  0
  9 34  1  0
 10 35  1  0
 14 36  1  0
 16 37  1  0
 16 38  1  0
 16 39  1  0
 17 40  1  0
 17 41  1  0
 18 42  1  6
 19 43  1  0
 19 44  1  0
 20 45  1  0
 20 46  1  0
 24 47  1  0
 25 48  1  0
 28 49  1  0
M  END
$$$$
