@<TRIPOS>MOLECULE
*****
 49 53 0 0 0
SMALL
GASTEIGER

@<TRIPOS>ATOM
      1 C          -7.1165   -0.3277   -0.8020 C.3     1  UNL1        0.0309
      2 N          -5.6766   -0.2900   -0.5958 N.ar    1  UNL1       -0.2660
      3 N          -4.7939   -1.2427   -0.7461 N.ar    1  UNL1       -0.1687
      4 C          -3.5401   -0.8192   -0.4771 C.ar    1  UNL1        0.1201
      5 C          -2.3671   -1.6744   -0.5149 C.ar    1  UNL1        0.1104
      6 C          -2.5976   -3.0644   -0.5907 C.ar    1  UNL1        0.0575
      7 N          -1.5881   -3.9204   -0.5816 N.ar    1  UNL1       -0.2338
      8 C          -0.3306   -3.4260   -0.4979 C.ar    1  UNL1        0.1574
      9 N           0.8159   -4.1054   -0.4979 N.ar    1  UNL1       -0.3438
     10 C           1.8002   -3.2265   -0.4319 C.ar    1  UNL1        0.0178
     11 C           1.2504   -1.9271   -0.3878 C.ar    1  UNL1        0.0815
     12 C           2.1661   -0.7801   -0.3710 C.2     1  UNL1        0.2481
     13 O           2.3232   -0.1044   -1.4258 O.2     1  UNL1       -0.2701
     14 N           2.9026   -0.4007    0.7746 N.am    1  UNL1       -0.3059
     15 C           3.8858    0.6607    0.8468 C.3     1  UNL1        0.0349
     16 C           4.3344    0.8714    2.2827 C.3     1  UNL1       -0.0436
     17 C           3.7770    1.8557    0.0149 C.3     1  UNL1       -0.0165
     18 C           5.0063    1.4470   -0.7824 C.3     1  UNL1        0.0087
     19 N           6.1467    2.3018   -0.7034 N.3     1  UNL1       -0.3271
     20 C           5.1645    0.2387    0.0663 C.3     1  UNL1       -0.0165
     21 C          -0.0827   -2.0720   -0.4252 C.ar    1  UNL1        0.1202
     22 N          -1.1082   -1.2032   -0.4334 N.ar    1  UNL1       -0.2397
     23 C          -3.6740    0.4819   -0.1399 C.ar    1  UNL1        0.0293
     24 C          -2.7203    1.3990    0.2519 C.ar    1  UNL1       -0.0477
     25 C          -3.1208    2.6682    0.5746 C.ar    1  UNL1       -0.0257
     26 C          -4.4612    2.9971    0.4996 C.ar    1  UNL1        0.1254
     27 F          -4.9035    4.2434    0.8132 F       1  UNL1       -0.2054
     28 C          -5.4198    2.0853    0.1075 C.ar    1  UNL1       -0.0008
     29 C          -5.0089    0.8104   -0.2137 C.ar    1  UNL1        0.0720
     30 H          -7.3844    0.6481   -1.2733 H       1  UNL1        0.0473
     31 H          -7.6722   -0.4914    0.1286 H       1  UNL1        0.0473
     32 H          -7.4128   -1.1156   -1.5397 H       1  UNL1        0.0473
     33 H          -3.6292   -3.4036   -0.6624 H       1  UNL1        0.0853
     34 H           0.9628   -5.1574   -0.5386 H       1  UNL1        0.1668
     35 H           2.8911   -3.4157   -0.4083 H       1  UNL1        0.0816
     36 H           2.6866   -0.9854    1.6402 H       1  UNL1        0.1495
     37 H           3.9785    0.0193    2.8898 H       1  UNL1        0.0250
     38 H           5.4475    0.8582    2.3910 H       1  UNL1        0.0250
     39 H           3.9015    1.8067    2.7013 H       1  UNL1        0.0250
     40 H           2.8724    2.0096   -0.6221 H       1  UNL1        0.0301
     41 H           4.0649    2.8168    0.5527 H       1  UNL1        0.0301
     42 H           4.7458    1.2758   -1.8464 H       1  UNL1        0.0459
     43 H           5.9598    3.3113   -0.6165 H       1  UNL1        0.1185
     44 H           6.9610    1.9646   -0.1906 H       1  UNL1        0.1185
     45 H           6.0765    0.1875    0.6907 H       1  UNL1        0.0301
     46 H           5.0459   -0.7546   -0.4246 H       1  UNL1        0.0301
     47 H          -1.6692    1.1748    0.3221 H       1  UNL1        0.0626
     48 H          -2.4227    3.4257    0.8895 H       1  UNL1        0.0646
     49 H          -6.4671    2.3489    0.0557 H       1  UNL1        0.0667
@<TRIPOS>BOND
     1     1     2    1
     2     2     3   ar
     3     3     4   ar
     4     4     5    1
     5     5     6   ar
     6     6     7   ar
     7     7     8   ar
     8     8     9   ar
     9     9    10   ar
    10    10    11   ar
    11    11    12    1
    12    12    13    2
    13    12    14   am
    14    15    14    1
    15    15    16    1
    16    15    17    1
    17    17    18    1
    18    18    19    1
    19    18    20    1
    20    11    21   ar
    21    21    22   ar
    22     4    23   ar
    23    23    24   ar
    24    24    25   ar
    25    25    26   ar
    26    26    27    1
    27    26    28   ar
    28    28    29   ar
    29    29     2   ar
    30    22     5   ar
    31    29    23   ar
    32    21     8   ar
    33    20    15    1
    34     1    30    1
    35     1    31    1
    36     1    32    1
    37     6    33    1
    38     9    34    1
    39    10    35    1
    40    14    36    1
    41    16    37    1
    42    16    38    1
    43    16    39    1
    44    17    40    1
    45    17    41    1
    46    18    42    1
    47    19    43    1
    48    19    44    1
    49    20    45    1
    50    20    46    1
    51    24    47    1
    52    25    48    1
    53    28    49    1
