
     RDKit          3D

 44 47  0  0  0  0  0  0  0  0999 V2000
    7.2246    0.5892   -1.6169 C   0  0  0  0  0  0  0  0  0  0  0  0
    6.4922   -0.1085   -0.5902 O   0  0  0  0  0  0  0  0  0  0  0  0
    5.1624    0.1968   -0.3783 C   0  0  0  0  0  0  0  0  0  0  0  0
    4.4429   -0.4482    0.5947 C   0  0  0  0  0  0  0  0  0  0  0  0
    3.0945   -0.1506    0.8228 C   0  0  0  0  0  0  0  0  0  0  0  0
    2.4450    0.7996    0.0774 C   0  0  0  0  0  0  0  0  0  0  0  0
    1.0351    1.0957    0.3427 C   0  0  0  0  0  0  0  0  0  0  0  0
    0.0796    0.3020   -0.3563 N   0  0  0  0  0  0  0  0  0  0  0  0
   -0.0992   -1.0614    0.0012 C   0  0  0  0  0  0  0  0  0  0  0  0
    0.6895   -2.1317   -0.1934 N   0  0  0  0  0  0  0  0  0  0  0  0
    0.1280   -3.2465    0.2962 N   0  0  0  0  0  0  0  0  0  0  0  0
   -1.0678   -2.9389    0.8353 C   0  0  0  0  0  0  0  0  0  0  0  0
   -2.0601   -3.5993    1.4455 N   0  0  0  0  0  0  0  0  0  0  0  0
   -3.1668   -2.9764    1.8712 C   0  0  0  0  0  0  0  0  0  0  0  0
   -3.3353   -1.6552    1.7059 N   0  0  0  0  0  0  0  0  0  0  0  0
   -2.3722   -0.9269    1.0985 C   0  0  0  0  0  0  0  0  0  0  0  0
   -2.4924    0.4574    0.8562 N   0  0  0  0  0  0  0  0  0  0  0  0
   -3.7500    0.9495    0.3749 C   0  0  0  0  0  0  0  0  0  0  0  0
   -4.0176    2.3093    0.3342 C   0  0  0  0  0  0  0  0  0  0  0  0
   -5.2066    2.8129   -0.1444 C   0  0  0  0  0  0  0  0  0  0  0  0
   -6.1796    1.9553   -0.6037 C   0  0  0  0  0  0  0  0  0  0  0  0
   -5.9511    0.6053   -0.5784 C   0  0  0  0  0  0  0  0  0  0  0  0
   -7.1988   -0.4664   -1.1737 Cl  0  0  0  0  0  0  0  0  0  0  0  0
   -4.7522    0.1351   -0.0944 C   0  0  0  0  0  0  0  0  0  0  0  0
   -1.2250   -1.5563    0.6561 C   0  0  0  0  0  0  0  0  0  0  0  0
    3.1849    1.4397   -0.8982 C   0  0  0  0  0  0  0  0  0  0  0  0
    4.5079    1.1623   -1.1371 C   0  0  0  0  0  0  0  0  0  0  0  0
    6.6397    0.5931   -2.5480 H   0  0  0  0  0  0  0  0  0  0  0  0
    7.4242    1.6364   -1.2542 H   0  0  0  0  0  0  0  0  0  0  0  0
    8.1814    0.1060   -1.8069 H   0  0  0  0  0  0  0  0  0  0  0  0
    4.9454   -1.2041    1.1899 H   0  0  0  0  0  0  0  0  0  0  0  0
    2.6311   -0.7239    1.6206 H   0  0  0  0  0  0  0  0  0  0  0  0
    0.9202    1.0076    1.4673 H   0  0  0  0  0  0  0  0  0  0  0  0
    0.8444    2.1951    0.1492 H   0  0  0  0  0  0  0  0  0  0  0  0
   -0.4749    0.7553   -1.1295 H   0  0  0  0  0  0  0  0  0  0  0  0
    1.6156   -2.0580   -0.6787 H   0  0  0  0  0  0  0  0  0  0  0  0
   -3.9451   -3.5806    2.3665 H   0  0  0  0  0  0  0  0  0  0  0  0
   -1.7327    1.1527    1.0054 H   0  0  0  0  0  0  0  0  0  0  0  0
   -3.2475    2.9906    0.6966 H   0  0  0  0  0  0  0  0  0  0  0  0
   -5.3891    3.8923   -0.1624 H   0  0  0  0  0  0  0  0  0  0  0  0
   -7.1083    2.3921   -0.9765 H   0  0  0  0  0  0  0  0  0  0  0  0
   -4.6239   -0.9345   -0.1056 H   0  0  0  0  0  0  0  0  0  0  0  0
    2.6577    2.1893   -1.4756 H   0  0  0  0  0  0  0  0  0  0  0  0
    5.0500    1.6824   -1.9058 H   0  0  0  0  0  0  0  0  0  0  0  0
  1  2  1  0
  2  3  1  0
  3  4  2  0
  4  5  1  0
  5  6  2  0
  6  7  1  0
  7  8  1  0
  8  9  1  0
  9 10  1  0
 10 11  1  0
 11 12  2  0
 12 13  1  0
 13 14  2  0
 14 15  1  0
 15 16  2  0
 16 17  1  0
 17 18  1  0
 18 19  2  0
 19 20  1  0
 20 21  2  0
 21 22  1  0
 22 23  1  0
 22 24  2  0
 16 25  1  0
  6 26  1  0
 26 27  2  0
 27  3  1  0
 25  9  2  0
 25 12  1  0
 24 18  1  0
  1 28  1  0
  1 29  1  0
  1 30  1  0
  4 31  1  0
  5 32  1  0
  7 33  1  0
  7 34  1  0
  8 35  1  0
 10 36  1  0
 14 37  1  0
 17 38  1  0
 19 39  1  0
 20 40  1  0
 21 41  1  0
 24 42  1  0
 26 43  1  0
 27 44  1  0
M  END
$$$$
