@<TRIPOS>MOLECULE
*****
 44 47 0 0 0
SMALL
GASTEIGER

@<TRIPOS>ATOM
      1 C           7.2246    0.5892   -1.6169 C.3     1  UNL1        0.0788
      2 O           6.4922   -0.1085   -0.5902 O.3     1  UNL1       -0.4951
      3 C           5.1624    0.1968   -0.3783 C.ar    1  UNL1        0.1201
      4 C           4.4429   -0.4482    0.5947 C.ar    1  UNL1       -0.0196
      5 C           3.0945   -0.1506    0.8228 C.ar    1  UNL1       -0.0536
      6 C           2.4450    0.7996    0.0774 C.ar    1  UNL1       -0.0301
      7 C           1.0351    1.0957    0.3427 C.3     1  UNL1        0.0357
      8 N           0.0796    0.3020   -0.3563 N.pl3   1  UNL1       -0.3247
      9 C          -0.0992   -1.0614    0.0012 C.ar    1  UNL1        0.1271
     10 N           0.6895   -2.1317   -0.1934 N.ar    1  UNL1       -0.2616
     11 N           0.1280   -3.2465    0.2962 N.ar    1  UNL1       -0.1520
     12 C          -1.0678   -2.9389    0.8353 C.ar    1  UNL1        0.1877
     13 N          -2.0601   -3.5993    1.4455 N.ar    1  UNL1       -0.2142
     14 C          -3.1668   -2.9764    1.8712 C.ar    1  UNL1        0.1205
     15 N          -3.3353   -1.6552    1.7059 N.ar    1  UNL1       -0.2198
     16 C          -2.3722   -0.9269    1.0985 C.ar    1  UNL1        0.1388
     17 N          -2.4924    0.4574    0.8562 N.pl3   1  UNL1       -0.2987
     18 C          -3.7500    0.9495    0.3749 C.ar    1  UNL1        0.0338
     19 C          -4.0176    2.3093    0.3342 C.ar    1  UNL1       -0.0404
     20 C          -5.2066    2.8129   -0.1444 C.ar    1  UNL1       -0.0586
     21 C          -6.1796    1.9553   -0.6037 C.ar    1  UNL1       -0.0433
     22 C          -5.9511    0.6053   -0.5784 C.ar    1  UNL1        0.0427
     23 CL         -7.1988   -0.4664   -1.1737 Cl      1  UNL1       -0.0835
     24 C          -4.7522    0.1351   -0.0944 C.ar    1  UNL1       -0.0222
     25 C          -1.2250   -1.5563    0.6561 C.ar    1  UNL1        0.0999
     26 C           3.1849    1.4397   -0.8982 C.ar    1  UNL1       -0.0536
     27 C           4.5079    1.1623   -1.1371 C.ar    1  UNL1       -0.0196
     28 H           6.6397    0.5931   -2.5480 H       1  UNL1        0.0660
     29 H           7.4242    1.6364   -1.2542 H       1  UNL1        0.0660
     30 H           8.1814    0.1060   -1.8069 H       1  UNL1        0.0660
     31 H           4.9454   -1.2041    1.1899 H       1  UNL1        0.0654
     32 H           2.6311   -0.7239    1.6206 H       1  UNL1        0.0622
     33 H           0.9202    1.0076    1.4673 H       1  UNL1        0.0511
     34 H           0.8444    2.1951    0.1492 H       1  UNL1        0.0511
     35 H          -0.4749    0.7553   -1.1295 H       1  UNL1        0.1478
     36 H           1.6156   -2.0580   -0.6787 H       1  UNL1        0.1903
     37 H          -3.9451   -3.5806    2.3665 H       1  UNL1        0.1048
     38 H          -1.7327    1.1527    1.0054 H       1  UNL1        0.1536
     39 H          -3.2475    2.9906    0.6966 H       1  UNL1        0.0636
     40 H          -5.3891    3.8923   -0.1624 H       1  UNL1        0.0619
     41 H          -7.1083    2.3921   -0.9765 H       1  UNL1        0.0632
     42 H          -4.6239   -0.9345   -0.1056 H       1  UNL1        0.0651
     43 H           2.6577    2.1893   -1.4756 H       1  UNL1        0.0622
     44 H           5.0500    1.6824   -1.9058 H       1  UNL1        0.0654
@<TRIPOS>BOND
     1     1     2    1
     2     2     3    1
     3     3     4   ar
     4     4     5   ar
     5     5     6   ar
     6     6     7    1
     7     7     8    1
     8     8     9    1
     9     9    10   ar
    10    10    11   ar
    11    11    12   ar
    12    12    13   ar
    13    13    14   ar
    14    14    15   ar
    15    15    16   ar
    16    16    17    1
    17    17    18    1
    18    18    19   ar
    19    19    20   ar
    20    20    21   ar
    21    21    22   ar
    22    22    23    1
    23    22    24   ar
    24    16    25   ar
    25     6    26   ar
    26    26    27   ar
    27    27     3   ar
    28    25     9   ar
    29    25    12   ar
    30    24    18   ar
    31     1    28    1
    32     1    29    1
    33     1    30    1
    34     4    31    1
    35     5    32    1
    36     7    33    1
    37     7    34    1
    38     8    35    1
    39    10    36    1
    40    14    37    1
    41    17    38    1
    42    19    39    1
    43    20    40    1
    44    21    41    1
    45    24    42    1
    46    26    43    1
    47    27    44    1
