@<TRIPOS>MOLECULE
*****
 64 69 0 0 0
SMALL
GASTEIGER

@<TRIPOS>ATOM
      1 O           5.5332   -0.1958    0.4221 O.2     1  UNL1       -0.2522
      2 C           5.7765   -0.3667   -0.7969 C.2     1  UNL1        0.3081
      3 N           7.1093   -0.5252   -1.2600 N.am    1  UNL1       -0.2691
      4 C           8.1654   -0.4832   -0.2880 C.ar    1  UNL1        0.0376
      5 C           8.5670   -1.6468    0.3119 C.ar    1  UNL1       -0.0223
      6 C           9.5760   -1.6140    1.2419 C.ar    1  UNL1        0.0293
      7 N          10.1869   -0.4613    1.5839 N.ar    1  UNL1       -0.2631
      8 C           9.7821    0.6597    0.9894 C.ar    1  UNL1        0.0293
      9 C           8.7835    0.7028    0.0542 C.ar    1  UNL1       -0.0223
     10 N           4.7256   -0.4065   -1.7477 N.am    1  UNL1       -0.2692
     11 C           3.3666   -0.2601   -1.3975 C.ar    1  UNL1        0.0348
     12 C           2.5488   -1.3266   -1.0658 C.ar    1  UNL1       -0.0398
     13 C           1.2135   -1.1343   -0.7268 C.ar    1  UNL1       -0.0493
     14 C           0.6712    0.1314   -0.7136 C.ar    1  UNL1        0.0194
     15 C          -0.7364    0.3427   -0.3570 C.ar    1  UNL1        0.1668
     16 N          -1.2854    1.5653   -0.3375 N.ar    1  UNL1       -0.1945
     17 C          -2.5773    1.7361   -0.0078 C.ar    1  UNL1        0.2228
     18 N          -3.1920    3.0082    0.0242 N.pl3   1  UNL1       -0.2951
     19 C          -2.4854    4.2357   -0.2941 C.3     1  UNL1        0.0384
     20 C          -3.3079    5.0024   -1.3077 C.3     1  UNL1        0.0635
     21 O          -4.5850    5.1682   -0.7919 O.3     1  UNL1       -0.3767
     22 C          -5.2450    3.9260   -0.7573 C.3     1  UNL1        0.0635
     23 C          -4.5891    3.1421    0.3855 C.3     1  UNL1        0.0384
     24 N          -3.3031    0.6511    0.3013 N.ar    1  UNL1       -0.1808
     25 C          -2.8099   -0.6135    0.3013 C.ar    1  UNL1        0.2233
     26 N          -3.5955   -1.7311    0.6301 N.pl3   1  UNL1       -0.2890
     27 C          -4.9871   -1.7043    1.0024 C.3     1  UNL1        0.0500
     28 C          -4.9196   -2.5321    2.2965 C.3     1  UNL1       -0.0304
     29 C          -3.8300   -3.5324    2.0076 C.3     1  UNL1       -0.0304
     30 C          -3.2014   -3.1140    0.6686 C.3     1  UNL1        0.0500
     31 C          -3.9642   -3.7957   -0.4681 C.3     1  UNL1        0.0663
     32 O          -5.3117   -3.8028   -0.0586 O.3     1  UNL1       -0.3761
     33 C          -5.7642   -2.4879   -0.0520 C.3     1  UNL1        0.0663
     34 N          -1.5004   -0.7155   -0.0404 N.ar    1  UNL1       -0.1945
     35 C           1.4769    1.2001   -1.0423 C.ar    1  UNL1       -0.0493
     36 C           2.7977    0.9896   -1.3755 C.ar    1  UNL1       -0.0398
     37 H           7.3211   -0.6679   -2.2721 H       1  UNL1        0.1564
     38 H           8.0713   -2.5896    0.0358 H       1  UNL1        0.0651
     39 H           9.8962   -2.5349    1.7188 H       1  UNL1        0.0830
     40 H          10.2610    1.5863    1.2530 H       1  UNL1        0.0830
     41 H           8.4687    1.6178   -0.4166 H       1  UNL1        0.0651
     42 H           4.9804   -0.5506   -2.7460 H       1  UNL1        0.1564
     43 H           3.0003   -2.3033   -1.0848 H       1  UNL1        0.0636
     44 H           0.6071   -2.0051   -0.4724 H       1  UNL1        0.0625
     45 H          -1.4652    4.0113   -0.6607 H       1  UNL1        0.0487
     46 H          -2.4052    4.8765    0.6096 H       1  UNL1        0.0487
     47 H          -3.2848    4.4587   -2.2652 H       1  UNL1        0.0575
     48 H          -2.8803    6.0385   -1.4361 H       1  UNL1        0.0575
     49 H          -6.3198    4.0761   -0.5891 H       1  UNL1        0.0575
     50 H          -5.0264    3.3427   -1.6852 H       1  UNL1        0.0575
     51 H          -4.7190    3.7311    1.3130 H       1  UNL1        0.0487
     52 H          -5.1186    2.1632    0.4126 H       1  UNL1        0.0487
     53 H          -5.3977   -0.7100    1.1683 H       1  UNL1        0.0523
     54 H          -5.8808   -2.9739    2.5538 H       1  UNL1        0.0284
     55 H          -4.5416   -1.8043    3.0693 H       1  UNL1        0.0284
     56 H          -4.1813   -4.5660    1.9658 H       1  UNL1        0.0284
     57 H          -3.0094   -3.4882    2.7570 H       1  UNL1        0.0284
     58 H          -2.1303   -3.2939    0.6349 H       1  UNL1        0.0523
     59 H          -3.6606   -4.8480   -0.5953 H       1  UNL1        0.0578
     60 H          -3.8186   -3.1753   -1.3724 H       1  UNL1        0.0578
     61 H          -5.5155   -2.0363   -1.0319 H       1  UNL1        0.0578
     62 H          -6.8347   -2.4265    0.1831 H       1  UNL1        0.0578
     63 H           1.0568    2.2176   -1.0360 H       1  UNL1        0.0625
     64 H           3.4372    1.8427   -1.6369 H       1  UNL1        0.0636
@<TRIPOS>BOND
     1     1     2    2
     2     2     3   am
     3     3     4    1
     4     4     5   ar
     5     5     6   ar
     6     6     7   ar
     7     7     8   ar
     8     8     9   ar
     9     2    10   am
    10    10    11    1
    11    11    12   ar
    12    12    13   ar
    13    13    14   ar
    14    14    15    1
    15    15    16   ar
    16    16    17   ar
    17    17    18    1
    18    18    19    1
    19    19    20    1
    20    20    21    1
    21    21    22    1
    22    22    23    1
    23    17    24   ar
    24    24    25   ar
    25    25    26    1
    26    26    27    1
    27    27    28    1
    28    28    29    1
    29    29    30    1
    30    30    31    1
    31    31    32    1
    32    32    33    1
    33    25    34   ar
    34    14    35   ar
    35    35    36   ar
    36     9     4   ar
    37    36    11   ar
    38    34    15   ar
    39    23    18    1
    40    30    26    1
    41    33    27    1
    42     3    37    1
    43     5    38    1
    44     6    39    1
    45     8    40    1
    46     9    41    1
    47    10    42    1
    48    12    43    1
    49    13    44    1
    50    19    45    1
    51    19    46    1
    52    20    47    1
    53    20    48    1
    54    22    49    1
    55    22    50    1
    56    23    51    1
    57    23    52    1
    58    27    53    1
    59    28    54    1
    60    28    55    1
    61    29    56    1
    62    29    57    1
    63    30    58    1
    64    31    59    1
    65    31    60    1
    66    33    61    1
    67    33    62    1
    68    35    63    1
    69    36    64    1
