@<TRIPOS>MOLECULE
*****
 67 71 0 0 0
SMALL
GASTEIGER

@<TRIPOS>ATOM
      1 N           7.7878   -3.5476   -0.5856 N.3     1  UNL1       -0.3272
      2 C           6.7431   -2.5386   -0.5223 C.3     1  UNL1        0.0049
      3 C           5.6384   -2.9292    0.4330 C.3     1  UNL1       -0.0363
      4 C           4.5565   -1.8848    0.3140 C.3     1  UNL1       -0.0361
      5 C           4.9954   -0.4845    0.5065 C.3     1  UNL1        0.0080
      6 N           4.4970    0.0562    1.7830 N.3     1  UNL1       -0.3099
      7 C           3.0549    0.0685    1.6971 C.3     1  UNL1        0.0153
      8 C           2.2157    0.5366    2.8268 C.3     1  UNL1       -0.0287
      9 C           2.4616    1.5086    1.7624 C.3     1  UNL1        0.0010
     10 C           1.4596    1.8309    0.7321 C.ar    1  UNL1       -0.0425
     11 C           1.5700    2.9970    0.0115 C.ar    1  UNL1       -0.0548
     12 C           0.6801    3.3683   -0.9508 C.ar    1  UNL1       -0.0197
     13 C          -0.4390    2.5552   -1.2731 C.ar    1  UNL1        0.1210
     14 O          -1.2869    2.9722   -2.2371 O.3     1  UNL1       -0.4874
     15 C          -2.4155    2.4945   -2.7716 C.3     1  UNL1        0.1147
     16 C          -3.6157    2.3411   -1.8976 C.ar    1  UNL1       -0.0087
     17 C          -4.4044    3.4308   -1.5710 C.ar    1  UNL1       -0.0552
     18 C          -5.5336    3.3103   -0.8023 C.ar    1  UNL1       -0.0596
     19 C          -5.8824    2.0350   -0.3428 C.ar    1  UNL1       -0.0406
     20 C          -5.1418    0.9235   -0.6341 C.ar    1  UNL1        0.0301
     21 N          -5.4510   -0.3936   -0.1833 N.pl3   1  UNL1       -0.3275
     22 C          -4.7683   -1.5553   -0.7601 C.3     1  UNL1        0.0248
     23 C          -5.7269   -2.7305   -0.6221 C.3     1  UNL1        0.0117
     24 N          -7.0954   -2.2850   -0.8571 N.3     1  UNL1       -0.3130
     25 C          -7.5557   -1.4686    0.2548 C.3     1  UNL1        0.0117
     26 C          -6.4232   -0.6397    0.8485 C.3     1  UNL1        0.0248
     27 C          -4.0045    1.1212   -1.4223 C.ar    1  UNL1       -0.0343
     28 C          -0.5209    1.3979   -0.5365 C.ar    1  UNL1       -0.0197
     29 C           0.3918    1.0252    0.4446 C.ar    1  UNL1       -0.0548
     30 C           6.4212   -0.1647    0.2747 C.3     1  UNL1       -0.0361
     31 C           7.3537   -1.2884    0.0351 C.3     1  UNL1       -0.0363
     32 H           7.4053   -4.5032   -0.5981 H       1  UNL1        0.1185
     33 H           8.4065   -3.3753   -1.3829 H       1  UNL1        0.1185
     34 H           6.3370   -2.3980   -1.5364 H       1  UNL1        0.0458
     35 H           5.2049   -3.8828    0.0612 H       1  UNL1        0.0281
     36 H           6.0084   -3.0558    1.4514 H       1  UNL1        0.0281
     37 H           4.0131   -2.0668   -0.6259 H       1  UNL1        0.0281
     38 H           3.8258   -2.1358    1.1450 H       1  UNL1        0.0281
     39 H           4.4109    0.1262   -0.2560 H       1  UNL1        0.0460
     40 H           4.8729   -0.4611    2.5952 H       1  UNL1        0.1225
     41 H           2.5483   -0.5958    0.9596 H       1  UNL1        0.0466
     42 H           1.2154    0.0476    2.9400 H       1  UNL1        0.0287
     43 H           2.6959    0.6732    3.8278 H       1  UNL1        0.0287
     44 H           3.2001    2.3123    1.9772 H       1  UNL1        0.0364
     45 H           2.4339    3.6492    0.2426 H       1  UNL1        0.0622
     46 H           0.7891    4.2861   -1.5015 H       1  UNL1        0.0654
     47 H          -2.7665    3.2184   -3.5811 H       1  UNL1        0.0748
     48 H          -2.2925    1.5120   -3.3242 H       1  UNL1        0.0748
     49 H          -4.0878    4.4026   -1.9526 H       1  UNL1        0.0621
     50 H          -6.1363    4.1734   -0.5619 H       1  UNL1        0.0618
     51 H          -6.7713    1.9554    0.2573 H       1  UNL1        0.0636
     52 H          -3.7828   -1.7338   -0.3327 H       1  UNL1        0.0476
     53 H          -4.7110   -1.3284   -1.8611 H       1  UNL1        0.0476
     54 H          -5.6481   -3.1564    0.3947 H       1  UNL1        0.0439
     55 H          -5.5084   -3.5122   -1.3732 H       1  UNL1        0.0439
     56 H          -7.0662   -1.6680   -1.7128 H       1  UNL1        0.1220
     57 H          -8.3729   -0.8273   -0.1244 H       1  UNL1        0.0439
     58 H          -7.9490   -2.1765    1.0217 H       1  UNL1        0.0439
     59 H          -6.7898    0.2638    1.3429 H       1  UNL1        0.0476
     60 H          -5.9325   -1.2767    1.6408 H       1  UNL1        0.0476
     61 H          -3.4401    0.2064   -1.6428 H       1  UNL1        0.0640
     62 H          -1.3430    0.7264   -0.7416 H       1  UNL1        0.0654
     63 H           0.2588    0.0827    0.9957 H       1  UNL1        0.0622
     64 H           6.7923    0.3610    1.2098 H       1  UNL1        0.0281
     65 H           6.5713    0.6317   -0.5153 H       1  UNL1        0.0281
     66 H           7.9104   -1.5779    0.9567 H       1  UNL1        0.0281
     67 H           8.1362   -0.9590   -0.7007 H       1  UNL1        0.0281
@<TRIPOS>BOND
     1     1     2    1
     2     2     3    1
     3     3     4    1
     4     4     5    1
     5     5     6    1
     6     6     7    1
     7     7     8    1
     8     8     9    1
     9     9    10    1
    10    10    11   ar
    11    11    12   ar
    12    12    13   ar
    13    13    14    1
    14    14    15    1
    15    15    16    1
    16    16    17   ar
    17    17    18   ar
    18    18    19   ar
    19    19    20   ar
    20    20    21    1
    21    21    22    1
    22    22    23    1
    23    23    24    1
    24    24    25    1
    25    25    26    1
    26    20    27   ar
    27    13    28   ar
    28    28    29   ar
    29     5    30    1
    30    30    31    1
    31    31     2    1
    32     9     7    1
    33    29    10   ar
    34    27    16   ar
    35    26    21    1
    36     1    32    1
    37     1    33    1
    38     2    34    1
    39     3    35    1
    40     3    36    1
    41     4    37    1
    42     4    38    1
    43     5    39    1
    44     6    40    1
    45     7    41    1
    46     8    42    1
    47     8    43    1
    48     9    44    1
    49    11    45    1
    50    12    46    1
    51    15    47    1
    52    15    48    1
    53    17    49    1
    54    18    50    1
    55    19    51    1
    56    22    52    1
    57    22    53    1
    58    23    54    1
    59    23    55    1
    60    24    56    1
    61    25    57    1
    62    25    58    1
    63    26    59    1
    64    26    60    1
    65    27    61    1
    66    28    62    1
    67    29    63    1
    68    30    64    1
    69    30    65    1
    70    31    66    1
    71    31    67    1
