@<TRIPOS>MOLECULE
*****
 41 43 0 0 0
SMALL
GASTEIGER

@<TRIPOS>ATOM
      1 C          -5.5227    0.3156    1.8215 C.3     1  UNL1        0.0790
      2 O          -4.8784   -0.2224    0.6650 O.3     1  UNL1       -0.4913
      3 C          -3.7894    0.4959    0.1728 C.ar    1  UNL1        0.1647
      4 C          -3.1670   -0.0260   -0.9459 C.ar    1  UNL1        0.1837
      5 O          -3.6158   -1.2159   -1.5461 O.3     1  UNL1       -0.4898
      6 C          -3.0286   -2.4017   -1.0551 C.3     1  UNL1        0.0790
      7 C          -2.0897    0.6989   -1.4197 C.ar    1  UNL1        0.0990
      8 C          -1.3622    0.2271   -2.6034 C.3     1  UNL1        0.0767
      9 S          -0.2743   -1.1456   -2.2956 S.O     1  UNL1        0.0955
     10 O           0.1465   -1.8910   -3.5090 O.2     1  UNL1       -0.2488
     11 C           0.9814   -0.8254   -1.1231 C.ar    1  UNL1        0.1981
     12 N           0.7615   -1.0720    0.1790 N.ar    1  UNL1       -0.2200
     13 C           1.9040   -0.7284    0.8373 C.ar    1  UNL1        0.0903
     14 C           2.8057   -0.2760   -0.0782 C.ar    1  UNL1        0.0704
     15 N           2.2272   -0.3404   -1.2791 N.ar    1  UNL1       -0.3309
     16 C           4.0646    0.1493    0.2794 C.ar    1  UNL1        0.0057
     17 C           4.4415    0.1221    1.6122 C.ar    1  UNL1        0.1289
     18 O           5.6089    0.4815    2.2244 O.3     1  UNL1       -0.4342
     19 C           6.7341    0.9882    1.5576 C.3     1  UNL1        0.3893
     20 F           7.8264    0.1968    1.8870 F       1  UNL1       -0.1663
     21 F           6.9852    2.2367    2.0983 F       1  UNL1       -0.1663
     22 C           3.5246   -0.3381    2.5444 C.ar    1  UNL1       -0.0176
     23 C           2.2440   -0.7724    2.1935 C.ar    1  UNL1       -0.0308
     24 N          -1.7105    1.8382   -0.7923 N.ar    1  UNL1       -0.2551
     25 C          -2.3133    2.3408    0.2886 C.ar    1  UNL1        0.0316
     26 C          -3.3899    1.6554    0.7972 C.ar    1  UNL1        0.0018
     27 H          -5.9749    1.3010    1.5853 H       1  UNL1        0.0660
     28 H          -4.7969    0.5110    2.6342 H       1  UNL1        0.0660
     29 H          -6.3358   -0.3517    2.1724 H       1  UNL1        0.0660
     30 H          -2.5940   -3.0335   -1.8422 H       1  UNL1        0.0660
     31 H          -3.8342   -2.9651   -0.5387 H       1  UNL1        0.0660
     32 H          -2.2360   -2.2460   -0.3093 H       1  UNL1        0.0660
     33 H          -0.7102    1.0616   -2.9815 H       1  UNL1        0.0471
     34 H          -1.9976   -0.0342   -3.4716 H       1  UNL1        0.0471
     35 H           2.6468   -0.0698   -2.1815 H       1  UNL1        0.1679
     36 H           4.8269    0.5156   -0.3664 H       1  UNL1        0.0675
     37 H           6.5854    1.0633    0.4793 H       1  UNL1        0.1520
     38 H           3.6647   -0.4226    3.6292 H       1  UNL1        0.0655
     39 H           1.5021   -1.1365    2.8824 H       1  UNL1        0.0641
     40 H          -1.9803    3.2558    0.7630 H       1  UNL1        0.0831
     41 H          -3.8798    2.0600    1.6718 H       1  UNL1        0.0670
@<TRIPOS>BOND
     1     1     2    1
     2     2     3    1
     3     3     4   ar
     4     4     5    1
     5     5     6    1
     6     4     7   ar
     7     7     8    1
     8     8     9    1
     9     9    10    2
    10     9    11    1
    11    11    12   ar
    12    12    13   ar
    13    13    14   ar
    14    14    15   ar
    15    14    16   ar
    16    16    17   ar
    17    17    18    1
    18    18    19    1
    19    19    20    1
    20    19    21    1
    21    17    22   ar
    22    22    23   ar
    23     7    24   ar
    24    24    25   ar
    25    25    26   ar
    26    26     3   ar
    27    15    11   ar
    28    23    13   ar
    29     1    27    1
    30     1    28    1
    31     1    29    1
    32     6    30    1
    33     6    31    1
    34     6    32    1
    35     8    33    1
    36     8    34    1
    37    15    35    1
    38    16    36    1
    39    19    37    1
    40    22    38    1
    41    23    39    1
    42    25    40    1
    43    26    41    1
