
     RDKit          3D

 41 43  0  0  0  0  0  0  0  0999 V2000
   -5.5227    0.3156    1.8215 C   0  0  0  0  0  0  0  0  0  0  0  0
   -4.8784   -0.2224    0.6650 O   0  0  0  0  0  0  0  0  0  0  0  0
   -3.7894    0.4959    0.1728 C   0  0  0  0  0  0  0  0  0  0  0  0
   -3.1670   -0.0260   -0.9459 C   0  0  0  0  0  0  0  0  0  0  0  0
   -3.6158   -1.2159   -1.5461 O   0  0  0  0  0  0  0  0  0  0  0  0
   -3.0286   -2.4017   -1.0551 C   0  0  0  0  0  0  0  0  0  0  0  0
   -2.0897    0.6989   -1.4197 C   0  0  0  0  0  0  0  0  0  0  0  0
   -1.3622    0.2271   -2.6034 C   0  0  0  0  0  0  0  0  0  0  0  0
   -0.2743   -1.1456   -2.2956 S   0  0  0  0  0  0  0  0  0  0  0  0
    0.1465   -1.8910   -3.5090 O   0  0  0  0  0  0  0  0  0  0  0  0
    0.9814   -0.8254   -1.1231 C   0  0  0  0  0  0  0  0  0  0  0  0
    0.7615   -1.0720    0.1790 N   0  0  0  0  0  0  0  0  0  0  0  0
    1.9040   -0.7284    0.8373 C   0  0  0  0  0  0  0  0  0  0  0  0
    2.8057   -0.2760   -0.0782 C   0  0  0  0  0  0  0  0  0  0  0  0
    2.2272   -0.3404   -1.2791 N   0  0  0  0  0  0  0  0  0  0  0  0
    4.0646    0.1493    0.2794 C   0  0  0  0  0  0  0  0  0  0  0  0
    4.4415    0.1221    1.6122 C   0  0  0  0  0  0  0  0  0  0  0  0
    5.6089    0.4815    2.2244 O   0  0  0  0  0  0  0  0  0  0  0  0
    6.7341    0.9882    1.5576 C   0  0  0  0  0  0  0  0  0  0  0  0
    7.8264    0.1968    1.8870 F   0  0  0  0  0  0  0  0  0  0  0  0
    6.9852    2.2367    2.0983 F   0  0  0  0  0  0  0  0  0  0  0  0
    3.5246   -0.3381    2.5444 C   0  0  0  0  0  0  0  0  0  0  0  0
    2.2440   -0.7724    2.1935 C   0  0  0  0  0  0  0  0  0  0  0  0
   -1.7105    1.8382   -0.7923 N   0  0  0  0  0  0  0  0  0  0  0  0
   -2.3133    2.3408    0.2886 C   0  0  0  0  0  0  0  0  0  0  0  0
   -3.3899    1.6554    0.7972 C   0  0  0  0  0  0  0  0  0  0  0  0
   -5.9749    1.3010    1.5853 H   0  0  0  0  0  0  0  0  0  0  0  0
   -4.7969    0.5110    2.6342 H   0  0  0  0  0  0  0  0  0  0  0  0
   -6.3358   -0.3517    2.1724 H   0  0  0  0  0  0  0  0  0  0  0  0
   -2.5940   -3.0335   -1.8422 H   0  0  0  0  0  0  0  0  0  0  0  0
   -3.8342   -2.9651   -0.5387 H   0  0  0  0  0  0  0  0  0  0  0  0
   -2.2360   -2.2460   -0.3093 H   0  0  0  0  0  0  0  0  0  0  0  0
   -0.7102    1.0616   -2.9815 H   0  0  0  0  0  0  0  0  0  0  0  0
   -1.9976   -0.0342   -3.4716 H   0  0  0  0  0  0  0  0  0  0  0  0
    2.6468   -0.0698   -2.1815 H   0  0  0  0  0  0  0  0  0  0  0  0
    4.8269    0.5156   -0.3664 H   0  0  0  0  0  0  0  0  0  0  0  0
    6.5854    1.0633    0.4793 H   0  0  0  0  0  0  0  0  0  0  0  0
    3.6647   -0.4226    3.6292 H   0  0  0  0  0  0  0  0  0  0  0  0
    1.5021   -1.1365    2.8824 H   0  0  0  0  0  0  0  0  0  0  0  0
   -1.9803    3.2558    0.7630 H   0  0  0  0  0  0  0  0  0  0  0  0
   -3.8798    2.0600    1.6718 H   0  0  0  0  0  0  0  0  0  0  0  0
  1  2  1  0
  2  3  1  0
  3  4  2  0
  4  5  1  0
  5  6  1  0
  4  7  1  0
  7  8  1  0
  8  9  1  0
  9 10  2  0
  9 11  1  0
 11 12  2  0
 12 13  1  0
 13 14  2  0
 14 15  1  0
 14 16  1  0
 16 17  2  0
 17 18  1  0
 18 19  1  0
 19 20  1  0
 19 21  1  0
 17 22  1  0
 22 23  2  0
  7 24  2  0
 24 25  1  0
 25 26  2  0
 26  3  1  0
 15 11  1  0
 23 13  1  0
  1 27  1  0
  1 28  1  0
  1 29  1  0
  6 30  1  0
  6 31  1  0
  6 32  1  0
  8 33  1  0
  8 34  1  0
 15 35  1  0
 16 36  1  0
 19 37  1  0
 22 38  1  0
 23 39  1  0
 25 40  1  0
 26 41  1  0
M  END
$$$$
