@<TRIPOS>MOLECULE
*****
 13 9 0 0 0
SMALL
GASTEIGER

@<TRIPOS>ATOM
      1 GA          0.0000    0.0000    0.0000 Ga      1  UNL1        0.0000
      2 O          -0.6346    1.1764   -0.0063 O.co2   2  UNL2       -1.0000
      3 N           0.0570   -0.0021    0.0004 N.pl3   2  UNL2        1.0000
      4 O          -0.7234   -1.1468   -0.0031 O.co2   2  UNL2       -1.0000
      5 O           1.3010   -0.0275    0.0091 O.2     2  UNL2        0.0000
      6 O          -0.6346    1.1764   -0.0063 O.co2   3  UNL3       -1.0000
      7 N           0.0570   -0.0021    0.0004 N.pl3   3  UNL3        1.0000
      8 O          -0.7234   -1.1468   -0.0031 O.co2   3  UNL3       -1.0000
      9 O           1.3010   -0.0275    0.0091 O.2     3  UNL3        0.0000
     10 O          -0.6346    1.1764   -0.0063 O.co2   4  UNL4       -1.0000
     11 N           0.0570   -0.0021    0.0004 N.pl3   4  UNL4        1.0000
     12 O          -0.7234   -1.1468   -0.0031 O.co2   4  UNL4       -1.0000
     13 O           1.3010   -0.0275    0.0091 O.2     4  UNL4        0.0000
@<TRIPOS>UNITY_ATOM_ATTR
1 1
charge 3
2 1
charge -1
3 1
charge 1
4 1
charge -1
6 1
charge -1
7 1
charge 1
8 1
charge -1
10 1
charge -1
11 1
charge 1
12 1
charge -1
@<TRIPOS>BOND
     1     2     3    1
     2     3     4    1
     3     3     5    2
     4     6     7    1
     5     7     8    1
     6     7     9    2
     7    10    11    1
     8    11    12    1
     9    11    13    2
