@<TRIPOS>MOLECULE
*****
 51 54 0 0 0
SMALL
GASTEIGER

@<TRIPOS>ATOM
      1 O           2.0740   -1.8294   -1.1456 O.2     1  UNL1       -0.2723
      2 C           1.2417   -0.8543   -1.1018 C.2     1  UNL1        0.2490
      3 C          -0.1485   -1.0515   -1.6155 C.3     1  UNL1        0.1044
      4 N          -1.1021   -1.0503   -0.5100 N.ar    1  UNL1       -0.2963
      5 C          -1.7059    0.1061   -0.1891 C.ar    1  UNL1        0.2739
      6 O          -1.4716    1.1483   -0.9049 O.2     1  UNL1       -0.2657
      7 C          -2.5603    0.1929    0.8792 C.ar    1  UNL1        0.1105
      8 C          -3.2182    1.4630    1.2021 C.3     1  UNL1        0.0201
      9 C          -4.4160    1.7751    0.3935 C.ar    1  UNL1       -0.0414
     10 C          -5.6488    1.3020    0.8550 C.ar    1  UNL1       -0.0582
     11 C          -6.8059    1.5651    0.1617 C.ar    1  UNL1       -0.0615
     12 C          -6.7802    2.3063   -1.0138 C.ar    1  UNL1       -0.0617
     13 C          -5.5705    2.7716   -1.4695 C.ar    1  UNL1       -0.0615
     14 C          -4.4167    2.5052   -0.7702 C.ar    1  UNL1       -0.0582
     15 N          -2.8136   -0.8833    1.6313 N.ar    1  UNL1       -0.2444
     16 C          -2.2229   -2.0738    1.3376 C.ar    1  UNL1        0.0879
     17 C          -2.4415   -3.1990    2.0637 C.ar    1  UNL1       -0.0343
     18 C          -1.8504   -4.4080    1.7768 C.ar    1  UNL1       -0.0596
     19 C          -1.0047   -4.4322    0.6930 C.ar    1  UNL1       -0.0597
     20 C          -0.7525   -3.3141   -0.0738 C.ar    1  UNL1       -0.0360
     21 C          -1.3655   -2.1243    0.2508 C.ar    1  UNL1        0.0708
     22 N           1.7517    0.3364   -0.5531 N.am    1  UNL1       -0.2327
     23 N           3.0957    0.4062   -0.0840 N.am    1  UNL1       -0.2303
     24 C           4.1240    0.8045   -0.9632 C.2     1  UNL1        0.2601
     25 O           3.8105    1.0886   -2.1491 O.2     1  UNL1       -0.2687
     26 C           5.4913    0.8730   -0.4835 C.ar    1  UNL1        0.0382
     27 C           5.8999    0.5291    0.7721 C.ar    1  UNL1       -0.0485
     28 C           7.2138    0.6139    1.1920 C.ar    1  UNL1       -0.0470
     29 C           8.1822    1.0602    0.3351 C.ar    1  UNL1        0.0179
     30 BR         10.0036    1.2011    0.8369 Br      1  UNL1       -0.0503
     31 C           7.8159    1.4250   -0.9656 C.ar    1  UNL1       -0.0470
     32 C           6.5032    1.3256   -1.3393 C.ar    1  UNL1       -0.0485
     33 H          -0.3904   -0.1672   -2.2449 H       1  UNL1        0.0589
     34 H          -0.2296   -1.9079   -2.2805 H       1  UNL1        0.0589
     35 H          -2.4812    2.3141    1.0699 H       1  UNL1        0.0378
     36 H          -3.5048    1.5071    2.2629 H       1  UNL1        0.0378
     37 H          -5.7271    0.7136    1.7744 H       1  UNL1        0.0620
     38 H          -7.7482    1.1935    0.5280 H       1  UNL1        0.0618
     39 H          -7.6888    2.5072   -1.5463 H       1  UNL1        0.0618
     40 H          -5.5486    3.3568   -2.3990 H       1  UNL1        0.0618
     41 H          -3.4998    2.9007   -1.1746 H       1  UNL1        0.0620
     42 H          -3.1210   -3.1133    2.9099 H       1  UNL1        0.0639
     43 H          -2.0460   -5.3003    2.3789 H       1  UNL1        0.0618
     44 H          -0.5445   -5.3972    0.4795 H       1  UNL1        0.0618
     45 H          -0.0953   -3.3911   -0.9037 H       1  UNL1        0.0639
     46 H           1.1525    1.1832   -0.4834 H       1  UNL1        0.1729
     47 H           3.2263    0.1528    0.9016 H       1  UNL1        0.1731
     48 H           5.1233    0.1668    1.4674 H       1  UNL1        0.0625
     49 H           7.4564    0.3220    2.1974 H       1  UNL1        0.0629
     50 H           8.5742    1.7771   -1.6388 H       1  UNL1        0.0629
     51 H           6.1806    1.6032   -2.3475 H       1  UNL1        0.0625
@<TRIPOS>BOND
     1     1     2    2
     2     2     3    1
     3     3     4    1
     4     4     5   ar
     5     5     6    2
     6     5     7   ar
     7     7     8    1
     8     8     9    1
     9     9    10   ar
    10    10    11   ar
    11    11    12   ar
    12    12    13   ar
    13    13    14   ar
    14     7    15   ar
    15    15    16   ar
    16    16    17   ar
    17    17    18   ar
    18    18    19   ar
    19    19    20   ar
    20    20    21   ar
    21     2    22   am
    22    22    23    1
    23    23    24   am
    24    24    25    2
    25    24    26    1
    26    26    27   ar
    27    27    28   ar
    28    28    29   ar
    29    29    30    1
    30    29    31   ar
    31    31    32   ar
    32    21     4   ar
    33    32    26   ar
    34    14     9   ar
    35    21    16   ar
    36     3    33    1
    37     3    34    1
    38     8    35    1
    39     8    36    1
    40    10    37    1
    41    11    38    1
    42    12    39    1
    43    13    40    1
    44    14    41    1
    45    17    42    1
    46    18    43    1
    47    19    44    1
    48    20    45    1
    49    22    46    1
    50    23    47    1
    51    27    48    1
    52    28    49    1
    53    31    50    1
    54    32    51    1
