
     RDKit          3D

 51 54  0  0  0  0  0  0  0  0999 V2000
    2.0740   -1.8294   -1.1456 O   0  0  0  0  0  0  0  0  0  0  0  0
    1.2417   -0.8543   -1.1018 C   0  0  0  0  0  0  0  0  0  0  0  0
   -0.1485   -1.0515   -1.6155 C   0  0  0  0  0  0  0  0  0  0  0  0
   -1.1021   -1.0503   -0.5100 N   0  0  0  0  0  0  0  0  0  0  0  0
   -1.7059    0.1061   -0.1891 C   0  0  0  0  0  0  0  0  0  0  0  0
   -1.4716    1.1483   -0.9049 O   0  0  0  0  0  0  0  0  0  0  0  0
   -2.5603    0.1929    0.8792 C   0  0  0  0  0  0  0  0  0  0  0  0
   -3.2182    1.4630    1.2021 C   0  0  0  0  0  0  0  0  0  0  0  0
   -4.4160    1.7751    0.3935 C   0  0  0  0  0  0  0  0  0  0  0  0
   -5.6488    1.3020    0.8550 C   0  0  0  0  0  0  0  0  0  0  0  0
   -6.8059    1.5651    0.1617 C   0  0  0  0  0  0  0  0  0  0  0  0
   -6.7802    2.3063   -1.0138 C   0  0  0  0  0  0  0  0  0  0  0  0
   -5.5705    2.7716   -1.4695 C   0  0  0  0  0  0  0  0  0  0  0  0
   -4.4167    2.5052   -0.7702 C   0  0  0  0  0  0  0  0  0  0  0  0
   -2.8136   -0.8833    1.6313 N   0  0  0  0  0  0  0  0  0  0  0  0
   -2.2229   -2.0738    1.3376 C   0  0  0  0  0  0  0  0  0  0  0  0
   -2.4415   -3.1990    2.0637 C   0  0  0  0  0  0  0  0  0  0  0  0
   -1.8504   -4.4080    1.7768 C   0  0  0  0  0  0  0  0  0  0  0  0
   -1.0047   -4.4322    0.6930 C   0  0  0  0  0  0  0  0  0  0  0  0
   -0.7525   -3.3141   -0.0738 C   0  0  0  0  0  0  0  0  0  0  0  0
   -1.3655   -2.1243    0.2508 C   0  0  0  0  0  0  0  0  0  0  0  0
    1.7517    0.3364   -0.5531 N   0  0  0  0  0  0  0  0  0  0  0  0
    3.0957    0.4062   -0.0840 N   0  0  0  0  0  0  0  0  0  0  0  0
    4.1240    0.8045   -0.9632 C   0  0  0  0  0  0  0  0  0  0  0  0
    3.8105    1.0886   -2.1491 O   0  0  0  0  0  0  0  0  0  0  0  0
    5.4913    0.8730   -0.4835 C   0  0  0  0  0  0  0  0  0  0  0  0
    5.8999    0.5291    0.7721 C   0  0  0  0  0  0  0  0  0  0  0  0
    7.2138    0.6139    1.1920 C   0  0  0  0  0  0  0  0  0  0  0  0
    8.1822    1.0602    0.3351 C   0  0  0  0  0  0  0  0  0  0  0  0
   10.0036    1.2011    0.8369 Br  0  0  0  0  0  0  0  0  0  0  0  0
    7.8159    1.4250   -0.9656 C   0  0  0  0  0  0  0  0  0  0  0  0
    6.5032    1.3256   -1.3393 C   0  0  0  0  0  0  0  0  0  0  0  0
   -0.3904   -0.1672   -2.2449 H   0  0  0  0  0  0  0  0  0  0  0  0
   -0.2296   -1.9079   -2.2805 H   0  0  0  0  0  0  0  0  0  0  0  0
   -2.4812    2.3141    1.0699 H   0  0  0  0  0  0  0  0  0  0  0  0
   -3.5048    1.5071    2.2629 H   0  0  0  0  0  0  0  0  0  0  0  0
   -5.7271    0.7136    1.7744 H   0  0  0  0  0  0  0  0  0  0  0  0
   -7.7482    1.1935    0.5280 H   0  0  0  0  0  0  0  0  0  0  0  0
   -7.6888    2.5072   -1.5463 H   0  0  0  0  0  0  0  0  0  0  0  0
   -5.5486    3.3568   -2.3990 H   0  0  0  0  0  0  0  0  0  0  0  0
   -3.4998    2.9007   -1.1746 H   0  0  0  0  0  0  0  0  0  0  0  0
   -3.1210   -3.1133    2.9099 H   0  0  0  0  0  0  0  0  0  0  0  0
   -2.0460   -5.3003    2.3789 H   0  0  0  0  0  0  0  0  0  0  0  0
   -0.5445   -5.3972    0.4795 H   0  0  0  0  0  0  0  0  0  0  0  0
   -0.0953   -3.3911   -0.9037 H   0  0  0  0  0  0  0  0  0  0  0  0
    1.1525    1.1832   -0.4834 H   0  0  0  0  0  0  0  0  0  0  0  0
    3.2263    0.1528    0.9016 H   0  0  0  0  0  0  0  0  0  0  0  0
    5.1233    0.1668    1.4674 H   0  0  0  0  0  0  0  0  0  0  0  0
    7.4564    0.3220    2.1974 H   0  0  0  0  0  0  0  0  0  0  0  0
    8.5742    1.7771   -1.6388 H   0  0  0  0  0  0  0  0  0  0  0  0
    6.1806    1.6032   -2.3475 H   0  0  0  0  0  0  0  0  0  0  0  0
  1  2  2  0
  2  3  1  0
  3  4  1  0
  4  5  1  0
  5  6  2  0
  5  7  1  0
  7  8  1  0
  8  9  1  0
  9 10  2  0
 10 11  1  0
 11 12  2  0
 12 13  1  0
 13 14  2  0
  7 15  2  0
 15 16  1  0
 16 17  2  0
 17 18  1  0
 18 19  2  0
 19 20  1  0
 20 21  2  0
  2 22  1  0
 22 23  1  0
 23 24  1  0
 24 25  2  0
 24 26  1  0
 26 27  2  0
 27 28  1  0
 28 29  2  0
 29 30  1  0
 29 31  1  0
 31 32  2  0
 21  4  1  0
 32 26  1  0
 14  9  1  0
 21 16  1  0
  3 33  1  0
  3 34  1  0
  8 35  1  0
  8 36  1  0
 10 37  1  0
 11 38  1  0
 12 39  1  0
 13 40  1  0
 14 41  1  0
 17 42  1  0
 18 43  1  0
 19 44  1  0
 20 45  1  0
 22 46  1  0
 23 47  1  0
 27 48  1  0
 28 49  1  0
 31 50  1  0
 32 51  1  0
M  END
$$$$
