@<TRIPOS>MOLECULE
*****
 56 59 0 0 0
SMALL
GASTEIGER

@<TRIPOS>ATOM
      1 C           3.3036   -0.1595    2.7793 C.3     1  UNL1        0.0496
      2 N           4.2117   -0.1691    1.6566 N.pl3   1  UNL1       -0.2236
      3 C           4.2284    0.9134    0.6990 C.3     1  UNL1        0.0856
      4 C           2.9185    1.0881    0.0167 C.ar    1  UNL1       -0.0158
      5 C           2.6415    0.4106   -1.1588 C.ar    1  UNL1       -0.0550
      6 C           1.4288    0.5725   -1.7901 C.ar    1  UNL1       -0.0493
      7 C           0.4419    1.4029   -1.2954 C.ar    1  UNL1        0.0370
      8 C          -0.8357    1.5625   -1.9763 C.2     1  UNL1        0.2483
      9 O          -1.0705    0.9240   -3.0650 O.2     1  UNL1       -0.2699
     10 N          -1.8900    2.3963   -1.5252 N.am    1  UNL1       -0.2808
     11 C          -3.1071    2.4883   -2.2603 C.ar    1  UNL1        0.0459
     12 C          -3.3337    3.4071   -3.2599 C.ar    1  UNL1       -0.0384
     13 C          -4.5282    3.4601   -3.9458 C.ar    1  UNL1       -0.0416
     14 C          -5.5564    2.5912   -3.6611 C.ar    1  UNL1        0.0418
     15 CL         -7.0820    2.6421   -4.5210 Cl      1  UNL1       -0.0835
     16 C          -5.3300    1.6601   -2.6497 C.ar    1  UNL1       -0.0295
     17 C          -4.1355    1.6069   -1.9638 C.ar    1  UNL1        0.0596
     18 C          -3.9054    0.6308   -0.9071 C.2     1  UNL1        0.2511
     19 O          -2.7898    0.5967   -0.2802 O.2     1  UNL1       -0.2697
     20 N          -4.8633   -0.3331   -0.4948 N.am    1  UNL1       -0.2663
     21 C          -4.5731   -1.2701    0.5566 C.ar    1  UNL1        0.1252
     22 C          -4.0070   -2.4732    0.2096 C.ar    1  UNL1       -0.0201
     23 C          -3.6952   -3.4355    1.1676 C.ar    1  UNL1       -0.0387
     24 C          -3.9586   -3.1745    2.4759 C.ar    1  UNL1        0.0592
     25 CL         -3.5980   -4.3331    3.7603 Cl      1  UNL1       -0.0820
     26 C          -4.5272   -1.9626    2.8114 C.ar    1  UNL1        0.0480
     27 N          -4.8224   -1.0381    1.8520 N.ar    1  UNL1       -0.2387
     28 C           0.7215    2.0707   -0.1321 C.ar    1  UNL1       -0.0493
     29 C           1.9459    1.9216    0.5261 C.ar    1  UNL1       -0.0550
     30 C           5.1174   -1.2778    1.4885 C.cat   1  UNL1        0.3671
     31 N           4.7269   -2.4642    1.2135 N.2     1  UNL1       -0.1142
     32 C           5.8523   -3.3601    1.1055 C.3     1  UNL1        0.1328
     33 C           7.0262   -2.4359    0.9546 C.3     1  UNL1        0.0920
     34 N           6.5244   -1.2201    1.5963 N.pl3   1  UNL1       -0.2352
     35 H           3.1433   -1.2231    3.1023 H       1  UNL1        0.0597
     36 H           2.3488    0.3040    2.4471 H       1  UNL1        0.0597
     37 H           3.6730    0.4628    3.6287 H       1  UNL1        0.0597
     38 H           5.0413    0.7767   -0.0282 H       1  UNL1        0.0685
     39 H           4.4182    1.8678    1.2570 H       1  UNL1        0.0685
     40 H           3.4055   -0.2423   -1.5562 H       1  UNL1        0.0621
     41 H           1.1997    0.0496   -2.7083 H       1  UNL1        0.0625
     42 H          -1.7340    2.9335   -0.6389 H       1  UNL1        0.1552
     43 H          -2.5656    4.1013   -3.5158 H       1  UNL1        0.0637
     44 H          -4.7158    4.1844   -4.7385 H       1  UNL1        0.0633
     45 H          -6.1382    0.9843   -2.4329 H       1  UNL1        0.0640
     46 H          -5.7895   -0.3408   -0.9808 H       1  UNL1        0.1566
     47 H          -3.7868   -2.7077   -0.8210 H       1  UNL1        0.0652
     48 H          -3.2495   -4.3873    0.9124 H       1  UNL1        0.0634
     49 H          -4.7276   -1.7757    3.8505 H       1  UNL1        0.0845
     50 H           0.0116    2.7398    0.3273 H       1  UNL1        0.0625
     51 H           2.1189    2.4735    1.4462 H       1  UNL1        0.0621
     52 H           5.7279   -4.0427    0.2410 H       1  UNL1        0.0723
     53 H           5.9427   -3.9165    2.0602 H       1  UNL1        0.0723
     54 H           7.9492   -2.7993    1.4239 H       1  UNL1        0.0665
     55 H           7.1454   -2.1917   -0.1295 H       1  UNL1        0.0665
     56 H           7.1017   -0.4899    2.0292 H       1  UNL1        0.2445
@<TRIPOS>BOND
     1     1     2    1
     2     2     3    1
     3     3     4    1
     4     4     5   ar
     5     5     6   ar
     6     6     7   ar
     7     7     8    1
     8     8     9    2
     9     8    10   am
    10    10    11    1
    11    11    12   ar
    12    12    13   ar
    13    13    14   ar
    14    14    15    1
    15    14    16   ar
    16    16    17   ar
    17    17    18    1
    18    18    19    2
    19    18    20   am
    20    20    21    1
    21    21    22   ar
    22    22    23   ar
    23    23    24   ar
    24    24    25    1
    25    24    26   ar
    26    26    27   ar
    27     7    28   ar
    28    28    29   ar
    29     2    30    1
    30    30    31    2
    31    31    32    1
    32    32    33    1
    33    33    34    1
    34    29     4   ar
    35    34    30    1
    36    17    11   ar
    37    27    21   ar
    38     1    35    1
    39     1    36    1
    40     1    37    1
    41     3    38    1
    42     3    39    1
    43     5    40    1
    44     6    41    1
    45    10    42    1
    46    12    43    1
    47    13    44    1
    48    16    45    1
    49    20    46    1
    50    22    47    1
    51    23    48    1
    52    26    49    1
    53    28    50    1
    54    29    51    1
    55    32    52    1
    56    32    53    1
    57    33    54    1
    58    33    55    1
    59    34    56    1
