
     RDKit          3D

 56 59  0  0  0  0  0  0  0  0999 V2000
    3.3036   -0.1595    2.7793 C   0  0  0  0  0  0  0  0  0  0  0  0
    4.2117   -0.1691    1.6566 N   0  0  0  0  0  0  0  0  0  0  0  0
    4.2284    0.9134    0.6990 C   0  0  0  0  0  0  0  0  0  0  0  0
    2.9185    1.0881    0.0167 C   0  0  0  0  0  0  0  0  0  0  0  0
    2.6415    0.4106   -1.1588 C   0  0  0  0  0  0  0  0  0  0  0  0
    1.4288    0.5725   -1.7901 C   0  0  0  0  0  0  0  0  0  0  0  0
    0.4419    1.4029   -1.2954 C   0  0  0  0  0  0  0  0  0  0  0  0
   -0.8357    1.5625   -1.9763 C   0  0  0  0  0  0  0  0  0  0  0  0
   -1.0705    0.9240   -3.0650 O   0  0  0  0  0  0  0  0  0  0  0  0
   -1.8900    2.3963   -1.5252 N   0  0  0  0  0  0  0  0  0  0  0  0
   -3.1071    2.4883   -2.2603 C   0  0  0  0  0  0  0  0  0  0  0  0
   -3.3337    3.4071   -3.2599 C   0  0  0  0  0  0  0  0  0  0  0  0
   -4.5282    3.4601   -3.9458 C   0  0  0  0  0  0  0  0  0  0  0  0
   -5.5564    2.5912   -3.6611 C   0  0  0  0  0  0  0  0  0  0  0  0
   -7.0820    2.6421   -4.5210 Cl  0  0  0  0  0  0  0  0  0  0  0  0
   -5.3300    1.6601   -2.6497 C   0  0  0  0  0  0  0  0  0  0  0  0
   -4.1355    1.6069   -1.9638 C   0  0  0  0  0  0  0  0  0  0  0  0
   -3.9054    0.6308   -0.9071 C   0  0  0  0  0  0  0  0  0  0  0  0
   -2.7898    0.5967   -0.2802 O   0  0  0  0  0  0  0  0  0  0  0  0
   -4.8633   -0.3331   -0.4948 N   0  0  0  0  0  0  0  0  0  0  0  0
   -4.5731   -1.2701    0.5566 C   0  0  0  0  0  0  0  0  0  0  0  0
   -4.0070   -2.4732    0.2096 C   0  0  0  0  0  0  0  0  0  0  0  0
   -3.6952   -3.4355    1.1676 C   0  0  0  0  0  0  0  0  0  0  0  0
   -3.9586   -3.1745    2.4759 C   0  0  0  0  0  0  0  0  0  0  0  0
   -3.5980   -4.3331    3.7603 Cl  0  0  0  0  0  0  0  0  0  0  0  0
   -4.5272   -1.9626    2.8114 C   0  0  0  0  0  0  0  0  0  0  0  0
   -4.8224   -1.0381    1.8520 N   0  0  0  0  0  0  0  0  0  0  0  0
    0.7215    2.0707   -0.1321 C   0  0  0  0  0  0  0  0  0  0  0  0
    1.9459    1.9216    0.5261 C   0  0  0  0  0  0  0  0  0  0  0  0
    5.1174   -1.2778    1.4885 C   0  0  0  0  0  0  0  0  0  0  0  0
    4.7269   -2.4642    1.2135 N   0  0  0  0  0  0  0  0  0  0  0  0
    5.8523   -3.3601    1.1055 C   0  0  0  0  0  0  0  0  0  0  0  0
    7.0262   -2.4359    0.9546 C   0  0  0  0  0  0  0  0  0  0  0  0
    6.5244   -1.2201    1.5963 N   0  0  0  0  0  0  0  0  0  0  0  0
    3.1433   -1.2231    3.1023 H   0  0  0  0  0  0  0  0  0  0  0  0
    2.3488    0.3040    2.4471 H   0  0  0  0  0  0  0  0  0  0  0  0
    3.6730    0.4628    3.6287 H   0  0  0  0  0  0  0  0  0  0  0  0
    5.0413    0.7767   -0.0282 H   0  0  0  0  0  0  0  0  0  0  0  0
    4.4182    1.8678    1.2570 H   0  0  0  0  0  0  0  0  0  0  0  0
    3.4055   -0.2423   -1.5562 H   0  0  0  0  0  0  0  0  0  0  0  0
    1.1997    0.0496   -2.7083 H   0  0  0  0  0  0  0  0  0  0  0  0
   -1.7340    2.9335   -0.6389 H   0  0  0  0  0  0  0  0  0  0  0  0
   -2.5656    4.1013   -3.5158 H   0  0  0  0  0  0  0  0  0  0  0  0
   -4.7158    4.1844   -4.7385 H   0  0  0  0  0  0  0  0  0  0  0  0
   -6.1382    0.9843   -2.4329 H   0  0  0  0  0  0  0  0  0  0  0  0
   -5.7895   -0.3408   -0.9808 H   0  0  0  0  0  0  0  0  0  0  0  0
   -3.7868   -2.7077   -0.8210 H   0  0  0  0  0  0  0  0  0  0  0  0
   -3.2495   -4.3873    0.9124 H   0  0  0  0  0  0  0  0  0  0  0  0
   -4.7276   -1.7757    3.8505 H   0  0  0  0  0  0  0  0  0  0  0  0
    0.0116    2.7398    0.3273 H   0  0  0  0  0  0  0  0  0  0  0  0
    2.1189    2.4735    1.4462 H   0  0  0  0  0  0  0  0  0  0  0  0
    5.7279   -4.0427    0.2410 H   0  0  0  0  0  0  0  0  0  0  0  0
    5.9427   -3.9165    2.0602 H   0  0  0  0  0  0  0  0  0  0  0  0
    7.9492   -2.7993    1.4239 H   0  0  0  0  0  0  0  0  0  0  0  0
    7.1454   -2.1917   -0.1295 H   0  0  0  0  0  0  0  0  0  0  0  0
    7.1017   -0.4899    2.0292 H   0  0  0  0  0  0  0  0  0  0  0  0
  1  2  1  0
  2  3  1  0
  3  4  1  0
  4  5  2  0
  5  6  1  0
  6  7  2  0
  7  8  1  0
  8  9  2  0
  8 10  1  0
 10 11  1  0
 11 12  2  0
 12 13  1  0
 13 14  2  0
 14 15  1  0
 14 16  1  0
 16 17  2  0
 17 18  1  0
 18 19  2  0
 18 20  1  0
 20 21  1  0
 21 22  2  0
 22 23  1  0
 23 24  2  0
 24 25  1  0
 24 26  1  0
 26 27  2  0
  7 28  1  0
 28 29  2  0
  2 30  1  0
 30 31  2  0
 31 32  1  0
 32 33  1  0
 33 34  1  0
 29  4  1  0
 34 30  1  0
 17 11  1  0
 27 21  1  0
  1 35  1  0
  1 36  1  0
  1 37  1  0
  3 38  1  0
  3 39  1  0
  5 40  1  0
  6 41  1  0
 10 42  1  0
 12 43  1  0
 13 44  1  0
 16 45  1  0
 20 46  1  0
 22 47  1  0
 23 48  1  0
 26 49  1  0
 28 50  1  0
 29 51  1  0
 32 52  1  0
 32 53  1  0
 33 54  1  0
 33 55  1  0
 34 56  1  0
M  END
$$$$
