@<TRIPOS>MOLECULE
*****
 36 37 0 0 0
SMALL
GASTEIGER

@<TRIPOS>ATOM
      1 O          -6.2485   -0.3125   -1.2896 O.2     1  UNL1       -0.2737
      2 C          -5.7528   -0.5780   -0.1733 C.2     1  UNL1        0.2354
      3 C          -4.4367    0.0251    0.1712 C.3     1  UNL1        0.0263
      4 C          -3.9040    0.8851   -0.9185 C.3     1  UNL1       -0.0393
      5 C          -2.5929    1.5178   -0.7019 C.3     1  UNL1       -0.0094
      6 C          -1.4448    0.5822   -0.6124 C.ar    1  UNL1        0.0491
      7 C          -1.5114   -0.7474   -0.8372 C.ar    1  UNL1       -0.0010
      8 S           0.2287   -1.2914   -0.6397 S.2     1  UNL1       -0.0760
      9 C           0.7573    0.4726   -0.2710 C.ar    1  UNL1        0.1014
     10 C           2.1933    0.7593    0.0095 C.2     1  UNL1       -0.0290
     11 C           3.0799   -0.2143   -0.0009 C.2     1  UNL1       -0.0521
     12 C           4.5041    0.0046    0.2669 C.ar    1  UNL1       -0.0249
     13 C           5.0335    1.2409    0.5507 C.ar    1  UNL1       -0.0546
     14 C           6.3805    1.3668    0.7911 C.ar    1  UNL1       -0.0612
     15 C           7.2482    0.2990    0.7626 C.ar    1  UNL1       -0.0617
     16 C           6.7030   -0.9296    0.4775 C.ar    1  UNL1       -0.0612
     17 C           5.3653   -1.0864    0.2337 C.ar    1  UNL1       -0.0546
     18 N          -0.2118    1.0178   -0.3417 N.ar    1  UNL1       -0.2446
     19 N          -6.4204   -1.4227    0.7310 N.am    1  UNL1       -0.1975
     20 O          -7.6003   -1.9663    0.4278 O.3     1  UNL1       -0.2952
     21 H          -4.5954    0.6182    1.1248 H       1  UNL1        0.0359
     22 H          -3.7451   -0.7772    0.4332 H       1  UNL1        0.0359
     23 H          -4.6547    1.6940   -1.1667 H       1  UNL1        0.0273
     24 H          -3.8434    0.3046   -1.8868 H       1  UNL1        0.0273
     25 H          -2.3566    2.2244   -1.5564 H       1  UNL1        0.0328
     26 H          -2.6665    2.1746    0.1965 H       1  UNL1        0.0328
     27 H          -2.2873   -1.4525   -1.0965 H       1  UNL1        0.0712
     28 H           2.4933    1.7604    0.2183 H       1  UNL1        0.0644
     29 H           2.7520   -1.2223   -0.2154 H       1  UNL1        0.0624
     30 H           4.3982    2.1235    0.5876 H       1  UNL1        0.0623
     31 H           6.7805    2.3640    1.0156 H       1  UNL1        0.0618
     32 H           8.3151    0.4387    0.9594 H       1  UNL1        0.0618
     33 H           7.4115   -1.7701    0.4592 H       1  UNL1        0.0618
     34 H           5.0054   -2.0814    0.0161 H       1  UNL1        0.0623
     35 H          -6.0124   -1.6596    1.6867 H       1  UNL1        0.1822
     36 H          -8.3649   -1.3603    0.5884 H       1  UNL1        0.2414
@<TRIPOS>BOND
     1     1     2    2
     2     2     3    1
     3     3     4    1
     4     4     5    1
     5     5     6    1
     6     6     7   ar
     7     7     8   ar
     8     8     9   ar
     9     9    10    1
    10    10    11    2
    11    11    12    1
    12    12    13   ar
    13    13    14   ar
    14    14    15   ar
    15    15    16   ar
    16    16    17   ar
    17     9    18   ar
    18     2    19   am
    19    19    20    1
    20    18     6   ar
    21    17    12   ar
    22     3    21    1
    23     3    22    1
    24     4    23    1
    25     4    24    1
    26     5    25    1
    27     5    26    1
    28     7    27    1
    29    10    28    1
    30    11    29    1
    31    13    30    1
    32    14    31    1
    33    15    32    1
    34    16    33    1
    35    17    34    1
    36    19    35    1
    37    20    36    1
