
     RDKit          3D

 36 37  0  0  0  0  0  0  0  0999 V2000
   -6.2485   -0.3125   -1.2896 O   0  0  0  0  0  0  0  0  0  0  0  0
   -5.7528   -0.5780   -0.1733 C   0  0  0  0  0  0  0  0  0  0  0  0
   -4.4367    0.0251    0.1712 C   0  0  0  0  0  0  0  0  0  0  0  0
   -3.9040    0.8851   -0.9185 C   0  0  0  0  0  0  0  0  0  0  0  0
   -2.5929    1.5178   -0.7019 C   0  0  0  0  0  0  0  0  0  0  0  0
   -1.4448    0.5822   -0.6124 C   0  0  0  0  0  0  0  0  0  0  0  0
   -1.5114   -0.7474   -0.8372 C   0  0  0  0  0  0  0  0  0  0  0  0
    0.2287   -1.2914   -0.6397 S   0  0  0  0  0  0  0  0  0  0  0  0
    0.7573    0.4726   -0.2710 C   0  0  0  0  0  0  0  0  0  0  0  0
    2.1933    0.7593    0.0095 C   0  0  0  0  0  0  0  0  0  0  0  0
    3.0799   -0.2143   -0.0009 C   0  0  0  0  0  0  0  0  0  0  0  0
    4.5041    0.0046    0.2669 C   0  0  0  0  0  0  0  0  0  0  0  0
    5.0335    1.2409    0.5507 C   0  0  0  0  0  0  0  0  0  0  0  0
    6.3805    1.3668    0.7911 C   0  0  0  0  0  0  0  0  0  0  0  0
    7.2482    0.2990    0.7626 C   0  0  0  0  0  0  0  0  0  0  0  0
    6.7030   -0.9296    0.4775 C   0  0  0  0  0  0  0  0  0  0  0  0
    5.3653   -1.0864    0.2337 C   0  0  0  0  0  0  0  0  0  0  0  0
   -0.2118    1.0178   -0.3417 N   0  0  0  0  0  0  0  0  0  0  0  0
   -6.4204   -1.4227    0.7310 N   0  0  0  0  0  0  0  0  0  0  0  0
   -7.6003   -1.9663    0.4278 O   0  0  0  0  0  0  0  0  0  0  0  0
   -4.5954    0.6182    1.1248 H   0  0  0  0  0  0  0  0  0  0  0  0
   -3.7451   -0.7772    0.4332 H   0  0  0  0  0  0  0  0  0  0  0  0
   -4.6547    1.6940   -1.1667 H   0  0  0  0  0  0  0  0  0  0  0  0
   -3.8434    0.3046   -1.8868 H   0  0  0  0  0  0  0  0  0  0  0  0
   -2.3566    2.2244   -1.5564 H   0  0  0  0  0  0  0  0  0  0  0  0
   -2.6665    2.1746    0.1965 H   0  0  0  0  0  0  0  0  0  0  0  0
   -2.2873   -1.4525   -1.0965 H   0  0  0  0  0  0  0  0  0  0  0  0
    2.4933    1.7604    0.2183 H   0  0  0  0  0  0  0  0  0  0  0  0
    2.7520   -1.2223   -0.2154 H   0  0  0  0  0  0  0  0  0  0  0  0
    4.3982    2.1235    0.5876 H   0  0  0  0  0  0  0  0  0  0  0  0
    6.7805    2.3640    1.0156 H   0  0  0  0  0  0  0  0  0  0  0  0
    8.3151    0.4387    0.9594 H   0  0  0  0  0  0  0  0  0  0  0  0
    7.4115   -1.7701    0.4592 H   0  0  0  0  0  0  0  0  0  0  0  0
    5.0054   -2.0814    0.0161 H   0  0  0  0  0  0  0  0  0  0  0  0
   -6.0124   -1.6596    1.6867 H   0  0  0  0  0  0  0  0  0  0  0  0
   -8.3649   -1.3603    0.5884 H   0  0  0  0  0  0  0  0  0  0  0  0
  1  2  2  0
  2  3  1  0
  3  4  1  0
  4  5  1  0
  5  6  1  0
  6  7  2  0
  7  8  1  0
  8  9  1  0
  9 10  1  0
 10 11  2  0
 11 12  1  0
 12 13  2  0
 13 14  1  0
 14 15  2  0
 15 16  1  0
 16 17  2  0
  9 18  2  0
  2 19  1  0
 19 20  1  0
 18  6  1  0
 17 12  1  0
  3 21  1  0
  3 22  1  0
  4 23  1  0
  4 24  1  0
  5 25  1  0
  5 26  1  0
  7 27  1  0
 10 28  1  0
 11 29  1  0
 13 30  1  0
 14 31  1  0
 15 32  1  0
 16 33  1  0
 17 34  1  0
 19 35  1  0
 20 36  1  0
M  END
$$$$
