@<TRIPOS>MOLECULE
*****
 55 59 0 0 0
SMALL
GASTEIGER

@<TRIPOS>ATOM
      1 C           2.3586    1.0961   -3.1289 C.3     1  UNL1       -0.0394
      2 C           3.0609    0.6773   -1.8962 C.ar    1  UNL1       -0.0471
      3 C           4.4241    0.3502   -1.9587 C.ar    1  UNL1       -0.0565
      4 C           5.1470   -0.0122   -0.8432 C.ar    1  UNL1       -0.0343
      5 C           4.5469   -0.0677    0.3976 C.ar    1  UNL1        0.0864
      6 N           5.3009   -0.4426    1.5652 N.ar    1  UNL1       -0.1503
      7 N           6.2967    0.2194    2.1252 N.ar    1  UNL1       -0.1556
      8 C           6.7580   -0.4289    3.1977 C.ar    1  UNL1        0.0697
      9 C           5.9977   -1.5733    3.3145 C.ar    1  UNL1        0.0697
     10 N           5.1280   -1.5300    2.2961 N.ar    1  UNL1       -0.1556
     11 C           3.2173    0.2496    0.4644 C.ar    1  UNL1       -0.0311
     12 C           2.4631    0.6222   -0.6699 C.ar    1  UNL1       -0.0406
     13 C           1.0350    0.9056   -0.4912 C.3     1  UNL1       -0.0065
     14 C           0.0872   -0.2169   -0.7488 C.3     1  UNL1        0.0537
     15 C           0.0796   -0.7886   -2.1298 C.3     1  UNL1        0.0666
     16 O          -0.9948   -1.7028   -2.1767 O.3     1  UNL1       -0.3764
     17 C          -2.2075   -1.0211   -2.2841 C.3     1  UNL1        0.0635
     18 C          -2.1413    0.3664   -1.6358 C.3     1  UNL1        0.0388
     19 N          -1.2613    0.2537   -0.5082 N.am    1  UNL1       -0.2897
     20 C          -1.7038    0.5792    0.7730 C.2     1  UNL1        0.2491
     21 O          -0.9308    0.4734    1.7518 O.2     1  UNL1       -0.2699
     22 C          -3.0559    1.0421    0.9973 C.ar    1  UNL1        0.0641
     23 C          -3.3992    2.3913    0.9682 C.ar    1  UNL1       -0.0461
     24 C          -4.6578    2.8520    1.1818 C.ar    1  UNL1       -0.0425
     25 C          -5.6721    1.9732    1.4432 C.ar    1  UNL1        0.0431
     26 CL         -7.2799    2.6066    1.7135 Cl      1  UNL1       -0.0835
     27 C          -5.3745    0.6285    1.4808 C.ar    1  UNL1       -0.0155
     28 C          -4.0813    0.1642    1.2605 C.ar    1  UNL1        0.0996
     29 N          -3.8620   -1.2516    1.3163 N.ar    1  UNL1       -0.1495
     30 N          -2.7832   -1.9147    1.6731 N.ar    1  UNL1       -0.1556
     31 C          -2.9829   -3.2398    1.5867 C.ar    1  UNL1        0.0697
     32 C          -4.2872   -3.3803    1.1420 C.ar    1  UNL1        0.0697
     33 N          -4.7715   -2.1497    0.9952 N.ar    1  UNL1       -0.1556
     34 H           2.1535    0.2608   -3.8316 H       1  UNL1        0.0278
     35 H           3.0423    1.7721   -3.7322 H       1  UNL1        0.0278
     36 H           1.4720    1.7037   -2.9552 H       1  UNL1        0.0278
     37 H           4.8915    0.3963   -2.9417 H       1  UNL1        0.0621
     38 H           6.1989   -0.2630   -0.8952 H       1  UNL1        0.0639
     39 H           7.5795   -0.1259    3.8663 H       1  UNL1        0.0864
     40 H           6.0893   -2.3444    4.0743 H       1  UNL1        0.0864
     41 H           2.7102    0.2147    1.4377 H       1  UNL1        0.0642
     42 H           0.8964    1.2186    0.5713 H       1  UNL1        0.0332
     43 H           0.6994    1.8010   -1.0695 H       1  UNL1        0.0332
     44 H           0.3174   -1.0767   -0.0442 H       1  UNL1        0.0526
     45 H          -0.1952   -0.0011   -2.8821 H       1  UNL1        0.0578
     46 H           0.9848   -1.3190   -2.3824 H       1  UNL1        0.0578
     47 H          -2.9465   -1.5981   -1.6926 H       1  UNL1        0.0575
     48 H          -2.5797   -0.9750   -3.3238 H       1  UNL1        0.0575
     49 H          -3.1943    0.6052   -1.3334 H       1  UNL1        0.0487
     50 H          -1.8503    1.1541   -2.3507 H       1  UNL1        0.0487
     51 H          -2.5565    3.0635    0.7549 H       1  UNL1        0.0626
     52 H          -4.8101    3.9327    1.1345 H       1  UNL1        0.0632
     53 H          -6.1815   -0.0564    1.6871 H       1  UNL1        0.0654
     54 H          -2.3199   -4.0662    1.7999 H       1  UNL1        0.0864
     55 H          -4.8550   -4.2775    0.9363 H       1  UNL1        0.0864
@<TRIPOS>BOND
     1     1     2    1
     2     2     3   ar
     3     3     4   ar
     4     4     5   ar
     5     5     6    1
     6     6     7   ar
     7     7     8   ar
     8     8     9   ar
     9     9    10   ar
    10     5    11   ar
    11    11    12   ar
    12    12    13    1
    13    13    14    1
    14    14    15    1
    15    15    16    1
    16    16    17    1
    17    17    18    1
    18    18    19    1
    19    19    20   am
    20    20    21    2
    21    20    22    1
    22    22    23   ar
    23    23    24   ar
    24    24    25   ar
    25    25    26    1
    26    25    27   ar
    27    27    28   ar
    28    28    29    1
    29    29    30   ar
    30    30    31   ar
    31    31    32   ar
    32    32    33   ar
    33    12     2   ar
    34    19    14    1
    35    28    22   ar
    36    33    29   ar
    37    10     6   ar
    38     1    34    1
    39     1    35    1
    40     1    36    1
    41     3    37    1
    42     4    38    1
    43     8    39    1
    44     9    40    1
    45    11    41    1
    46    13    42    1
    47    13    43    1
    48    14    44    1
    49    15    45    1
    50    15    46    1
    51    17    47    1
    52    17    48    1
    53    18    49    1
    54    18    50    1
    55    23    51    1
    56    24    52    1
    57    27    53    1
    58    31    54    1
    59    32    55    1
