
     RDKit          3D

 55 59  0  0  0  0  0  0  0  0999 V2000
    2.3586    1.0961   -3.1289 C   0  0  0  0  0  0  0  0  0  0  0  0
    3.0609    0.6773   -1.8962 C   0  0  0  0  0  0  0  0  0  0  0  0
    4.4241    0.3502   -1.9587 C   0  0  0  0  0  0  0  0  0  0  0  0
    5.1470   -0.0122   -0.8432 C   0  0  0  0  0  0  0  0  0  0  0  0
    4.5469   -0.0677    0.3976 C   0  0  0  0  0  0  0  0  0  0  0  0
    5.3009   -0.4426    1.5652 N   0  0  0  0  0  0  0  0  0  0  0  0
    6.2967    0.2194    2.1252 N   0  0  0  0  0  0  0  0  0  0  0  0
    6.7580   -0.4289    3.1977 C   0  0  0  0  0  0  0  0  0  0  0  0
    5.9977   -1.5733    3.3145 C   0  0  0  0  0  0  0  0  0  0  0  0
    5.1280   -1.5300    2.2961 N   0  0  0  0  0  0  0  0  0  0  0  0
    3.2173    0.2496    0.4644 C   0  0  0  0  0  0  0  0  0  0  0  0
    2.4631    0.6222   -0.6699 C   0  0  0  0  0  0  0  0  0  0  0  0
    1.0350    0.9056   -0.4912 C   0  0  0  0  0  0  0  0  0  0  0  0
    0.0872   -0.2169   -0.7488 C   0  0  2  0  0  0  0  0  0  0  0  0
    0.0796   -0.7886   -2.1298 C   0  0  0  0  0  0  0  0  0  0  0  0
   -0.9948   -1.7028   -2.1767 O   0  0  0  0  0  0  0  0  0  0  0  0
   -2.2075   -1.0211   -2.2841 C   0  0  0  0  0  0  0  0  0  0  0  0
   -2.1413    0.3664   -1.6358 C   0  0  0  0  0  0  0  0  0  0  0  0
   -1.2613    0.2537   -0.5082 N   0  0  0  0  0  0  0  0  0  0  0  0
   -1.7038    0.5792    0.7730 C   0  0  0  0  0  0  0  0  0  0  0  0
   -0.9308    0.4734    1.7518 O   0  0  0  0  0  0  0  0  0  0  0  0
   -3.0559    1.0421    0.9973 C   0  0  0  0  0  0  0  0  0  0  0  0
   -3.3992    2.3913    0.9682 C   0  0  0  0  0  0  0  0  0  0  0  0
   -4.6578    2.8520    1.1818 C   0  0  0  0  0  0  0  0  0  0  0  0
   -5.6721    1.9732    1.4432 C   0  0  0  0  0  0  0  0  0  0  0  0
   -7.2799    2.6066    1.7135 Cl  0  0  0  0  0  0  0  0  0  0  0  0
   -5.3745    0.6285    1.4808 C   0  0  0  0  0  0  0  0  0  0  0  0
   -4.0813    0.1642    1.2605 C   0  0  0  0  0  0  0  0  0  0  0  0
   -3.8620   -1.2516    1.3163 N   0  0  0  0  0  0  0  0  0  0  0  0
   -2.7832   -1.9147    1.6731 N   0  0  0  0  0  0  0  0  0  0  0  0
   -2.9829   -3.2398    1.5867 C   0  0  0  0  0  0  0  0  0  0  0  0
   -4.2872   -3.3803    1.1420 C   0  0  0  0  0  0  0  0  0  0  0  0
   -4.7715   -2.1497    0.9952 N   0  0  0  0  0  0  0  0  0  0  0  0
    2.1535    0.2608   -3.8316 H   0  0  0  0  0  0  0  0  0  0  0  0
    3.0423    1.7721   -3.7322 H   0  0  0  0  0  0  0  0  0  0  0  0
    1.4720    1.7037   -2.9552 H   0  0  0  0  0  0  0  0  0  0  0  0
    4.8915    0.3963   -2.9417 H   0  0  0  0  0  0  0  0  0  0  0  0
    6.1989   -0.2630   -0.8952 H   0  0  0  0  0  0  0  0  0  0  0  0
    7.5795   -0.1259    3.8663 H   0  0  0  0  0  0  0  0  0  0  0  0
    6.0893   -2.3444    4.0743 H   0  0  0  0  0  0  0  0  0  0  0  0
    2.7102    0.2147    1.4377 H   0  0  0  0  0  0  0  0  0  0  0  0
    0.8964    1.2186    0.5713 H   0  0  0  0  0  0  0  0  0  0  0  0
    0.6994    1.8010   -1.0695 H   0  0  0  0  0  0  0  0  0  0  0  0
    0.3174   -1.0767   -0.0442 H   0  0  0  0  0  0  0  0  0  0  0  0
   -0.1952   -0.0011   -2.8821 H   0  0  0  0  0  0  0  0  0  0  0  0
    0.9848   -1.3190   -2.3824 H   0  0  0  0  0  0  0  0  0  0  0  0
   -2.9465   -1.5981   -1.6926 H   0  0  0  0  0  0  0  0  0  0  0  0
   -2.5797   -0.9750   -3.3238 H   0  0  0  0  0  0  0  0  0  0  0  0
   -3.1943    0.6052   -1.3334 H   0  0  0  0  0  0  0  0  0  0  0  0
   -1.8503    1.1541   -2.3507 H   0  0  0  0  0  0  0  0  0  0  0  0
   -2.5565    3.0635    0.7549 H   0  0  0  0  0  0  0  0  0  0  0  0
   -4.8101    3.9327    1.1345 H   0  0  0  0  0  0  0  0  0  0  0  0
   -6.1815   -0.0564    1.6871 H   0  0  0  0  0  0  0  0  0  0  0  0
   -2.3199   -4.0662    1.7999 H   0  0  0  0  0  0  0  0  0  0  0  0
   -4.8550   -4.2775    0.9363 H   0  0  0  0  0  0  0  0  0  0  0  0
  1  2  1  0
  2  3  2  0
  3  4  1  0
  4  5  2  0
  5  6  1  0
  6  7  1  0
  7  8  2  0
  8  9  1  0
  9 10  2  0
  5 11  1  0
 11 12  2  0
 12 13  1  0
 13 14  1  0
 14 15  1  0
 15 16  1  0
 16 17  1  0
 17 18  1  0
 18 19  1  0
 19 20  1  0
 20 21  2  0
 20 22  1  0
 22 23  2  0
 23 24  1  0
 24 25  2  0
 25 26  1  0
 25 27  1  0
 27 28  2  0
 28 29  1  0
 29 30  1  0
 30 31  2  0
 31 32  1  0
 32 33  2  0
 12  2  1  0
 19 14  1  0
 28 22  1  0
 33 29  1  0
 10  6  1  0
  1 34  1  0
  1 35  1  0
  1 36  1  0
  3 37  1  0
  4 38  1  0
  8 39  1  0
  9 40  1  0
 11 41  1  0
 13 42  1  0
 13 43  1  0
 14 44  1  1
 15 45  1  0
 15 46  1  0
 17 47  1  0
 17 48  1  0
 18 49  1  0
 18 50  1  0
 23 51  1  0
 24 52  1  0
 27 53  1  0
 31 54  1  0
 32 55  1  0
M  END
$$$$
