@<TRIPOS>MOLECULE
*****
 34 35 0 0 0
SMALL
GASTEIGER

@<TRIPOS>ATOM
      1 C           6.0915    0.7848    0.1637 C.3     1  UNL1        0.0596
      2 S           5.1956   -0.6929    0.4720 S.O2    1  UNL1       -0.0045
      3 O           5.6935   -1.7592   -0.4671 O.2     1  UNL1       -0.1696
      4 O           5.4533   -1.1971    1.8630 O.2     1  UNL1       -0.1696
      5 C           3.4495   -0.4859    0.2671 C.ar    1  UNL1        0.1075
      6 C           2.5509   -0.7091    1.3075 C.ar    1  UNL1       -0.0165
      7 C           1.1923   -0.5389    1.1163 C.ar    1  UNL1        0.0506
      8 CL          0.1973   -0.8629    2.5359 Cl      1  UNL1       -0.0829
      9 C           0.7044   -0.1446   -0.1106 C.ar    1  UNL1        0.0034
     10 C           1.5881    0.0785   -1.1465 C.ar    1  UNL1       -0.0324
     11 C           2.9447   -0.0915   -0.9554 C.ar    1  UNL1        0.0664
     12 CL          4.0030    0.2136   -2.3277 Cl      1  UNL1       -0.0816
     13 C          -0.7465   -0.0141   -0.1363 C.ar    1  UNL1        0.0034
     14 C          -1.5262    1.0879    0.1429 C.ar    1  UNL1        0.0506
     15 CL         -0.6359    2.5103    0.5853 Cl      1  UNL1       -0.0829
     16 C          -2.8958    0.9635    0.0482 C.ar    1  UNL1       -0.0165
     17 C          -3.5301   -0.1960   -0.3085 C.ar    1  UNL1        0.1075
     18 C          -2.7383   -1.3049   -0.5891 C.ar    1  UNL1        0.0664
     19 CL         -3.5559   -2.7988   -1.0488 Cl      1  UNL1       -0.0816
     20 C          -1.3566   -1.2157   -0.5040 C.ar    1  UNL1       -0.0324
     21 S          -5.2656   -0.2860   -0.4092 S.O2    1  UNL1       -0.0045
     22 C          -5.9483    1.2977    0.0110 C.3     1  UNL1        0.0596
     23 O          -5.8041   -1.3303    0.5311 O.2     1  UNL1       -0.1696
     24 O          -5.6570   -0.6231   -1.8373 O.2     1  UNL1       -0.1696
     25 H           6.2880    1.3837    1.0869 H       1  UNL1        0.0468
     26 H           5.5787    1.4420   -0.5601 H       1  UNL1        0.0468
     27 H           7.1122    0.4931   -0.1998 H       1  UNL1        0.0468
     28 H           3.0300   -1.0185    2.2419 H       1  UNL1        0.0652
     29 H           1.1245    0.3856   -2.0772 H       1  UNL1        0.0639
     30 H          -3.4527    1.8833    0.2853 H       1  UNL1        0.0652
     31 H          -0.8433   -2.1521   -0.7477 H       1  UNL1        0.0639
     32 H          -5.4166    2.0963   -0.5567 H       1  UNL1        0.0468
     33 H          -7.0343    1.3353   -0.2070 H       1  UNL1        0.0468
     34 H          -5.7904    1.4661    1.1085 H       1  UNL1        0.0468
@<TRIPOS>BOND
     1     1     2    1
     2     2     3    2
     3     2     4    2
     4     2     5    1
     5     5     6   ar
     6     6     7   ar
     7     7     8    1
     8     7     9   ar
     9     9    10   ar
    10    10    11   ar
    11    11    12    1
    12     9    13    1
    13    13    14   ar
    14    14    15    1
    15    14    16   ar
    16    16    17   ar
    17    17    18   ar
    18    18    19    1
    19    18    20   ar
    20    17    21    1
    21    21    22    1
    22    21    23    2
    23    21    24    2
    24    11     5   ar
    25    20    13   ar
    26     1    25    1
    27     1    26    1
    28     1    27    1
    29     6    28    1
    30    10    29    1
    31    16    30    1
    32    20    31    1
    33    22    32    1
    34    22    33    1
    35    22    34    1
