@<TRIPOS>MOLECULE
*****
 77 81 0 0 0
SMALL
GASTEIGER

@<TRIPOS>ATOM
      1 N          -8.6714    3.9747   -1.6354 N.3     1  UNL1       -0.2080
      2 S          -7.0000    3.7713   -1.9721 S.O2    1  UNL1        0.0284
      3 O          -6.5667    2.3444   -1.8496 O.2     1  UNL1       -0.1584
      4 O          -6.7612    4.2177   -3.3927 O.2     1  UNL1       -0.1584
      5 C          -6.0577    4.8121   -0.8709 C.3     1  UNL1        0.0969
      6 C          -4.5819    4.6281   -1.1643 C.3     1  UNL1        0.0325
      7 N          -4.1771    3.2468   -0.9624 N.am    1  UNL1       -0.3118
      8 C          -4.2981    2.5969    0.2925 C.2     1  UNL1        0.2439
      9 O          -4.7672    3.2405    1.2553 O.2     1  UNL1       -0.2733
     10 C          -3.8953    1.1785    0.5329 C.3     1  UNL1        0.2003
     11 C          -2.4314    1.0353    0.1930 C.ar    1  UNL1        0.1126
     12 N          -1.6975    0.7078   -0.6656 N.ar    1  UNL1       -0.2416
     13 C          -0.3972    0.6551   -0.6893 C.ar    1  UNL1        0.0786
     14 C           0.4539    0.2594   -1.7343 C.ar    1  UNL1       -0.0346
     15 C           1.8131    0.2658   -1.5843 C.ar    1  UNL1       -0.0519
     16 C           2.4455    0.6501   -0.4277 C.ar    1  UNL1       -0.0138
     17 C           3.8788    0.6669   -0.2508 C.ar    1  UNL1        0.0196
     18 C           4.8637    0.9223   -1.1759 C.ar    1  UNL1        0.0571
     19 N           6.0467    0.8106   -0.5567 N.ar    1  UNL1       -0.1790
     20 N           5.9055    0.4964    0.7229 N.ar    1  UNL1       -0.2696
     21 C           6.8969    0.2803    1.7354 C.3     1  UNL1        0.0542
     22 C           7.3600   -1.1071    1.9222 C.3     1  UNL1        0.0186
     23 N           7.9791   -1.8148    0.8937 N.3     1  UNL1       -0.2963
     24 C           7.1911   -2.2218   -0.2020 C.3     1  UNL1        0.0225
     25 C           7.8275   -1.8908   -1.5457 C.3     1  UNL1        0.0604
     26 O           9.0758   -2.5155   -1.6549 O.3     1  UNL1       -0.3772
     27 C           9.8257   -2.4032   -0.4989 C.3     1  UNL1        0.0604
     28 C           9.2477   -1.3482    0.4211 C.3     1  UNL1        0.0225
     29 C           4.5653    0.4060    0.9195 C.ar    1  UNL1        0.0332
     30 C           1.6045    1.0475    0.6213 C.ar    1  UNL1       -0.0381
     31 C           0.2540    1.0365    0.4576 C.ar    1  UNL1        0.0398
     32 S          -1.1474    1.4598    1.5214 S.2     1  UNL1       -0.0697
     33 S          -4.2355    0.6702    2.1705 S.O2    1  UNL1       -0.0096
     34 O          -5.7364    0.6926    2.3573 O.2     1  UNL1       -0.1729
     35 O          -3.6229    1.5771    3.1993 O.2     1  UNL1       -0.1729
     36 C          -3.6774   -0.9629    2.4613 C.3     1  UNL1        0.0920
     37 C          -4.3081   -1.9672    1.5799 C.ar    1  UNL1       -0.0265
     38 C          -3.7419   -2.3146    0.3712 C.ar    1  UNL1       -0.0565
     39 C          -4.3394   -3.2738   -0.4553 C.ar    1  UNL1       -0.0498
     40 C          -5.5182   -3.9074   -0.0902 C.ar    1  UNL1        0.0548
     41 C          -6.1071   -4.9197   -1.0002 C.3     1  UNL1        0.4174
     42 F          -6.9328   -4.2873   -1.8931 F       1  UNL1       -0.1659
     43 F          -6.7932   -5.8929   -0.2925 F       1  UNL1       -0.1659
     44 F          -5.0578   -5.4854   -1.6989 F       1  UNL1       -0.1659
     45 C          -6.0712   -3.5522    1.1147 C.ar    1  UNL1       -0.0498
     46 C          -5.4832   -2.6092    1.9264 C.ar    1  UNL1       -0.0565
     47 H          -8.7649    4.3932   -0.6854 H       1  UNL1        0.1438
     48 H          -9.1110    4.6279   -2.3068 H       1  UNL1        0.1438
     49 H          -6.3201    5.8571   -1.1294 H       1  UNL1        0.0531
     50 H          -6.3232    4.6417    0.1820 H       1  UNL1        0.0531
     51 H          -4.0111    5.3439   -0.5757 H       1  UNL1        0.0478
     52 H          -4.4403    4.8629   -2.2361 H       1  UNL1        0.0478
     53 H          -3.7750    2.6684   -1.7424 H       1  UNL1        0.1488
     54 H          -4.4275    0.5227   -0.1810 H       1  UNL1        0.0705
     55 H           0.0669   -0.0648   -2.6954 H       1  UNL1        0.0639
     56 H           2.4373   -0.0474   -2.4187 H       1  UNL1        0.0624
     57 H           4.7205    1.1740   -2.2356 H       1  UNL1        0.0854
     58 H           7.7347    1.0154    1.6101 H       1  UNL1        0.0521
     59 H           6.4183    0.6032    2.7175 H       1  UNL1        0.0521
     60 H           6.4587   -1.7070    2.2611 H       1  UNL1        0.0445
     61 H           7.9991   -1.1093    2.8747 H       1  UNL1        0.0445
     62 H           6.1606   -1.8494   -0.2118 H       1  UNL1        0.0449
     63 H           7.0693   -3.3510   -0.2439 H       1  UNL1        0.0449
     64 H           7.9014   -0.8067   -1.7406 H       1  UNL1        0.0572
     65 H           7.1782   -2.3260   -2.3291 H       1  UNL1        0.0572
     66 H           9.8786   -3.3984    0.0180 H       1  UNL1        0.0572
     67 H          10.8759   -2.0904   -0.6981 H       1  UNL1        0.0572
     68 H           9.9766   -1.1714    1.2562 H       1  UNL1        0.0449
     69 H           9.1333   -0.4194   -0.1766 H       1  UNL1        0.0449
     70 H           4.0676    0.1664    1.8455 H       1  UNL1        0.0832
     71 H           2.0173    1.3588    1.5465 H       1  UNL1        0.0635
     72 H          -3.8781   -1.2848    3.5261 H       1  UNL1        0.0550
     73 H          -2.5729   -1.0690    2.3587 H       1  UNL1        0.0550
     74 H          -2.8269   -1.8231    0.0888 H       1  UNL1        0.0621
     75 H          -3.8786   -3.5283   -1.3927 H       1  UNL1        0.0623
     76 H          -7.0028   -4.0393    1.4242 H       1  UNL1        0.0623
     77 H          -5.9214   -2.3264    2.8843 H       1  UNL1        0.0621
@<TRIPOS>BOND
     1     1     2    1
     2     2     3    2
     3     2     4    2
     4     2     5    1
     5     5     6    1
     6     6     7    1
     7     7     8   am
     8     8     9    2
     9     8    10    1
    10    10    11    1
    11    11    12   ar
    12    12    13   ar
    13    13    14   ar
    14    14    15   ar
    15    15    16   ar
    16    16    17    1
    17    17    18   ar
    18    18    19   ar
    19    19    20   ar
    20    20    21    1
    21    21    22    1
    22    22    23    1
    23    23    24    1
    24    24    25    1
    25    25    26    1
    26    26    27    1
    27    27    28    1
    28    20    29   ar
    29    16    30   ar
    30    30    31   ar
    31    31    32   ar
    32    10    33    1
    33    33    34    2
    34    33    35    2
    35    33    36    1
    36    36    37    1
    37    37    38   ar
    38    38    39   ar
    39    39    40   ar
    40    40    41    1
    41    41    42    1
    42    41    43    1
    43    41    44    1
    44    40    45   ar
    45    45    46   ar
    46    32    11   ar
    47    46    37   ar
    48    31    13   ar
    49    29    17   ar
    50    28    23    1
    51     1    47    1
    52     1    48    1
    53     5    49    1
    54     5    50    1
    55     6    51    1
    56     6    52    1
    57     7    53    1
    58    10    54    1
    59    14    55    1
    60    15    56    1
    61    18    57    1
    62    21    58    1
    63    21    59    1
    64    22    60    1
    65    22    61    1
    66    24    62    1
    67    24    63    1
    68    25    64    1
    69    25    65    1
    70    27    66    1
    71    27    67    1
    72    28    68    1
    73    28    69    1
    74    29    70    1
    75    30    71    1
    76    36    72    1
    77    36    73    1
    78    38    74    1
    79    39    75    1
    80    45    76    1
    81    46    77    1
