
     RDKit          3D

 77 81  0  0  0  0  0  0  0  0999 V2000
   -8.6714    3.9747   -1.6354 N   0  0  0  0  0  0  0  0  0  0  0  0
   -7.0000    3.7713   -1.9721 S   0  0  0  0  0  6  0  0  0  0  0  0
   -6.5667    2.3444   -1.8496 O   0  0  0  0  0  0  0  0  0  0  0  0
   -6.7612    4.2177   -3.3927 O   0  0  0  0  0  0  0  0  0  0  0  0
   -6.0577    4.8121   -0.8709 C   0  0  0  0  0  0  0  0  0  0  0  0
   -4.5819    4.6281   -1.1643 C   0  0  0  0  0  0  0  0  0  0  0  0
   -4.1771    3.2468   -0.9624 N   0  0  0  0  0  0  0  0  0  0  0  0
   -4.2981    2.5969    0.2925 C   0  0  0  0  0  0  0  0  0  0  0  0
   -4.7672    3.2405    1.2553 O   0  0  0  0  0  0  0  0  0  0  0  0
   -3.8953    1.1785    0.5329 C   0  0  0  0  0  0  0  0  0  0  0  0
   -2.4314    1.0353    0.1930 C   0  0  0  0  0  0  0  0  0  0  0  0
   -1.6975    0.7078   -0.6656 N   0  0  0  0  0  0  0  0  0  0  0  0
   -0.3972    0.6551   -0.6893 C   0  0  0  0  0  0  0  0  0  0  0  0
    0.4539    0.2594   -1.7343 C   0  0  0  0  0  0  0  0  0  0  0  0
    1.8131    0.2658   -1.5843 C   0  0  0  0  0  0  0  0  0  0  0  0
    2.4455    0.6501   -0.4277 C   0  0  0  0  0  0  0  0  0  0  0  0
    3.8788    0.6669   -0.2508 C   0  0  0  0  0  0  0  0  0  0  0  0
    4.8637    0.9223   -1.1759 C   0  0  0  0  0  0  0  0  0  0  0  0
    6.0467    0.8106   -0.5567 N   0  0  0  0  0  0  0  0  0  0  0  0
    5.9055    0.4964    0.7229 N   0  0  0  0  0  0  0  0  0  0  0  0
    6.8969    0.2803    1.7354 C   0  0  0  0  0  0  0  0  0  0  0  0
    7.3600   -1.1071    1.9222 C   0  0  0  0  0  0  0  0  0  0  0  0
    7.9791   -1.8148    0.8937 N   0  0  0  0  0  0  0  0  0  0  0  0
    7.1911   -2.2218   -0.2020 C   0  0  0  0  0  0  0  0  0  0  0  0
    7.8275   -1.8908   -1.5457 C   0  0  0  0  0  0  0  0  0  0  0  0
    9.0758   -2.5155   -1.6549 O   0  0  0  0  0  0  0  0  0  0  0  0
    9.8257   -2.4032   -0.4989 C   0  0  0  0  0  0  0  0  0  0  0  0
    9.2477   -1.3482    0.4211 C   0  0  0  0  0  0  0  0  0  0  0  0
    4.5653    0.4060    0.9195 C   0  0  0  0  0  0  0  0  0  0  0  0
    1.6045    1.0475    0.6213 C   0  0  0  0  0  0  0  0  0  0  0  0
    0.2540    1.0365    0.4576 C   0  0  0  0  0  0  0  0  0  0  0  0
   -1.1474    1.4598    1.5214 S   0  0  0  0  0  0  0  0  0  0  0  0
   -4.2355    0.6702    2.1705 S   0  0  0  0  0  6  0  0  0  0  0  0
   -5.7364    0.6926    2.3573 O   0  0  0  0  0  0  0  0  0  0  0  0
   -3.6229    1.5771    3.1993 O   0  0  0  0  0  0  0  0  0  0  0  0
   -3.6774   -0.9629    2.4613 C   0  0  0  0  0  0  0  0  0  0  0  0
   -4.3081   -1.9672    1.5799 C   0  0  0  0  0  0  0  0  0  0  0  0
   -3.7419   -2.3146    0.3712 C   0  0  0  0  0  0  0  0  0  0  0  0
   -4.3394   -3.2738   -0.4553 C   0  0  0  0  0  0  0  0  0  0  0  0
   -5.5182   -3.9074   -0.0902 C   0  0  0  0  0  0  0  0  0  0  0  0
   -6.1071   -4.9197   -1.0002 C   0  0  0  0  0  0  0  0  0  0  0  0
   -6.9328   -4.2873   -1.8931 F   0  0  0  0  0  0  0  0  0  0  0  0
   -6.7932   -5.8929   -0.2925 F   0  0  0  0  0  0  0  0  0  0  0  0
   -5.0578   -5.4854   -1.6989 F   0  0  0  0  0  0  0  0  0  0  0  0
   -6.0712   -3.5522    1.1147 C   0  0  0  0  0  0  0  0  0  0  0  0
   -5.4832   -2.6092    1.9264 C   0  0  0  0  0  0  0  0  0  0  0  0
   -8.7649    4.3932   -0.6854 H   0  0  0  0  0  0  0  0  0  0  0  0
   -9.1110    4.6279   -2.3068 H   0  0  0  0  0  0  0  0  0  0  0  0
   -6.3201    5.8571   -1.1294 H   0  0  0  0  0  0  0  0  0  0  0  0
   -6.3232    4.6417    0.1820 H   0  0  0  0  0  0  0  0  0  0  0  0
   -4.0111    5.3439   -0.5757 H   0  0  0  0  0  0  0  0  0  0  0  0
   -4.4403    4.8629   -2.2361 H   0  0  0  0  0  0  0  0  0  0  0  0
   -3.7750    2.6684   -1.7424 H   0  0  0  0  0  0  0  0  0  0  0  0
   -4.4275    0.5227   -0.1810 H   0  0  0  0  0  0  0  0  0  0  0  0
    0.0669   -0.0648   -2.6954 H   0  0  0  0  0  0  0  0  0  0  0  0
    2.4373   -0.0474   -2.4187 H   0  0  0  0  0  0  0  0  0  0  0  0
    4.7205    1.1740   -2.2356 H   0  0  0  0  0  0  0  0  0  0  0  0
    7.7347    1.0154    1.6101 H   0  0  0  0  0  0  0  0  0  0  0  0
    6.4183    0.6032    2.7175 H   0  0  0  0  0  0  0  0  0  0  0  0
    6.4587   -1.7070    2.2611 H   0  0  0  0  0  0  0  0  0  0  0  0
    7.9991   -1.1093    2.8747 H   0  0  0  0  0  0  0  0  0  0  0  0
    6.1606   -1.8494   -0.2118 H   0  0  0  0  0  0  0  0  0  0  0  0
    7.0693   -3.3510   -0.2439 H   0  0  0  0  0  0  0  0  0  0  0  0
    7.9014   -0.8067   -1.7406 H   0  0  0  0  0  0  0  0  0  0  0  0
    7.1782   -2.3260   -2.3291 H   0  0  0  0  0  0  0  0  0  0  0  0
    9.8786   -3.3984    0.0180 H   0  0  0  0  0  0  0  0  0  0  0  0
   10.8759   -2.0904   -0.6981 H   0  0  0  0  0  0  0  0  0  0  0  0
    9.9766   -1.1714    1.2562 H   0  0  0  0  0  0  0  0  0  0  0  0
    9.1333   -0.4194   -0.1766 H   0  0  0  0  0  0  0  0  0  0  0  0
    4.0676    0.1664    1.8455 H   0  0  0  0  0  0  0  0  0  0  0  0
    2.0173    1.3588    1.5465 H   0  0  0  0  0  0  0  0  0  0  0  0
   -3.8781   -1.2848    3.5261 H   0  0  0  0  0  0  0  0  0  0  0  0
   -2.5729   -1.0690    2.3587 H   0  0  0  0  0  0  0  0  0  0  0  0
   -2.8269   -1.8231    0.0888 H   0  0  0  0  0  0  0  0  0  0  0  0
   -3.8786   -3.5283   -1.3927 H   0  0  0  0  0  0  0  0  0  0  0  0
   -7.0028   -4.0393    1.4242 H   0  0  0  0  0  0  0  0  0  0  0  0
   -5.9214   -2.3264    2.8843 H   0  0  0  0  0  0  0  0  0  0  0  0
  1  2  1  0
  2  3  2  0
  2  4  2  0
  2  5  1  0
  5  6  1  0
  6  7  1  0
  7  8  1  0
  8  9  2  0
  8 10  1  0
 10 11  1  0
 11 12  2  0
 12 13  1  0
 13 14  2  0
 14 15  1  0
 15 16  2  0
 16 17  1  0
 17 18  1  0
 18 19  2  0
 19 20  1  0
 20 21  1  0
 21 22  1  0
 22 23  1  0
 23 24  1  0
 24 25  1  0
 25 26  1  0
 26 27  1  0
 27 28  1  0
 20 29  1  0
 16 30  1  0
 30 31  2  0
 31 32  1  0
 10 33  1  0
 33 34  2  0
 33 35  2  0
 33 36  1  0
 36 37  1  0
 37 38  2  0
 38 39  1  0
 39 40  2  0
 40 41  1  0
 41 42  1  0
 41 43  1  0
 41 44  1  0
 40 45  1  0
 45 46  2  0
 32 11  1  0
 46 37  1  0
 31 13  1  0
 29 17  2  0
 28 23  1  0
  1 47  1  0
  1 48  1  0
  5 49  1  0
  5 50  1  0
  6 51  1  0
  6 52  1  0
  7 53  1  0
 10 54  1  0
 14 55  1  0
 15 56  1  0
 18 57  1  0
 21 58  1  0
 21 59  1  0
 22 60  1  0
 22 61  1  0
 24 62  1  0
 24 63  1  0
 25 64  1  0
 25 65  1  0
 27 66  1  0
 27 67  1  0
 28 68  1  0
 28 69  1  0
 29 70  1  0
 30 71  1  0
 36 72  1  0
 36 73  1  0
 38 74  1  0
 39 75  1  0
 45 76  1  0
 46 77  1  0
M  END
$$$$
