@<TRIPOS>MOLECULE
*****
 60 64 0 0 0
SMALL
GASTEIGER

@<TRIPOS>ATOM
      1 O           4.4370   -0.6739   -2.8813 O.2     1  UNL1       -0.2507
      2 C           5.1988   -0.9391   -1.9153 C.2     1  UNL1        0.3091
      3 O           6.4018   -1.5655   -2.2088 O.3     1  UNL1       -0.4804
      4 C           4.8502   -0.6068   -0.5085 C.3     1  UNL1        0.0721
      5 C           3.5265    0.0443   -0.5136 C.ar    1  UNL1       -0.0083
      6 C           2.3440   -0.6228   -0.6751 C.ar    1  UNL1        0.0236
      7 N           1.3665    0.2951   -0.6238 N.ar    1  UNL1       -0.3420
      8 C           1.9184    1.5280   -0.4322 C.ar    1  UNL1        0.0496
      9 C           1.3158    2.7702   -0.3163 C.ar    1  UNL1       -0.0376
     10 C           2.0862    3.8936   -0.1252 C.ar    1  UNL1       -0.0598
     11 C           3.4675    3.7762   -0.0493 C.ar    1  UNL1       -0.0611
     12 C           4.0537    2.5076   -0.1696 C.ar    1  UNL1       -0.0523
     13 C           3.2894    1.3871   -0.3599 C.ar    1  UNL1        0.0038
     14 C           0.0081   -0.1709   -0.7842 C.3     1  UNL1        0.0408
     15 C          -0.3228   -1.4769   -0.1362 C.3     1  UNL1        0.0504
     16 N          -1.3654   -1.4079    0.8372 N.3     1  UNL1       -0.1675
     17 C          -1.0557   -1.1710    2.1749 C.3     1  UNL1        0.0459
     18 C          -1.3606    0.2085    2.6694 C.ar    1  UNL1       -0.0315
     19 C          -0.4317    1.2276    2.4999 C.ar    1  UNL1       -0.0546
     20 C          -0.7175    2.4786    2.9690 C.ar    1  UNL1       -0.0262
     21 C          -1.9228    2.7562    3.6153 C.ar    1  UNL1        0.1234
     22 F          -2.1702    3.9993    4.0640 F       1  UNL1       -0.2055
     23 C          -2.8463    1.7633    3.7896 C.ar    1  UNL1       -0.0262
     24 C          -2.5421    0.4873    3.3054 C.ar    1  UNL1       -0.0546
     25 S          -2.7895   -2.2040    0.4709 S.O2    1  UNL1        0.0614
     26 O          -3.7653   -2.0619    1.5923 O.2     1  UNL1       -0.1528
     27 O          -2.6057   -3.7124    0.3126 O.2     1  UNL1       -0.1528
     28 C          -3.5827   -1.5712   -0.9800 C.ar    1  UNL1        0.1057
     29 C          -3.3210   -2.0709   -2.2370 C.ar    1  UNL1       -0.0326
     30 C          -3.9355   -1.5813   -3.3725 C.ar    1  UNL1       -0.0246
     31 C          -4.8511   -0.5541   -3.2849 C.ar    1  UNL1        0.1235
     32 F          -5.4575   -0.0717   -4.4056 F       1  UNL1       -0.2055
     33 C          -5.1213   -0.0459   -2.0326 C.ar    1  UNL1       -0.0246
     34 C          -4.4994   -0.5445   -0.9020 C.ar    1  UNL1       -0.0326
     35 C           0.8925   -2.2302    0.2600 C.3     1  UNL1       -0.0287
     36 C           1.9245   -2.0312   -0.8711 C.3     1  UNL1       -0.0105
     37 H           6.6631   -1.8023   -3.1639 H       1  UNL1        0.2951
     38 H           5.6489    0.0159   -0.0691 H       1  UNL1        0.0427
     39 H           4.8301   -1.5656    0.0463 H       1  UNL1        0.0427
     40 H           0.2461    2.8989   -0.3706 H       1  UNL1        0.0638
     41 H           1.6389    4.8955   -0.0296 H       1  UNL1        0.0618
     42 H           4.0655    4.6659    0.1015 H       1  UNL1        0.0618
     43 H           5.1311    2.3923   -0.1133 H       1  UNL1        0.0624
     44 H          -0.1092   -0.2333   -1.9168 H       1  UNL1        0.0508
     45 H          -0.7297    0.6320   -0.5323 H       1  UNL1        0.0508
     46 H          -0.7901   -2.1187   -0.9683 H       1  UNL1        0.0498
     47 H          -0.0397   -1.4926    2.5041 H       1  UNL1        0.0493
     48 H          -1.7291   -1.8459    2.7946 H       1  UNL1        0.0493
     49 H           0.4842    1.0145    2.0107 H       1  UNL1        0.0622
     50 H          -0.0293    3.3162    2.8653 H       1  UNL1        0.0646
     51 H          -3.7890    1.9453    4.2858 H       1  UNL1        0.0646
     52 H          -3.2892   -0.2573    3.4748 H       1  UNL1        0.0622
     53 H          -2.5997   -2.8868   -2.3436 H       1  UNL1        0.0638
     54 H          -3.7324   -1.9717   -4.3653 H       1  UNL1        0.0647
     55 H          -5.8331    0.7561   -1.9429 H       1  UNL1        0.0647
     56 H          -4.6988   -0.1570    0.0950 H       1  UNL1        0.0638
     57 H           0.7567   -3.3247    0.3266 H       1  UNL1        0.0285
     58 H           1.4174   -1.8586    1.1635 H       1  UNL1        0.0285
     59 H           2.7339   -2.7527   -0.8147 H       1  UNL1        0.0328
     60 H           1.3366   -2.0747   -1.8132 H       1  UNL1        0.0328
@<TRIPOS>BOND
     1     1     2    2
     2     2     3    1
     3     2     4    1
     4     4     5    1
     5     5     6   ar
     6     6     7   ar
     7     7     8   ar
     8     8     9   ar
     9     9    10   ar
    10    10    11   ar
    11    11    12   ar
    12    12    13   ar
    13     7    14    1
    14    14    15    1
    15    15    16    1
    16    16    17    1
    17    17    18    1
    18    18    19   ar
    19    19    20   ar
    20    20    21   ar
    21    21    22    1
    22    21    23   ar
    23    23    24   ar
    24    16    25    1
    25    25    26    2
    26    25    27    2
    27    25    28    1
    28    28    29   ar
    29    29    30   ar
    30    30    31   ar
    31    31    32    1
    32    31    33   ar
    33    33    34   ar
    34    15    35    1
    35    35    36    1
    36    13     5   ar
    37    24    18   ar
    38    34    28   ar
    39    36     6    1
    40    13     8   ar
    41     3    37    1
    42     4    38    1
    43     4    39    1
    44     9    40    1
    45    10    41    1
    46    11    42    1
    47    12    43    1
    48    14    44    1
    49    14    45    1
    50    15    46    1
    51    17    47    1
    52    17    48    1
    53    19    49    1
    54    20    50    1
    55    23    51    1
    56    24    52    1
    57    29    53    1
    58    30    54    1
    59    33    55    1
    60    34    56    1
    61    35    57    1
    62    35    58    1
    63    36    59    1
    64    36    60    1
