
     RDKit          3D

 47 50  0  0  0  0  0  0  0  0999 V2000
    5.5091   -2.0861    1.3583 O   0  0  0  0  0  0  0  0  0  0  0  0
    4.7258   -1.0401    2.1052 S   0  0  0  0  0  6  0  0  0  0  0  0
    4.6035   -1.4382    3.5673 O   0  0  0  0  0  0  0  0  0  0  0  0
    5.5368    0.4478    1.9418 N   0  0  0  0  0  0  0  0  0  0  0  0
    5.8320    1.0327    0.6781 C   0  0  0  0  0  0  0  0  0  0  0  0
    5.6780    0.7959   -0.5673 N   0  0  0  0  0  0  0  0  0  0  0  0
    6.0432    1.4979   -1.5416 C   0  0  0  0  0  0  0  0  0  0  0  0
    6.7268    2.7364   -1.2589 C   0  0  0  0  0  0  0  0  0  0  0  0
    6.7218    2.6625    0.5492 S   0  0  0  0  0  0  0  0  0  0  0  0
    3.1160   -1.0016    1.4285 C   0  0  0  0  0  0  0  0  0  0  0  0
    2.7611   -1.8531    0.4079 C   0  0  0  0  0  0  0  0  0  0  0  0
    1.4849   -1.8424   -0.1486 C   0  0  0  0  0  0  0  0  0  0  0  0
    1.1610   -2.9810   -1.4462 Cl  0  0  0  0  0  0  0  0  0  0  0  0
    0.5358   -0.9630    0.3206 C   0  0  0  0  0  0  0  0  0  0  0  0
   -0.7552   -0.9732   -0.2637 N   0  0  0  0  0  0  0  0  0  0  0  0
   -1.7437   -0.0528    0.2295 C   0  0  0  0  0  0  0  0  0  0  0  0
   -3.0627   -0.1696   -0.4759 C   0  0  0  0  0  0  0  0  0  0  0  0
   -3.6700   -1.5481   -0.3363 C   0  0  0  0  0  0  0  0  0  0  0  0
   -4.7075   -1.3241    0.7402 C   0  0  0  0  0  0  0  0  0  0  0  0
   -5.2040    0.0634    0.4063 C   0  0  0  0  0  0  0  0  0  0  0  0
   -3.9954    0.7659    0.0771 N   0  0  0  0  0  0  0  0  0  0  0  0
   -4.2341    1.8052   -0.8756 C   0  0  0  0  0  0  0  0  0  0  0  0
   -3.7007    1.3782   -2.2036 C   0  0  0  0  0  0  0  0  0  0  0  0
   -2.9125    0.1309   -1.9330 C   0  0  0  0  0  0  0  0  0  0  0  0
    0.8881   -0.1109    1.3406 C   0  0  0  0  0  0  0  0  0  0  0  0
    2.1617   -0.1218    1.8958 C   0  0  0  0  0  0  0  0  0  0  0  0
    2.5152    0.7111    2.8968 F   0  0  0  0  0  0  0  0  0  0  0  0
    5.8310    0.9538    2.8269 H   0  0  0  0  0  0  0  0  0  0  0  0
    5.8738    1.2270   -2.6212 H   0  0  0  0  0  0  0  0  0  0  0  0
    7.1006    3.4412   -1.8779 H   0  0  0  0  0  0  0  0  0  0  0  0
    3.5045   -2.5500    0.0322 H   0  0  0  0  0  0  0  0  0  0  0  0
   -1.0171   -1.6179   -1.0336 H   0  0  0  0  0  0  0  0  0  0  0  0
   -1.3642    0.9747    0.0506 H   0  0  0  0  0  0  0  0  0  0  0  0
   -1.9303   -0.1672    1.3157 H   0  0  0  0  0  0  0  0  0  0  0  0
   -4.2225   -1.8382   -1.2535 H   0  0  0  0  0  0  0  0  0  0  0  0
   -2.9473   -2.3265   -0.0970 H   0  0  0  0  0  0  0  0  0  0  0  0
   -4.2803   -1.2966    1.7532 H   0  0  0  0  0  0  0  0  0  0  0  0
   -5.5321   -2.0612    0.6874 H   0  0  0  0  0  0  0  0  0  0  0  0
   -5.8724   -0.0413   -0.4734 H   0  0  0  0  0  0  0  0  0  0  0  0
   -5.7486    0.5131    1.2624 H   0  0  0  0  0  0  0  0  0  0  0  0
   -5.3274    2.0349   -0.9244 H   0  0  0  0  0  0  0  0  0  0  0  0
   -3.6736    2.7318   -0.5641 H   0  0  0  0  0  0  0  0  0  0  0  0
   -2.9837    2.1379   -2.6265 H   0  0  0  0  0  0  0  0  0  0  0  0
   -4.5013    1.2079   -2.9687 H   0  0  0  0  0  0  0  0  0  0  0  0
   -3.2566   -0.7077   -2.5929 H   0  0  0  0  0  0  0  0  0  0  0  0
   -1.8234    0.2583   -2.1701 H   0  0  0  0  0  0  0  0  0  0  0  0
    0.1561    0.6039    1.7396 H   0  0  0  0  0  0  0  0  0  0  0  0
  1  2  2  0
  2  3  2  0
  2  4  1  0
  4  5  1  0
  5  6  2  0
  6  7  1  0
  7  8  2  0
  8  9  1  0
  2 10  1  0
 10 11  2  0
 11 12  1  0
 12 13  1  0
 12 14  2  0
 14 15  1  0
 15 16  1  0
 16 17  1  0
 17 18  1  0
 18 19  1  0
 19 20  1  0
 20 21  1  0
 21 22  1  0
 22 23  1  0
 23 24  1  0
 14 25  1  0
 25 26  2  0
 26 27  1  0
  9  5  1  0
 26 10  1  0
 21 17  1  0
 24 17  1  0
  4 28  1  0
  7 29  1  0
  8 30  1  0
 11 31  1  0
 15 32  1  0
 16 33  1  0
 16 34  1  0
 18 35  1  0
 18 36  1  0
 19 37  1  0
 19 38  1  0
 20 39  1  0
 20 40  1  0
 22 41  1  0
 22 42  1  0
 23 43  1  0
 23 44  1  0
 24 45  1  0
 24 46  1  0
 25 47  1  0
M  END
$$$$
