@<TRIPOS>MOLECULE
*****
 47 50 0 0 0
SMALL
GASTEIGER

@<TRIPOS>ATOM
      1 O           5.5091   -2.0861    1.3583 O.2     1  UNL1       -0.1498
      2 S           4.7258   -1.0401    2.1052 S.O2    1  UNL1        0.0766
      3 O           4.6035   -1.4382    3.5673 O.2     1  UNL1       -0.1498
      4 N           5.5368    0.4478    1.9418 N.pl3   1  UNL1       -0.1937
      5 C           5.8320    1.0327    0.6781 C.ar    1  UNL1        0.1774
      6 N           5.6780    0.7959   -0.5673 N.ar    1  UNL1       -0.2321
      7 C           6.0432    1.4979   -1.5416 C.ar    1  UNL1        0.0369
      8 C           6.7268    2.7364   -1.2589 C.ar    1  UNL1       -0.0030
      9 S           6.7218    2.6625    0.5492 S.2     1  UNL1       -0.0594
     10 C           3.1160   -1.0016    1.4285 C.ar    1  UNL1        0.1450
     11 C           2.7611   -1.8531    0.4079 C.ar    1  UNL1       -0.0121
     12 C           1.4849   -1.8424   -0.1486 C.ar    1  UNL1        0.0638
     13 CL          1.1610   -2.9810   -1.4462 Cl      1  UNL1       -0.0816
     14 C           0.5358   -0.9630    0.3206 C.ar    1  UNL1        0.0486
     15 N          -0.7552   -0.9732   -0.2637 N.pl3   1  UNL1       -0.3409
     16 C          -1.7437   -0.0528    0.2295 C.3     1  UNL1        0.0276
     17 C          -3.0627   -0.1696   -0.4759 C.3     1  UNL1        0.0374
     18 C          -3.6700   -1.5481   -0.3363 C.3     1  UNL1       -0.0318
     19 C          -4.7075   -1.3241    0.7402 C.3     1  UNL1       -0.0385
     20 C          -5.2040    0.0634    0.4063 C.3     1  UNL1       -0.0005
     21 N          -3.9954    0.7659    0.0771 N.3     1  UNL1       -0.2952
     22 C          -4.2341    1.8052   -0.8756 C.3     1  UNL1       -0.0005
     23 C          -3.7007    1.3782   -2.2036 C.3     1  UNL1       -0.0385
     24 C          -2.9125    0.1309   -1.9330 C.3     1  UNL1       -0.0318
     25 C           0.8881   -0.1109    1.3406 C.ar    1  UNL1       -0.0022
     26 C           2.1617   -0.1218    1.8958 C.ar    1  UNL1        0.1517
     27 F           2.5152    0.7111    2.8968 F       1  UNL1       -0.2034
     28 H           5.8310    0.9538    2.8269 H       1  UNL1        0.1758
     29 H           5.8738    1.2270   -2.6212 H       1  UNL1        0.0835
     30 H           7.1006    3.4412   -1.8779 H       1  UNL1        0.0710
     31 H           3.5045   -2.5500    0.0322 H       1  UNL1        0.0653
     32 H          -1.0171   -1.6179   -1.0336 H       1  UNL1        0.1462
     33 H          -1.3642    0.9747    0.0506 H       1  UNL1        0.0479
     34 H          -1.9303   -0.1672    1.3157 H       1  UNL1        0.0479
     35 H          -4.2225   -1.8382   -1.2535 H       1  UNL1        0.0284
     36 H          -2.9473   -2.3265   -0.0970 H       1  UNL1        0.0284
     37 H          -4.2803   -1.2966    1.7532 H       1  UNL1        0.0278
     38 H          -5.5321   -2.0612    0.6874 H       1  UNL1        0.0278
     39 H          -5.8724   -0.0413   -0.4734 H       1  UNL1        0.0427
     40 H          -5.7486    0.5131    1.2624 H       1  UNL1        0.0427
     41 H          -5.3274    2.0349   -0.9244 H       1  UNL1        0.0427
     42 H          -3.6736    2.7318   -0.5641 H       1  UNL1        0.0427
     43 H          -2.9837    2.1379   -2.6265 H       1  UNL1        0.0278
     44 H          -4.5013    1.2079   -2.9687 H       1  UNL1        0.0278
     45 H          -3.2566   -0.7077   -2.5929 H       1  UNL1        0.0284
     46 H          -1.8234    0.2583   -2.1701 H       1  UNL1        0.0284
     47 H           0.1561    0.6039    1.7396 H       1  UNL1        0.0666
@<TRIPOS>BOND
     1     1     2    2
     2     2     3    2
     3     2     4    1
     4     4     5    1
     5     5     6   ar
     6     6     7   ar
     7     7     8   ar
     8     8     9   ar
     9     2    10    1
    10    10    11   ar
    11    11    12   ar
    12    12    13    1
    13    12    14   ar
    14    14    15    1
    15    15    16    1
    16    16    17    1
    17    17    18    1
    18    18    19    1
    19    19    20    1
    20    20    21    1
    21    21    22    1
    22    22    23    1
    23    23    24    1
    24    14    25   ar
    25    25    26   ar
    26    26    27    1
    27     9     5   ar
    28    26    10   ar
    29    21    17    1
    30    24    17    1
    31     4    28    1
    32     7    29    1
    33     8    30    1
    34    11    31    1
    35    15    32    1
    36    16    33    1
    37    16    34    1
    38    18    35    1
    39    18    36    1
    40    19    37    1
    41    19    38    1
    42    20    39    1
    43    20    40    1
    44    22    41    1
    45    22    42    1
    46    23    43    1
    47    23    44    1
    48    24    45    1
    49    24    46    1
    50    25    47    1
