
     RDKit          3D

 27 27  0  0  0  0  0  0  0  0999 V2000
   -2.7356    0.3927    1.2772 C   0  0  0  0  0  0  0  0  0  0  0  0
   -1.5381    0.7310    0.4920 N   0  0  0  0  0  0  0  0  0  0  0  0
   -1.2361   -0.4527   -0.2665 C   0  0  1  0  0  0  0  0  0  0  0  0
   -2.4181   -0.7767   -1.1536 C   0  0  0  0  0  0  0  0  0  0  0  0
   -0.0033   -0.3441   -1.1214 C   0  0  1  0  0  0  0  0  0  0  0  0
   -0.1980    0.7035   -2.0216 O   0  0  0  0  0  0  0  0  0  0  0  0
    1.2375   -0.1994   -0.3469 C   0  0  0  0  0  0  0  0  0  0  0  0
    2.1048   -1.2758   -0.1484 C   0  0  0  0  0  0  0  0  0  0  0  0
    3.2777   -1.1038    0.5940 C   0  0  0  0  0  0  0  0  0  0  0  0
    3.5648    0.1260    1.1216 C   0  0  0  0  0  0  0  0  0  0  0  0
    2.7068    1.2003    0.9279 C   0  0  0  0  0  0  0  0  0  0  0  0
    1.5419    1.0317    0.1912 C   0  0  0  0  0  0  0  0  0  0  0  0
   -2.7995    0.9728    2.2087 H   0  0  0  0  0  0  0  0  0  0  0  0
   -3.6431    0.5086    0.6598 H   0  0  0  0  0  0  0  0  0  0  0  0
   -2.6653   -0.6875    1.5575 H   0  0  0  0  0  0  0  0  0  0  0  0
   -1.8325    1.5266   -0.1089 H   0  0  0  0  0  0  0  0  0  0  0  0
   -1.1272   -1.3107    0.4285 H   0  0  0  0  0  0  0  0  0  0  0  0
   -3.1035   -1.4915   -0.6854 H   0  0  0  0  0  0  0  0  0  0  0  0
   -2.9231    0.1681   -1.4732 H   0  0  0  0  0  0  0  0  0  0  0  0
   -2.0398   -1.2158   -2.1225 H   0  0  0  0  0  0  0  0  0  0  0  0
   -0.0036   -1.2698   -1.7616 H   0  0  0  0  0  0  0  0  0  0  0  0
   -0.3803    1.5544   -1.5422 H   0  0  0  0  0  0  0  0  0  0  0  0
    1.8561   -2.2559   -0.5805 H   0  0  0  0  0  0  0  0  0  0  0  0
    3.8987   -1.9926    0.7018 H   0  0  0  0  0  0  0  0  0  0  0  0
    4.5001    0.1762    1.6883 H   0  0  0  0  0  0  0  0  0  0  0  0
    3.0127    2.1517    1.3855 H   0  0  0  0  0  0  0  0  0  0  0  0
    0.9459    1.9218    0.0986 H   0  0  0  0  0  0  0  0  0  0  0  0
  1  2  1  0
  2  3  1  0
  3  4  1  0
  3  5  1  0
  5  6  1  0
  5  7  1  0
  7  8  2  0
  8  9  1  0
  9 10  2  0
 10 11  1  0
 11 12  2  0
 12  7  1  0
  1 13  1  0
  1 14  1  0
  1 15  1  0
  2 16  1  0
  3 17  1  1
  4 18  1  0
  4 19  1  0
  4 20  1  0
  5 21  1  6
  6 22  1  0
  8 23  1  0
  9 24  1  0
 10 25  1  0
 11 26  1  0
 12 27  1  0
M  END
$$$$
