
     RDKit          3D

 68 73  0  0  0  0  0  0  0  0999 V2000
   -8.5770    2.1260    1.3885 C   0  0  0  0  0  0  0  0  0  0  0  0
   -7.1611    1.9263    1.1501 N   0  0  0  0  0  0  0  0  0  0  0  0
   -6.3373    3.0075    0.5819 C   0  0  0  0  0  0  0  0  0  0  0  0
   -6.5645    0.6540    1.4653 C   0  0  0  0  0  0  0  0  0  0  0  0
   -7.2663   -0.2531    1.9356 O   0  0  0  0  0  0  0  0  0  0  0  0
   -5.1350    0.4282    1.2400 C   0  0  0  0  0  0  0  0  0  0  0  0
   -4.1625    0.5479    2.2617 C   0  0  0  0  0  0  0  0  0  0  0  0
   -2.9294    0.3206    1.7096 C   0  0  0  0  0  0  0  0  0  0  0  0
   -1.6194    0.3031    2.1628 C   0  0  0  0  0  0  0  0  0  0  0  0
   -0.6012    0.0433    1.2994 N   0  0  0  0  0  0  0  0  0  0  0  0
   -0.7875   -0.2037   -0.0082 C   0  0  0  0  0  0  0  0  0  0  0  0
    0.2419   -0.4859   -0.9377 N   0  0  0  0  0  0  0  0  0  0  0  0
    1.5856   -0.7883   -0.6329 C   0  0  0  0  0  0  0  0  0  0  0  0
    2.4874   -0.9420   -1.7022 C   0  0  0  0  0  0  0  0  0  0  0  0
    3.7958   -1.2792   -1.5050 C   0  0  0  0  0  0  0  0  0  0  0  0
    4.2575   -1.4782   -0.2120 C   0  0  0  0  0  0  0  0  0  0  0  0
    5.6562   -1.8344   -0.0075 C   0  0  0  0  0  0  0  0  0  0  0  0
    5.9981   -3.0161    0.2276 O   0  0  0  0  0  0  0  0  0  0  0  0
    6.6777   -0.8422   -0.0722 N   0  0  0  0  0  0  0  0  0  0  0  0
    8.0528   -1.2458    0.1011 C   0  0  0  0  0  0  0  0  0  0  0  0
    8.8870   -0.0531    0.5376 C   0  0  1  0  0  0  0  0  0  0  0  0
    9.0168    0.8735   -0.6354 C   0  0  0  0  0  0  0  0  0  0  0  0
    8.2404    2.0669   -0.3177 N   0  0  0  0  0  0  0  0  0  0  0  0
    7.1366    1.5236    0.5067 C   0  0  2  0  0  0  0  0  0  0  0  0
    7.9757    0.7188    1.5047 C   0  0  0  0  0  0  0  0  0  0  0  0
    6.3153    0.5569   -0.2890 C   0  0  0  0  0  0  0  0  0  0  0  0
    3.3813   -1.3261    0.8124 C   0  0  0  0  0  0  0  0  0  0  0  0
    2.0702   -0.9875    0.5968 N   0  0  0  0  0  0  0  0  0  0  0  0
   -2.0702   -0.1818   -0.4206 N   0  0  0  0  0  0  0  0  0  0  0  0
   -3.1089    0.0648    0.3811 C   0  0  0  0  0  0  0  0  0  0  0  0
   -4.4665    0.1368    0.1360 N   0  0  0  0  0  0  0  0  0  0  0  0
   -4.9493   -0.1358   -1.1932 C   0  0  0  0  0  0  0  0  0  0  0  0
   -6.3792   -0.4954   -1.3402 C   0  0  0  0  0  0  0  0  0  0  0  0
   -6.3742   -1.9748   -0.8974 C   0  0  0  0  0  0  0  0  0  0  0  0
   -5.2639   -2.4862   -1.7714 C   0  0  0  0  0  0  0  0  0  0  0  0
   -4.2420   -1.3681   -1.7610 C   0  0  0  0  0  0  0  0  0  0  0  0
   -8.8062    2.9557    2.0592 H   0  0  0  0  0  0  0  0  0  0  0  0
   -9.0573    1.1562    1.6632 H   0  0  0  0  0  0  0  0  0  0  0  0
   -9.0703    2.3941    0.3933 H   0  0  0  0  0  0  0  0  0  0  0  0
   -6.3372    2.9517   -0.5212 H   0  0  0  0  0  0  0  0  0  0  0  0
   -6.8489    3.9668    0.8249 H   0  0  0  0  0  0  0  0  0  0  0  0
   -5.3355    3.0520    1.0256 H   0  0  0  0  0  0  0  0  0  0  0  0
   -4.3831    0.7797    3.2915 H   0  0  0  0  0  0  0  0  0  0  0  0
   -1.4643    0.5141    3.2127 H   0  0  0  0  0  0  0  0  0  0  0  0
   -0.0800   -0.4514   -1.9618 H   0  0  0  0  0  0  0  0  0  0  0  0
    2.0755   -0.7733   -2.7040 H   0  0  0  0  0  0  0  0  0  0  0  0
    4.4913   -1.3990   -2.3278 H   0  0  0  0  0  0  0  0  0  0  0  0
    8.2203   -2.0598    0.7931 H   0  0  0  0  0  0  0  0  0  0  0  0
    8.4888   -1.5508   -0.8993 H   0  0  0  0  0  0  0  0  0  0  0  0
    9.8165   -0.3381    1.0187 H   0  0  0  0  0  0  0  0  0  0  0  0
    8.5218    0.4312   -1.5537 H   0  0  0  0  0  0  0  0  0  0  0  0
   10.0405    1.1150   -0.9396 H   0  0  0  0  0  0  0  0  0  0  0  0
    7.8679    2.5181   -1.1944 H   0  0  0  0  0  0  0  0  0  0  0  0
    6.5991    2.3515    0.9592 H   0  0  0  0  0  0  0  0  0  0  0  0
    7.3712    0.0547    2.1191 H   0  0  0  0  0  0  0  0  0  0  0  0
    8.5443    1.4654    2.0986 H   0  0  0  0  0  0  0  0  0  0  0  0
    5.2445    0.6929    0.0135 H   0  0  0  0  0  0  0  0  0  0  0  0
    6.4445    0.8601   -1.3672 H   0  0  0  0  0  0  0  0  0  0  0  0
    3.7330   -1.4830    1.8440 H   0  0  0  0  0  0  0  0  0  0  0  0
   -4.7475    0.7561   -1.8452 H   0  0  0  0  0  0  0  0  0  0  0  0
   -7.1207    0.0126   -0.7595 H   0  0  0  0  0  0  0  0  0  0  0  0
   -6.7032   -0.4488   -2.4220 H   0  0  0  0  0  0  0  0  0  0  0  0
   -7.3485   -2.4423   -1.0692 H   0  0  0  0  0  0  0  0  0  0  0  0
   -6.0667   -1.9637    0.1505 H   0  0  0  0  0  0  0  0  0  0  0  0
   -4.8350   -3.4494   -1.3752 H   0  0  0  0  0  0  0  0  0  0  0  0
   -5.6577   -2.7214   -2.7679 H   0  0  0  0  0  0  0  0  0  0  0  0
   -3.9588   -1.1362   -2.7914 H   0  0  0  0  0  0  0  0  0  0  0  0
   -3.4192   -1.7313   -1.1500 H   0  0  0  0  0  0  0  0  0  0  0  0
  1  2  1  0
  2  3  1  0
  2  4  1  0
  4  5  2  0
  4  6  1  0
  6  7  2  0
  7  8  1  0
  8  9  2  0
  9 10  1  0
 10 11  2  0
 11 12  1  0
 12 13  1  0
 13 14  2  0
 14 15  1  0
 15 16  2  0
 16 17  1  0
 17 18  2  0
 17 19  1  0
 19 20  1  0
 20 21  1  0
 21 22  1  0
 22 23  1  0
 23 24  1  0
 24 25  1  0
 24 26  1  0
 16 27  1  0
 27 28  2  0
 11 29  1  0
 29 30  2  0
 30 31  1  0
 31 32  1  0
 32 33  1  0
 33 34  1  0
 34 35  1  0
 35 36  1  0
 31  6  1  0
 36 32  1  0
 30  8  1  0
 28 13  1  0
 26 19  1  0
 25 21  1  0
  1 37  1  0
  1 38  1  0
  1 39  1  0
  3 40  1  0
  3 41  1  0
  3 42  1  0
  7 43  1  0
  9 44  1  0
 12 45  1  0
 14 46  1  0
 15 47  1  0
 20 48  1  0
 20 49  1  0
 21 50  1  1
 22 51  1  0
 22 52  1  0
 23 53  1  0
 24 54  1  1
 25 55  1  0
 25 56  1  0
 26 57  1  0
 26 58  1  0
 27 59  1  0
 32 60  1  0
 33 61  1  0
 33 62  1  0
 34 63  1  0
 34 64  1  0
 35 65  1  0
 35 66  1  0
 36 67  1  0
 36 68  1  0
M  END
$$$$
