@<TRIPOS>MOLECULE
*****
 68 73 0 0 0
SMALL
GASTEIGER

@<TRIPOS>ATOM
      1 C          -8.5770    2.1260    1.3885 C.3     1  UNL1        0.0032
      2 N          -7.1611    1.9263    1.1501 N.am    1  UNL1       -0.3024
      3 C          -6.3373    3.0075    0.5819 C.3     1  UNL1        0.0032
      4 C          -6.5645    0.6540    1.4653 C.2     1  UNL1        0.2627
      5 O          -7.2663   -0.2531    1.9356 O.2     1  UNL1       -0.2684
      6 C          -5.1350    0.4282    1.2400 C.ar    1  UNL1        0.1070
      7 C          -4.1625    0.5479    2.2617 C.ar    1  UNL1       -0.0209
      8 C          -2.9294    0.3206    1.7096 C.ar    1  UNL1        0.0378
      9 C          -1.6194    0.3031    2.1628 C.ar    1  UNL1        0.0419
     10 N          -0.6012    0.0433    1.2994 N.ar    1  UNL1       -0.2219
     11 C          -0.7875   -0.2037   -0.0082 C.ar    1  UNL1        0.2224
     12 N           0.2419   -0.4859   -0.9377 N.pl3   1  UNL1       -0.2685
     13 C           1.5856   -0.7883   -0.6329 C.ar    1  UNL1        0.1250
     14 C           2.4874   -0.9420   -1.7022 C.ar    1  UNL1       -0.0208
     15 C           3.7958   -1.2792   -1.5050 C.ar    1  UNL1       -0.0449
     16 C           4.2575   -1.4782   -0.2120 C.ar    1  UNL1        0.0551
     17 C           5.6562   -1.8344   -0.0075 C.2     1  UNL1        0.2481
     18 O           5.9981   -3.0161    0.2276 O.2     1  UNL1       -0.2699
     19 N           6.6777   -0.8422   -0.0722 N.am    1  UNL1       -0.2957
     20 C           8.0528   -1.2458    0.1011 C.3     1  UNL1        0.0191
     21 C           8.8870   -0.0531    0.5376 C.3     1  UNL1       -0.0112
     22 C           9.0168    0.8735   -0.6354 C.3     1  UNL1        0.0005
     23 N           8.2404    2.0669   -0.3177 N.3     1  UNL1       -0.3114
     24 C           7.1366    1.5236    0.5067 C.3     1  UNL1        0.0237
     25 C           7.9757    0.7188    1.5047 C.3     1  UNL1       -0.0307
     26 C           6.3153    0.5569   -0.2890 C.3     1  UNL1        0.0304
     27 C           3.3813   -1.3261    0.8124 C.ar    1  UNL1        0.0418
     28 N           2.0702   -0.9875    0.5968 N.ar    1  UNL1       -0.2394
     29 N          -2.0702   -0.1818   -0.4206 N.ar    1  UNL1       -0.1962
     30 C          -3.1089    0.0648    0.3811 C.ar    1  UNL1        0.1466
     31 N          -4.4665    0.1368    0.1360 N.ar    1  UNL1       -0.3180
     32 C          -4.9493   -0.1358   -1.1932 C.3     1  UNL1        0.0366
     33 C          -6.3792   -0.4954   -1.3402 C.3     1  UNL1       -0.0320
     34 C          -6.3742   -1.9748   -0.8974 C.3     1  UNL1       -0.0511
     35 C          -5.2639   -2.4862   -1.7714 C.3     1  UNL1       -0.0511
     36 C          -4.2420   -1.3681   -1.7610 C.3     1  UNL1       -0.0320
     37 H          -8.8062    2.9557    2.0592 H       1  UNL1        0.0428
     38 H          -9.0573    1.1562    1.6632 H       1  UNL1        0.0428
     39 H          -9.0703    2.3941    0.3933 H       1  UNL1        0.0428
     40 H          -6.3372    2.9517   -0.5212 H       1  UNL1        0.0428
     41 H          -6.8489    3.9668    0.8249 H       1  UNL1        0.0428
     42 H          -5.3355    3.0520    1.0256 H       1  UNL1        0.0428
     43 H          -4.3831    0.7797    3.2915 H       1  UNL1        0.0647
     44 H          -1.4643    0.5141    3.2127 H       1  UNL1        0.0838
     45 H          -0.0800   -0.4514   -1.9618 H       1  UNL1        0.1564
     46 H           2.0755   -0.7733   -2.7040 H       1  UNL1        0.0652
     47 H           4.4913   -1.3990   -2.3278 H       1  UNL1        0.0627
     48 H           8.2203   -2.0598    0.7931 H       1  UNL1        0.0468
     49 H           8.4888   -1.5508   -0.8993 H       1  UNL1        0.0468
     50 H           9.8165   -0.3381    1.0187 H       1  UNL1        0.0329
     51 H           8.5218    0.4312   -1.5537 H       1  UNL1        0.0427
     52 H          10.0405    1.1150   -0.9396 H       1  UNL1        0.0427
     53 H           7.8679    2.5181   -1.1944 H       1  UNL1        0.1223
     54 H           6.5991    2.3515    0.9592 H       1  UNL1        0.0476
     55 H           7.3712    0.0547    2.1191 H       1  UNL1        0.0284
     56 H           8.5443    1.4654    2.0986 H       1  UNL1        0.0284
     57 H           5.2445    0.6929    0.0135 H       1  UNL1        0.0480
     58 H           6.4445    0.8601   -1.3672 H       1  UNL1        0.0480
     59 H           3.7330   -1.4830    1.8440 H       1  UNL1        0.0838
     60 H          -4.7475    0.7561   -1.8452 H       1  UNL1        0.0528
     61 H          -7.1207    0.0126   -0.7595 H       1  UNL1        0.0285
     62 H          -6.7032   -0.4488   -2.4220 H       1  UNL1        0.0285
     63 H          -7.3485   -2.4423   -1.0692 H       1  UNL1        0.0266
     64 H          -6.0667   -1.9637    0.1505 H       1  UNL1        0.0266
     65 H          -4.8350   -3.4494   -1.3752 H       1  UNL1        0.0266
     66 H          -5.6577   -2.7214   -2.7679 H       1  UNL1        0.0266
     67 H          -3.9588   -1.1362   -2.7914 H       1  UNL1        0.0285
     68 H          -3.4192   -1.7313   -1.1500 H       1  UNL1        0.0285
@<TRIPOS>BOND
     1     1     2    1
     2     2     3    1
     3     2     4   am
     4     4     5    2
     5     4     6    1
     6     6     7   ar
     7     7     8   ar
     8     8     9   ar
     9     9    10   ar
    10    10    11   ar
    11    11    12    1
    12    12    13    1
    13    13    14   ar
    14    14    15   ar
    15    15    16   ar
    16    16    17    1
    17    17    18    2
    18    17    19   am
    19    19    20    1
    20    20    21    1
    21    21    22    1
    22    22    23    1
    23    23    24    1
    24    24    25    1
    25    24    26    1
    26    16    27   ar
    27    27    28   ar
    28    11    29   ar
    29    29    30   ar
    30    30    31   ar
    31    31    32    1
    32    32    33    1
    33    33    34    1
    34    34    35    1
    35    35    36    1
    36    31     6   ar
    37    36    32    1
    38    30     8   ar
    39    28    13   ar
    40    26    19    1
    41    25    21    1
    42     1    37    1
    43     1    38    1
    44     1    39    1
    45     3    40    1
    46     3    41    1
    47     3    42    1
    48     7    43    1
    49     9    44    1
    50    12    45    1
    51    14    46    1
    52    15    47    1
    53    20    48    1
    54    20    49    1
    55    21    50    1
    56    22    51    1
    57    22    52    1
    58    23    53    1
    59    24    54    1
    60    25    55    1
    61    25    56    1
    62    26    57    1
    63    26    58    1
    64    27    59    1
    65    32    60    1
    66    33    61    1
    67    33    62    1
    68    34    63    1
    69    34    64    1
    70    35    65    1
    71    35    66    1
    72    36    67    1
    73    36    68    1
