@<TRIPOS>MOLECULE
*****
 50 52 0 0 0
SMALL
GASTEIGER

@<TRIPOS>ATOM
      1 C           8.6480   -0.1500    1.3940 C.3     1  UNL1        0.0805
      2 O           7.6830   -1.0787    0.9732 O.3     1  UNL1       -0.4786
      3 C           6.3906   -0.7400    0.5913 C.ar    1  UNL1        0.2334
      4 C           5.5472   -1.7552    0.2002 C.ar    1  UNL1        0.0899
      5 N           4.2791   -1.4380   -0.1763 N.ar    1  UNL1       -0.2433
      6 C           3.8346   -0.1794   -0.1764 C.ar    1  UNL1        0.1468
      7 C           2.4795    0.1491   -0.5799 C.2     1  UNL1        0.2683
      8 O           2.0532    1.3416   -0.5818 O.2     1  UNL1       -0.2681
      9 N           1.5446   -0.8539   -0.9994 N.am    1  UNL1       -0.2801
     10 C           0.2281   -0.4786   -1.3849 C.ar    1  UNL1        0.0356
     11 C          -0.0322   -0.1671   -2.7127 C.ar    1  UNL1       -0.0193
     12 C          -1.3071    0.1936   -3.0717 C.ar    1  UNL1        0.0782
     13 CL         -1.6980    0.6001   -4.7427 Cl      1  UNL1       -0.0805
     14 C          -2.2792    0.2291   -2.0815 C.ar    1  UNL1        0.1472
     15 F          -3.5216    0.5897   -2.4756 F       1  UNL1       -0.2036
     16 C          -2.0240   -0.0787   -0.7671 C.ar    1  UNL1        0.0183
     17 C          -3.1100   -0.0262    0.2656 C.3     1  UNL1        0.0951
     18 C          -2.4388   -0.2633    1.6316 C.3     1  UNL1       -0.0352
     19 C          -4.1085   -1.1144    0.0573 C.3     1  UNL1        0.0223
     20 C          -5.5068   -0.6475   -0.1806 C.3     1  UNL1        0.1997
     21 C          -6.4733   -1.7825    0.1335 C.3     1  UNL1        0.4266
     22 F          -7.7432   -1.3201   -0.0951 F       1  UNL1       -0.1669
     23 F          -6.2828   -2.2719    1.3974 F       1  UNL1       -0.1669
     24 F          -6.2308   -2.7796   -0.8068 F       1  UNL1       -0.1669
     25 O          -5.7439    0.4645    0.6629 O.2     1  UNL1       -0.4534
     26 C          -4.8842    1.5409    0.5185 C.2     1  UNL1        0.2765
     27 N          -5.3716    2.9053    0.5779 N.pl3   1  UNL1       -0.3134
     28 N          -3.6405    1.3051    0.3305 N.2     1  UNL1       -0.2257
     29 C          -0.7388   -0.4384   -0.4258 C.ar    1  UNL1       -0.0322
     30 C           4.6685    0.8432    0.2124 C.ar    1  UNL1        0.0724
     31 C           4.2576    2.2584    0.2411 C.3     1  UNL1       -0.0200
     32 N           5.9387    0.5192    0.5887 N.ar    1  UNL1       -0.2146
     33 H           8.3640    0.8889    1.1919 H       1  UNL1        0.0660
     34 H           9.5917   -0.3970    0.8278 H       1  UNL1        0.0660
     35 H           8.8889   -0.2369    2.4851 H       1  UNL1        0.0660
     36 H           5.8681   -2.7878    0.1861 H       1  UNL1        0.0884
     37 H           1.8619   -1.8512   -1.0106 H       1  UNL1        0.1552
     38 H           0.7525   -0.2058   -3.4590 H       1  UNL1        0.0652
     39 H          -1.6858    0.5097    1.7912 H       1  UNL1        0.0256
     40 H          -2.1075   -1.2933    1.7516 H       1  UNL1        0.0256
     41 H          -3.2561   -0.0956    2.3753 H       1  UNL1        0.0256
     42 H          -4.1502   -1.8094    0.9492 H       1  UNL1        0.0330
     43 H          -3.7288   -1.7675   -0.7674 H       1  UNL1        0.0330
     44 H          -5.7129   -0.4113   -1.2662 H       1  UNL1        0.0826
     45 H          -5.5667    3.4168   -0.3018 H       1  UNL1        0.1466
     46 H          -5.5288    3.3790    1.4823 H       1  UNL1        0.1466
     47 H          -0.5197   -0.6866    0.6187 H       1  UNL1        0.0640
     48 H           3.4247    2.4449    0.9561 H       1  UNL1        0.0293
     49 H           5.1021    2.8829    0.5903 H       1  UNL1        0.0293
     50 H           3.9854    2.6439   -0.7665 H       1  UNL1        0.0293
@<TRIPOS>BOND
     1     1     2    1
     2     2     3    1
     3     3     4   ar
     4     4     5   ar
     5     5     6   ar
     6     6     7    1
     7     7     8    2
     8     7     9   am
     9     9    10    1
    10    10    11   ar
    11    11    12   ar
    12    12    13    1
    13    12    14   ar
    14    14    15    1
    15    14    16   ar
    16    16    17    1
    17    17    18    1
    18    17    19    1
    19    19    20    1
    20    20    21    1
    21    21    22    1
    22    21    23    1
    23    21    24    1
    24    20    25    1
    25    25    26    1
    26    26    27    1
    27    26    28    2
    28    16    29   ar
    29     6    30   ar
    30    30    31    1
    31    30    32   ar
    32    32     3   ar
    33    29    10   ar
    34    28    17    1
    35     1    33    1
    36     1    34    1
    37     1    35    1
    38     4    36    1
    39     9    37    1
    40    11    38    1
    41    18    39    1
    42    18    40    1
    43    18    41    1
    44    19    42    1
    45    19    43    1
    46    20    44    1
    47    27    45    1
    48    27    46    1
    49    29    47    1
    50    31    48    1
    51    31    49    1
    52    31    50    1
