@<TRIPOS>MOLECULE
*****
 55 58 0 0 0
SMALL
GASTEIGER

@<TRIPOS>ATOM
      1 C          -4.6257    3.2418   -1.7089 C.3     1  UNL1       -0.0363
      2 C          -3.3306    2.4704   -1.4109 C.2     1  UNL1       -0.0029
      3 C          -2.2070    3.0637   -1.6134 C.2     1  UNL1        0.1885
      4 F          -2.2588    4.3954   -2.1204 F       1  UNL1       -0.1997
      5 C          -0.9194    2.5617   -1.2206 C.2     1  UNL1        0.2768
      6 O           0.0650    3.2938   -1.6384 O.2     1  UNL1       -0.2674
      7 N          -0.5375    1.4602   -0.4817 N.am    1  UNL1       -0.2784
      8 C           0.7436    0.9757   -0.1256 C.ar    1  UNL1        0.0522
      9 C           1.9018    1.5992   -0.4960 C.ar    1  UNL1       -0.0385
     10 C           3.1828    1.1330   -0.1544 C.ar    1  UNL1       -0.0521
     11 C           3.3149    0.0013    0.5841 C.ar    1  UNL1       -0.0145
     12 C           4.6133   -0.5333    0.9340 C.ar    1  UNL1        0.0085
     13 C           4.9744   -0.4658    2.2604 C.ar    1  UNL1       -0.0522
     14 C           6.2062   -0.9134    2.7256 C.ar    1  UNL1       -0.0611
     15 C           7.0659   -1.4374    1.7822 C.ar    1  UNL1       -0.0599
     16 C           6.7500   -1.5263    0.4466 C.ar    1  UNL1       -0.0348
     17 C           5.4864   -1.0588    0.0240 C.ar    1  UNL1        0.1127
     18 S           5.0617   -1.2015   -1.6491 S.O2    1  UNL1        0.0565
     19 N           3.6184   -2.1462   -1.8594 N.3     1  UNL1       -0.2035
     20 O           6.1505   -1.9928   -2.3476 O.2     1  UNL1       -0.1532
     21 O           4.9619    0.0909   -2.3469 O.2     1  UNL1       -0.1532
     22 C           2.1418   -0.6477    0.9714 C.ar    1  UNL1       -0.0338
     23 C           0.8950   -0.1785    0.6294 C.ar    1  UNL1        0.0627
     24 CL         -0.5657   -1.0109    1.1258 Cl      1  UNL1       -0.0816
     25 C          -3.4791    1.0888   -1.0807 C.ar    1  UNL1       -0.0185
     26 C          -2.9763    0.0466   -1.8489 C.ar    1  UNL1       -0.0537
     27 C          -3.2093   -1.2346   -1.4076 C.ar    1  UNL1       -0.0533
     28 C          -3.9081   -1.5300   -0.2556 C.ar    1  UNL1       -0.0131
     29 C          -4.1328   -2.8182    0.1724 C.ar    1  UNL1       -0.0357
     30 C          -4.8384   -3.0582    1.3326 C.ar    1  UNL1        0.0303
     31 N          -5.3140   -2.0206    2.0568 N.ar    1  UNL1       -0.2401
     32 C          -5.1174   -0.7598    1.6759 C.ar    1  UNL1        0.1239
     33 N          -5.6143    0.3596    2.4309 N.pl3   1  UNL1       -0.3427
     34 C          -4.4123   -0.5035    0.5156 C.ar    1  UNL1        0.0222
     35 C          -4.1879    0.7871    0.0879 C.ar    1  UNL1       -0.0433
     36 H          -5.2773    2.5722   -2.2808 H       1  UNL1        0.0279
     37 H          -4.3954    4.1276   -2.2986 H       1  UNL1        0.0279
     38 H          -5.0349    3.5372   -0.7202 H       1  UNL1        0.0279
     39 H          -1.3310    0.8954   -0.0506 H       1  UNL1        0.1552
     40 H           1.9339    2.5027   -1.0825 H       1  UNL1        0.0637
     41 H           4.0683    1.6987   -0.4676 H       1  UNL1        0.0624
     42 H           4.2917   -0.0504    3.0046 H       1  UNL1        0.0624
     43 H           6.4808   -0.8576    3.7618 H       1  UNL1        0.0618
     44 H           8.0348   -1.7958    2.1069 H       1  UNL1        0.0618
     45 H           7.4537   -1.9437   -0.2562 H       1  UNL1        0.0637
     46 H           3.4102   -2.7132   -1.0215 H       1  UNL1        0.1442
     47 H           2.8227   -1.5896   -2.1995 H       1  UNL1        0.1442
     48 H           2.2495   -1.5421    1.5562 H       1  UNL1        0.0639
     49 H          -2.4354    0.3148   -2.7425 H       1  UNL1        0.0624
     50 H          -2.8310   -2.0638   -1.9833 H       1  UNL1        0.0624
     51 H          -3.7387   -3.6221   -0.4308 H       1  UNL1        0.0639
     52 H          -5.0106   -4.0922    1.6627 H       1  UNL1        0.0830
     53 H          -5.3614    0.4971    3.4280 H       1  UNL1        0.1437
     54 H          -6.2319    1.0135    1.9287 H       1  UNL1        0.1437
     55 H          -4.5973    1.5795    0.7155 H       1  UNL1        0.0631
@<TRIPOS>BOND
     1     1     2    1
     2     2     3    2
     3     3     4    1
     4     3     5    1
     5     5     6    2
     6     5     7   am
     7     7     8    1
     8     8     9   ar
     9     9    10   ar
    10    10    11   ar
    11    11    12    1
    12    12    13   ar
    13    13    14   ar
    14    14    15   ar
    15    15    16   ar
    16    16    17   ar
    17    17    18    1
    18    18    19    1
    19    18    20    2
    20    18    21    2
    21    11    22   ar
    22    22    23   ar
    23    23    24    1
    24     2    25    1
    25    25    26   ar
    26    26    27   ar
    27    27    28   ar
    28    28    29   ar
    29    29    30   ar
    30    30    31   ar
    31    31    32   ar
    32    32    33    1
    33    32    34   ar
    34    34    35   ar
    35    23     8   ar
    36    35    25   ar
    37    17    12   ar
    38    34    28   ar
    39     1    36    1
    40     1    37    1
    41     1    38    1
    42     7    39    1
    43     9    40    1
    44    10    41    1
    45    13    42    1
    46    14    43    1
    47    15    44    1
    48    16    45    1
    49    19    46    1
    50    19    47    1
    51    22    48    1
    52    26    49    1
    53    27    50    1
    54    29    51    1
    55    30    52    1
    56    33    53    1
    57    33    54    1
    58    35    55    1
