
     RDKit          3D

 55 58  0  0  0  0  0  0  0  0999 V2000
   -4.6257    3.2418   -1.7089 C   0  0  0  0  0  0  0  0  0  0  0  0
   -3.3306    2.4704   -1.4109 C   0  0  0  0  0  0  0  0  0  0  0  0
   -2.2070    3.0637   -1.6134 C   0  0  0  0  0  0  0  0  0  0  0  0
   -2.2588    4.3954   -2.1204 F   0  0  0  0  0  0  0  0  0  0  0  0
   -0.9194    2.5617   -1.2206 C   0  0  0  0  0  0  0  0  0  0  0  0
    0.0650    3.2938   -1.6384 O   0  0  0  0  0  0  0  0  0  0  0  0
   -0.5375    1.4602   -0.4817 N   0  0  0  0  0  0  0  0  0  0  0  0
    0.7436    0.9757   -0.1256 C   0  0  0  0  0  0  0  0  0  0  0  0
    1.9018    1.5992   -0.4960 C   0  0  0  0  0  0  0  0  0  0  0  0
    3.1828    1.1330   -0.1544 C   0  0  0  0  0  0  0  0  0  0  0  0
    3.3149    0.0013    0.5841 C   0  0  0  0  0  0  0  0  0  0  0  0
    4.6133   -0.5333    0.9340 C   0  0  0  0  0  0  0  0  0  0  0  0
    4.9744   -0.4658    2.2604 C   0  0  0  0  0  0  0  0  0  0  0  0
    6.2062   -0.9134    2.7256 C   0  0  0  0  0  0  0  0  0  0  0  0
    7.0659   -1.4374    1.7822 C   0  0  0  0  0  0  0  0  0  0  0  0
    6.7500   -1.5263    0.4466 C   0  0  0  0  0  0  0  0  0  0  0  0
    5.4864   -1.0588    0.0240 C   0  0  0  0  0  0  0  0  0  0  0  0
    5.0617   -1.2015   -1.6491 S   0  0  0  0  0  6  0  0  0  0  0  0
    3.6184   -2.1462   -1.8594 N   0  0  0  0  0  0  0  0  0  0  0  0
    6.1505   -1.9928   -2.3476 O   0  0  0  0  0  0  0  0  0  0  0  0
    4.9619    0.0909   -2.3469 O   0  0  0  0  0  0  0  0  0  0  0  0
    2.1418   -0.6477    0.9714 C   0  0  0  0  0  0  0  0  0  0  0  0
    0.8950   -0.1785    0.6294 C   0  0  0  0  0  0  0  0  0  0  0  0
   -0.5657   -1.0109    1.1258 Cl  0  0  0  0  0  0  0  0  0  0  0  0
   -3.4791    1.0888   -1.0807 C   0  0  0  0  0  0  0  0  0  0  0  0
   -2.9763    0.0466   -1.8489 C   0  0  0  0  0  0  0  0  0  0  0  0
   -3.2093   -1.2346   -1.4076 C   0  0  0  0  0  0  0  0  0  0  0  0
   -3.9081   -1.5300   -0.2556 C   0  0  0  0  0  0  0  0  0  0  0  0
   -4.1328   -2.8182    0.1724 C   0  0  0  0  0  0  0  0  0  0  0  0
   -4.8384   -3.0582    1.3326 C   0  0  0  0  0  0  0  0  0  0  0  0
   -5.3140   -2.0206    2.0568 N   0  0  0  0  0  0  0  0  0  0  0  0
   -5.1174   -0.7598    1.6759 C   0  0  0  0  0  0  0  0  0  0  0  0
   -5.6143    0.3596    2.4309 N   0  0  0  0  0  0  0  0  0  0  0  0
   -4.4123   -0.5035    0.5156 C   0  0  0  0  0  0  0  0  0  0  0  0
   -4.1879    0.7871    0.0879 C   0  0  0  0  0  0  0  0  0  0  0  0
   -5.2773    2.5722   -2.2808 H   0  0  0  0  0  0  0  0  0  0  0  0
   -4.3954    4.1276   -2.2986 H   0  0  0  0  0  0  0  0  0  0  0  0
   -5.0349    3.5372   -0.7202 H   0  0  0  0  0  0  0  0  0  0  0  0
   -1.3310    0.8954   -0.0506 H   0  0  0  0  0  0  0  0  0  0  0  0
    1.9339    2.5027   -1.0825 H   0  0  0  0  0  0  0  0  0  0  0  0
    4.0683    1.6987   -0.4676 H   0  0  0  0  0  0  0  0  0  0  0  0
    4.2917   -0.0504    3.0046 H   0  0  0  0  0  0  0  0  0  0  0  0
    6.4808   -0.8576    3.7618 H   0  0  0  0  0  0  0  0  0  0  0  0
    8.0348   -1.7958    2.1069 H   0  0  0  0  0  0  0  0  0  0  0  0
    7.4537   -1.9437   -0.2562 H   0  0  0  0  0  0  0  0  0  0  0  0
    3.4102   -2.7132   -1.0215 H   0  0  0  0  0  0  0  0  0  0  0  0
    2.8227   -1.5896   -2.1995 H   0  0  0  0  0  0  0  0  0  0  0  0
    2.2495   -1.5421    1.5562 H   0  0  0  0  0  0  0  0  0  0  0  0
   -2.4354    0.3148   -2.7425 H   0  0  0  0  0  0  0  0  0  0  0  0
   -2.8310   -2.0638   -1.9833 H   0  0  0  0  0  0  0  0  0  0  0  0
   -3.7387   -3.6221   -0.4308 H   0  0  0  0  0  0  0  0  0  0  0  0
   -5.0106   -4.0922    1.6627 H   0  0  0  0  0  0  0  0  0  0  0  0
   -5.3614    0.4971    3.4280 H   0  0  0  0  0  0  0  0  0  0  0  0
   -6.2319    1.0135    1.9287 H   0  0  0  0  0  0  0  0  0  0  0  0
   -4.5973    1.5795    0.7155 H   0  0  0  0  0  0  0  0  0  0  0  0
  1  2  1  0
  2  3  2  0
  3  4  1  0
  3  5  1  0
  5  6  2  0
  5  7  1  0
  7  8  1  0
  8  9  2  0
  9 10  1  0
 10 11  2  0
 11 12  1  0
 12 13  2  0
 13 14  1  0
 14 15  2  0
 15 16  1  0
 16 17  2  0
 17 18  1  0
 18 19  1  0
 18 20  2  0
 18 21  2  0
 11 22  1  0
 22 23  2  0
 23 24  1  0
  2 25  1  0
 25 26  2  0
 26 27  1  0
 27 28  2  0
 28 29  1  0
 29 30  2  0
 30 31  1  0
 31 32  2  0
 32 33  1  0
 32 34  1  0
 34 35  2  0
 23  8  1  0
 35 25  1  0
 17 12  1  0
 34 28  1  0
  1 36  1  0
  1 37  1  0
  1 38  1  0
  7 39  1  0
  9 40  1  0
 10 41  1  0
 13 42  1  0
 14 43  1  0
 15 44  1  0
 16 45  1  0
 19 46  1  0
 19 47  1  0
 22 48  1  0
 26 49  1  0
 27 50  1  0
 29 51  1  0
 30 52  1  0
 33 53  1  0
 33 54  1  0
 35 55  1  0
M  END
$$$$
