@<TRIPOS>MOLECULE
*****
 32 34 0 0 0
SMALL
GASTEIGER

@<TRIPOS>ATOM
      1 O          -1.9315   -1.1632    2.9410 O.2     1  UNL1       -0.2817
      2 C          -1.6889   -0.9149    1.7283 C.2     1  UNL1        0.2496
      3 C          -0.6148   -1.4172    0.8891 C.2     1  UNL1        0.2913
      4 O           0.2924   -2.2117    1.2275 O.2     1  UNL1       -0.2661
      5 N          -0.7487   -0.8607   -0.4035 N.am    1  UNL1       -0.2638
      6 C           0.0788   -1.0595   -1.5789 C.3     1  UNL1        0.0242
      7 C           1.1965   -0.0886   -1.6866 C.3     1  UNL1       -0.0114
      8 C           2.1492   -0.0938   -0.5846 C.ar    1  UNL1       -0.0459
      9 C           3.2843   -0.8700   -0.5282 C.ar    1  UNL1       -0.0585
     10 C           4.1595   -0.8389    0.5428 C.ar    1  UNL1       -0.0615
     11 C           3.9109   -0.0124    1.6018 C.ar    1  UNL1       -0.0617
     12 C           2.7794    0.7781    1.5727 C.ar    1  UNL1       -0.0615
     13 C           1.9090    0.7412    0.4980 C.ar    1  UNL1       -0.0585
     14 C          -1.8952   -0.0228   -0.3613 C.ar    1  UNL1        0.0477
     15 C          -2.4823    0.7666   -1.3589 C.ar    1  UNL1       -0.0382
     16 C          -3.6069    1.5173   -1.1160 C.ar    1  UNL1       -0.0416
     17 C          -4.1674    1.4897    0.1415 C.ar    1  UNL1        0.0418
     18 CL         -5.6246    2.4542    0.4793 Cl      1  UNL1       -0.0835
     19 C          -3.6024    0.7205    1.1286 C.ar    1  UNL1       -0.0306
     20 C          -2.4748   -0.0246    0.8635 C.ar    1  UNL1        0.0497
     21 H          -0.5783   -0.9372   -2.4643 H       1  UNL1        0.0472
     22 H           0.4863   -2.0831   -1.6300 H       1  UNL1        0.0472
     23 H           1.7482   -0.3051   -2.6251 H       1  UNL1        0.0329
     24 H           0.8155    0.9664   -1.8179 H       1  UNL1        0.0329
     25 H           3.5078   -1.5262   -1.3383 H       1  UNL1        0.0620
     26 H           5.0414   -1.4708    0.5396 H       1  UNL1        0.0618
     27 H           4.5660    0.0553    2.4758 H       1  UNL1        0.0618
     28 H           2.5563    1.4413    2.3948 H       1  UNL1        0.0618
     29 H           1.0346    1.3741    0.5115 H       1  UNL1        0.0620
     30 H          -2.0396    0.7868   -2.3475 H       1  UNL1        0.0637
     31 H          -4.0204    2.1061   -1.9115 H       1  UNL1        0.0633
     32 H          -4.0403    0.7032    2.0989 H       1  UNL1        0.0640
@<TRIPOS>BOND
     1     1     2    2
     2     2     3    1
     3     3     4    2
     4     3     5   am
     5     5     6    1
     6     6     7    1
     7     7     8    1
     8     8     9   ar
     9     9    10   ar
    10    10    11   ar
    11    11    12   ar
    12    12    13   ar
    13     5    14    1
    14    14    15   ar
    15    15    16   ar
    16    16    17   ar
    17    17    18    1
    18    17    19   ar
    19    19    20   ar
    20    20     2    1
    21    13     8   ar
    22    20    14   ar
    23     6    21    1
    24     6    22    1
    25     7    23    1
    26     7    24    1
    27     9    25    1
    28    10    26    1
    29    11    27    1
    30    12    28    1
    31    13    29    1
    32    15    30    1
    33    16    31    1
    34    19    32    1
