
     RDKit          3D

 32 34  0  0  0  0  0  0  0  0999 V2000
   -1.9315   -1.1632    2.9410 O   0  0  0  0  0  0  0  0  0  0  0  0
   -1.6889   -0.9149    1.7283 C   0  0  0  0  0  0  0  0  0  0  0  0
   -0.6148   -1.4172    0.8891 C   0  0  0  0  0  0  0  0  0  0  0  0
    0.2924   -2.2117    1.2275 O   0  0  0  0  0  0  0  0  0  0  0  0
   -0.7487   -0.8607   -0.4035 N   0  0  0  0  0  0  0  0  0  0  0  0
    0.0788   -1.0595   -1.5789 C   0  0  0  0  0  0  0  0  0  0  0  0
    1.1965   -0.0886   -1.6866 C   0  0  0  0  0  0  0  0  0  0  0  0
    2.1492   -0.0938   -0.5846 C   0  0  0  0  0  0  0  0  0  0  0  0
    3.2843   -0.8700   -0.5282 C   0  0  0  0  0  0  0  0  0  0  0  0
    4.1595   -0.8389    0.5428 C   0  0  0  0  0  0  0  0  0  0  0  0
    3.9109   -0.0124    1.6018 C   0  0  0  0  0  0  0  0  0  0  0  0
    2.7794    0.7781    1.5727 C   0  0  0  0  0  0  0  0  0  0  0  0
    1.9090    0.7412    0.4980 C   0  0  0  0  0  0  0  0  0  0  0  0
   -1.8952   -0.0228   -0.3613 C   0  0  0  0  0  0  0  0  0  0  0  0
   -2.4823    0.7666   -1.3589 C   0  0  0  0  0  0  0  0  0  0  0  0
   -3.6069    1.5173   -1.1160 C   0  0  0  0  0  0  0  0  0  0  0  0
   -4.1674    1.4897    0.1415 C   0  0  0  0  0  0  0  0  0  0  0  0
   -5.6246    2.4542    0.4793 Cl  0  0  0  0  0  0  0  0  0  0  0  0
   -3.6024    0.7205    1.1286 C   0  0  0  0  0  0  0  0  0  0  0  0
   -2.4748   -0.0246    0.8635 C   0  0  0  0  0  0  0  0  0  0  0  0
   -0.5783   -0.9372   -2.4643 H   0  0  0  0  0  0  0  0  0  0  0  0
    0.4863   -2.0831   -1.6300 H   0  0  0  0  0  0  0  0  0  0  0  0
    1.7482   -0.3051   -2.6251 H   0  0  0  0  0  0  0  0  0  0  0  0
    0.8155    0.9664   -1.8179 H   0  0  0  0  0  0  0  0  0  0  0  0
    3.5078   -1.5262   -1.3383 H   0  0  0  0  0  0  0  0  0  0  0  0
    5.0414   -1.4708    0.5396 H   0  0  0  0  0  0  0  0  0  0  0  0
    4.5660    0.0553    2.4758 H   0  0  0  0  0  0  0  0  0  0  0  0
    2.5563    1.4413    2.3948 H   0  0  0  0  0  0  0  0  0  0  0  0
    1.0346    1.3741    0.5115 H   0  0  0  0  0  0  0  0  0  0  0  0
   -2.0396    0.7868   -2.3475 H   0  0  0  0  0  0  0  0  0  0  0  0
   -4.0204    2.1061   -1.9115 H   0  0  0  0  0  0  0  0  0  0  0  0
   -4.0403    0.7032    2.0989 H   0  0  0  0  0  0  0  0  0  0  0  0
  1  2  2  0
  2  3  1  0
  3  4  2  0
  3  5  1  0
  5  6  1  0
  6  7  1  0
  7  8  1  0
  8  9  2  0
  9 10  1  0
 10 11  2  0
 11 12  1  0
 12 13  2  0
  5 14  1  0
 14 15  2  0
 15 16  1  0
 16 17  2  0
 17 18  1  0
 17 19  1  0
 19 20  2  0
 20  2  1  0
 13  8  1  0
 20 14  1  0
  6 21  1  0
  6 22  1  0
  7 23  1  0
  7 24  1  0
  9 25  1  0
 10 26  1  0
 11 27  1  0
 12 28  1  0
 13 29  1  0
 15 30  1  0
 16 31  1  0
 19 32  1  0
M  END
$$$$
