@<TRIPOS>MOLECULE
*****
 68 72 0 0 0
SMALL
GASTEIGER

@<TRIPOS>ATOM
      1 C           8.0876   -1.2404   -0.2631 C.3     1  UNL1       -0.0253
      2 C           7.2649    0.0323   -0.0279 C.3     1  UNL1        0.1068
      3 C           7.8324    0.6648    1.2371 C.3     1  UNL1       -0.0253
      4 C           7.5006    0.9192   -1.2225 C.3     1  UNL1       -0.0253
      5 O           5.9354   -0.3660    0.1225 O.3     1  UNL1       -0.4445
      6 C           4.9029    0.5289    0.3519 C.2     1  UNL1        0.4034
      7 O           5.2162    1.7463    0.4216 O.2     1  UNL1       -0.2262
      8 N           3.5895    0.0501    0.4925 N.am    1  UNL1       -0.2673
      9 C           3.3147   -1.3563    0.3998 C.3     1  UNL1        0.0197
     10 C           2.1409   -1.6381   -0.4928 C.3     1  UNL1       -0.0144
     11 C           1.0575   -0.6138   -0.4193 C.3     1  UNL1        0.0578
     12 N          -0.2656   -1.1909   -0.5849 N.ar    1  UNL1       -0.2431
     13 N          -0.4906   -2.4143   -0.9791 N.ar    1  UNL1       -0.1768
     14 C          -1.8278   -2.6201   -1.0237 C.ar    1  UNL1        0.0620
     15 C          -2.4436   -1.4551   -0.6344 C.ar    1  UNL1        0.0785
     16 C          -3.7765   -1.0998   -0.4964 C.ar    1  UNL1        0.1361
     17 N          -4.8334   -1.9906   -0.7689 N.pl3   1  UNL1       -0.3101
     18 C          -5.0531   -2.6039   -2.0793 C.3     1  UNL1        0.0370
     19 C          -5.3764   -4.0706   -1.8974 C.3     1  UNL1        0.0634
     20 O          -6.4446   -4.2875   -1.0675 O.3     1  UNL1       -0.3767
     21 C          -6.9057   -3.1286   -0.4497 C.3     1  UNL1        0.0634
     22 C          -5.8041   -2.3717    0.2613 C.3     1  UNL1        0.0370
     23 N          -4.0217    0.1740   -0.0778 N.ar    1  UNL1       -0.2118
     24 C          -3.0647    1.0515    0.1916 C.ar    1  UNL1        0.1641
     25 C          -3.3515    2.4096    0.6384 C.ar    1  UNL1        0.0194
     26 C          -2.3273    3.2916    0.9083 C.ar    1  UNL1       -0.0493
     27 C          -2.5769    4.5847    1.3334 C.ar    1  UNL1       -0.0404
     28 C          -3.8968    4.9574    1.4768 C.ar    1  UNL1        0.0246
     29 N          -4.2077    6.2851    1.9142 N.pl3   1  UNL1       -0.3580
     30 C          -4.9415    4.0861    1.2107 C.ar    1  UNL1       -0.0404
     31 C          -4.6836    2.7998    0.7877 C.ar    1  UNL1       -0.0493
     32 N          -1.7881    0.6625    0.0436 N.ar    1  UNL1       -0.2080
     33 C          -1.4308   -0.5612   -0.3605 C.ar    1  UNL1        0.1642
     34 C           1.1775    0.2133    0.8330 C.3     1  UNL1       -0.0144
     35 C           2.5072    0.9669    0.7310 C.3     1  UNL1        0.0197
     36 H           8.2963   -1.7723    0.6646 H       1  UNL1        0.0268
     37 H           7.5423   -1.9466   -0.9322 H       1  UNL1        0.0268
     38 H           9.0496   -1.0123   -0.7623 H       1  UNL1        0.0268
     39 H           8.8859    0.9264    1.0072 H       1  UNL1        0.0268
     40 H           7.8628   -0.0986    2.0424 H       1  UNL1        0.0268
     41 H           7.2446    1.5337    1.5713 H       1  UNL1        0.0268
     42 H           8.5290    1.3505   -1.1032 H       1  UNL1        0.0268
     43 H           7.4736    0.3370   -2.1666 H       1  UNL1        0.0268
     44 H           6.7978    1.7511   -1.3078 H       1  UNL1        0.0268
     45 H           3.1653   -1.8118    1.4225 H       1  UNL1        0.0466
     46 H           4.1859   -1.9177   -0.0236 H       1  UNL1        0.0466
     47 H           1.7063   -2.6166   -0.1606 H       1  UNL1        0.0301
     48 H           2.5153   -1.7706   -1.5319 H       1  UNL1        0.0301
     49 H           1.1796    0.0968   -1.2879 H       1  UNL1        0.0546
     50 H          -2.3628   -3.5172   -1.3065 H       1  UNL1        0.0856
     51 H          -4.1052   -2.5406   -2.6350 H       1  UNL1        0.0487
     52 H          -5.8483   -2.0851   -2.6361 H       1  UNL1        0.0487
     53 H          -4.4673   -4.6373   -1.6216 H       1  UNL1        0.0575
     54 H          -5.6565   -4.4482   -2.9216 H       1  UNL1        0.0575
     55 H          -7.6716   -3.3589    0.3170 H       1  UNL1        0.0575
     56 H          -7.3382   -2.4794   -1.2218 H       1  UNL1        0.0575
     57 H          -5.2625   -3.0087    0.9813 H       1  UNL1        0.0487
     58 H          -6.2640   -1.4767    0.7060 H       1  UNL1        0.0487
     59 H          -1.3031    2.9478    0.7792 H       1  UNL1        0.0625
     60 H          -1.7691    5.2770    1.5451 H       1  UNL1        0.0636
     61 H          -4.4313    6.4967    2.9076 H       1  UNL1        0.1423
     62 H          -4.2031    7.0425    1.1973 H       1  UNL1        0.1423
     63 H          -5.9680    4.4361    1.3419 H       1  UNL1        0.0636
     64 H          -5.4972    2.1225    0.5809 H       1  UNL1        0.0625
     65 H           1.2370   -0.4570    1.7186 H       1  UNL1        0.0301
     66 H           0.4015    0.9725    0.9201 H       1  UNL1        0.0301
     67 H           2.6617    1.6314    1.5875 H       1  UNL1        0.0466
     68 H           2.3983    1.6182   -0.1817 H       1  UNL1        0.0466
@<TRIPOS>BOND
     1     1     2    1
     2     2     3    1
     3     2     4    1
     4     2     5    1
     5     5     6    1
     6     6     7    2
     7     6     8   am
     8     8     9    1
     9     9    10    1
    10    10    11    1
    11    11    12    1
    12    12    13   ar
    13    13    14   ar
    14    14    15   ar
    15    15    16   ar
    16    16    17    1
    17    17    18    1
    18    18    19    1
    19    19    20    1
    20    20    21    1
    21    21    22    1
    22    16    23   ar
    23    23    24   ar
    24    24    25    1
    25    25    26   ar
    26    26    27   ar
    27    27    28   ar
    28    28    29    1
    29    28    30   ar
    30    30    31   ar
    31    24    32   ar
    32    32    33   ar
    33    11    34    1
    34    34    35    1
    35    35     8    1
    36    33    12   ar
    37    33    15   ar
    38    22    17    1
    39    31    25   ar
    40     1    36    1
    41     1    37    1
    42     1    38    1
    43     3    39    1
    44     3    40    1
    45     3    41    1
    46     4    42    1
    47     4    43    1
    48     4    44    1
    49     9    45    1
    50     9    46    1
    51    10    47    1
    52    10    48    1
    53    11    49    1
    54    14    50    1
    55    18    51    1
    56    18    52    1
    57    19    53    1
    58    19    54    1
    59    21    55    1
    60    21    56    1
    61    22    57    1
    62    22    58    1
    63    26    59    1
    64    27    60    1
    65    29    61    1
    66    29    62    1
    67    30    63    1
    68    31    64    1
    69    34    65    1
    70    34    66    1
    71    35    67    1
    72    35    68    1
