
     RDKit          3D

 26 27  0  0  0  0  0  0  0  0999 V2000
   -1.9921   -0.0360    1.8191 C   0  0  0  0  0  0  0  0  0  0  0  0
   -1.0815    0.5520    0.8552 N   0  0  0  0  0  0  0  0  0  0  0  0
   -1.8106    1.2788   -0.1326 C   0  0  0  0  0  0  0  0  0  0  0  0
   -2.1452    0.2720   -1.1953 C   0  0  0  0  0  0  0  0  0  0  0  0
   -0.8444   -0.5184   -1.2595 C   0  0  0  0  0  0  0  0  0  0  0  0
   -0.3879   -0.4947    0.1828 C   0  0  1  0  0  0  0  0  0  0  0  0
    1.0670   -0.3798    0.2004 C   0  0  0  0  0  0  0  0  0  0  0  0
    1.7571    0.7902   -0.0446 C   0  0  0  0  0  0  0  0  0  0  0  0
    3.1304    0.7835   -0.0031 C   0  0  0  0  0  0  0  0  0  0  0  0
    3.8687   -0.3634    0.2782 C   0  0  0  0  0  0  0  0  0  0  0  0
    3.1701   -1.4901    0.5131 N   0  0  0  0  0  0  0  0  0  0  0  0
    1.8264   -1.4954    0.4752 C   0  0  0  0  0  0  0  0  0  0  0  0
   -1.4138   -0.4014    2.6927 H   0  0  0  0  0  0  0  0  0  0  0  0
   -2.8003    0.6605    2.1207 H   0  0  0  0  0  0  0  0  0  0  0  0
   -2.4325   -0.9684    1.3569 H   0  0  0  0  0  0  0  0  0  0  0  0
   -2.7160    1.7861    0.2654 H   0  0  0  0  0  0  0  0  0  0  0  0
   -1.1708    2.0496   -0.5957 H   0  0  0  0  0  0  0  0  0  0  0  0
   -2.9719   -0.3608   -0.8214 H   0  0  0  0  0  0  0  0  0  0  0  0
   -2.3772    0.7777   -2.1397 H   0  0  0  0  0  0  0  0  0  0  0  0
   -0.1413    0.0455   -1.9061 H   0  0  0  0  0  0  0  0  0  0  0  0
   -1.0003   -1.5371   -1.6412 H   0  0  0  0  0  0  0  0  0  0  0  0
   -0.6748   -1.4879    0.6015 H   0  0  0  0  0  0  0  0  0  0  0  0
    1.1715    1.6699   -0.2608 H   0  0  0  0  0  0  0  0  0  0  0  0
    3.6894    1.7019   -0.1949 H   0  0  0  0  0  0  0  0  0  0  0  0
    4.9324   -0.3775    0.3123 H   0  0  0  0  0  0  0  0  0  0  0  0
    1.3476   -2.4567    0.6790 H   0  0  0  0  0  0  0  0  0  0  0  0
  1  2  1  0
  2  3  1  0
  3  4  1  0
  4  5  1  0
  5  6  1  0
  6  7  1  0
  7  8  2  0
  8  9  1  0
  9 10  2  0
 10 11  1  0
 11 12  2  0
  6  2  1  0
 12  7  1  0
  1 13  1  0
  1 14  1  0
  1 15  1  0
  3 16  1  0
  3 17  1  0
  4 18  1  0
  4 19  1  0
  5 20  1  0
  5 21  1  0
  6 22  1  1
  8 23  1  0
  9 24  1  0
 10 25  1  0
 12 26  1  0
M  END
$$$$
