@<TRIPOS>MOLECULE
*****
 26 27 0 0 0
SMALL
GASTEIGER

@<TRIPOS>ATOM
      1 C          -1.9921   -0.0360    1.8191 C.3     1  UNL1       -0.0122
      2 N          -1.0815    0.5520    0.8552 N.3     1  UNL1       -0.2984
      3 C          -1.8106    1.2788   -0.1326 C.3     1  UNL1       -0.0008
      4 C          -2.1452    0.2720   -1.1953 C.3     1  UNL1       -0.0385
      5 C          -0.8444   -0.5184   -1.2595 C.3     1  UNL1       -0.0320
      6 C          -0.3879   -0.4947    0.1828 C.3     1  UNL1        0.0368
      7 C           1.0670   -0.3798    0.2004 C.ar    1  UNL1       -0.0122
      8 C           1.7571    0.7902   -0.0446 C.ar    1  UNL1       -0.0542
      9 C           3.1304    0.7835   -0.0031 C.ar    1  UNL1       -0.0433
     10 C           3.8687   -0.3634    0.2782 C.ar    1  UNL1        0.0276
     11 N           3.1701   -1.4901    0.5131 N.ar    1  UNL1       -0.2629
     12 C           1.8264   -1.4954    0.4752 C.ar    1  UNL1        0.0322
     13 H          -1.4138   -0.4014    2.6927 H       1  UNL1        0.0391
     14 H          -2.8003    0.6605    2.1207 H       1  UNL1        0.0391
     15 H          -2.4325   -0.9684    1.3569 H       1  UNL1        0.0391
     16 H          -2.7160    1.7861    0.2654 H       1  UNL1        0.0427
     17 H          -1.1708    2.0496   -0.5957 H       1  UNL1        0.0427
     18 H          -2.9719   -0.3608   -0.8214 H       1  UNL1        0.0278
     19 H          -2.3772    0.7777   -2.1397 H       1  UNL1        0.0278
     20 H          -0.1413    0.0455   -1.9061 H       1  UNL1        0.0284
     21 H          -1.0003   -1.5371   -1.6412 H       1  UNL1        0.0284
     22 H          -0.6748   -1.4879    0.6015 H       1  UNL1        0.0512
     23 H           1.1715    1.6699   -0.2608 H       1  UNL1        0.0622
     24 H           3.6894    1.7019   -0.1949 H       1  UNL1        0.0633
     25 H           4.9324   -0.3775    0.3123 H       1  UNL1        0.0829
     26 H           1.3476   -2.4567    0.6790 H       1  UNL1        0.0833
@<TRIPOS>BOND
     1     1     2    1
     2     2     3    1
     3     3     4    1
     4     4     5    1
     5     5     6    1
     6     6     7    1
     7     7     8   ar
     8     8     9   ar
     9     9    10   ar
    10    10    11   ar
    11    11    12   ar
    12     6     2    1
    13    12     7   ar
    14     1    13    1
    15     1    14    1
    16     1    15    1
    17     3    16    1
    18     3    17    1
    19     4    18    1
    20     4    19    1
    21     5    20    1
    22     5    21    1
    23     6    22    1
    24     8    23    1
    25     9    24    1
    26    10    25    1
    27    12    26    1
