@<TRIPOS>MOLECULE
*****
 32 35 0 0 0
SMALL
GASTEIGER

@<TRIPOS>ATOM
      1 O           0.2702    3.6719   -0.9831 O.2     1  UNL1       -0.2638
      2 C           0.2380    2.5000   -0.5529 C.ar    1  UNL1        0.2947
      3 N          -0.9497    1.9283   -0.2936 N.ar    1  UNL1       -0.3065
      4 C          -1.0654    0.6717    0.1710 C.ar    1  UNL1        0.1277
      5 C          -2.4072    0.1367    0.4234 C.3     1  UNL1        0.0662
      6 C          -2.4798   -1.3553    0.4313 C.3     1  UNL1       -0.0294
      7 C          -3.9171   -1.6015   -0.0362 C.3     1  UNL1       -0.0386
      8 C          -4.4618   -0.2346   -0.3953 C.3     1  UNL1       -0.0034
      9 N          -3.2435    0.4881   -0.7155 N.3     1  UNL1       -0.3069
     10 N           0.0639   -0.0617    0.3917 N.ar    1  UNL1       -0.2283
     11 C           1.2802    0.4525    0.1522 C.ar    1  UNL1        0.1241
     12 C           1.3771    1.7544   -0.3282 C.ar    1  UNL1        0.2183
     13 O           2.6538    2.0012   -0.4724 O.2     1  UNL1       -0.4477
     14 C           3.3899    0.9917   -0.1341 C.ar    1  UNL1        0.1381
     15 C           4.7480    0.7829   -0.1150 C.ar    1  UNL1       -0.0173
     16 C           5.2511   -0.4323    0.3084 C.ar    1  UNL1       -0.0399
     17 C           4.4380   -1.4706    0.7226 C.ar    1  UNL1        0.0418
     18 CL          5.1233   -2.9937    1.2510 Cl      1  UNL1       -0.0835
     19 C           3.0778   -1.2627    0.7040 C.ar    1  UNL1       -0.0305
     20 C           2.5688   -0.0512    0.2822 C.ar    1  UNL1        0.0478
     21 H          -1.8195    2.4752   -0.4570 H       1  UNL1        0.1702
     22 H          -2.8825    0.5403    1.3398 H       1  UNL1        0.0541
     23 H          -2.3446   -1.7461    1.4643 H       1  UNL1        0.0285
     24 H          -1.7790   -1.8545   -0.2420 H       1  UNL1        0.0285
     25 H          -4.4987   -2.0056    0.8247 H       1  UNL1        0.0278
     26 H          -3.9344   -2.2824   -0.9114 H       1  UNL1        0.0278
     27 H          -5.1586   -0.2763   -1.2550 H       1  UNL1        0.0424
     28 H          -4.9090    0.2520    0.4925 H       1  UNL1        0.0424
     29 H          -2.7732    0.0544   -1.5565 H       1  UNL1        0.1226
     30 H           5.4048    1.5728   -0.4318 H       1  UNL1        0.0655
     31 H           6.3307   -0.6051    0.3261 H       1  UNL1        0.0633
     32 H           2.4084   -2.0405    1.0168 H       1  UNL1        0.0640
@<TRIPOS>BOND
     1     1     2    2
     2     2     3   ar
     3     3     4   ar
     4     4     5    1
     5     5     6    1
     6     6     7    1
     7     7     8    1
     8     8     9    1
     9     4    10   ar
    10    10    11   ar
    11    11    12   ar
    12    12    13   ar
    13    13    14   ar
    14    14    15   ar
    15    15    16   ar
    16    16    17   ar
    17    17    18    1
    18    17    19   ar
    19    19    20   ar
    20    12     2   ar
    21    20    14   ar
    22     9     5    1
    23    20    11   ar
    24     3    21    1
    25     5    22    1
    26     6    23    1
    27     6    24    1
    28     7    25    1
    29     7    26    1
    30     8    27    1
    31     8    28    1
    32     9    29    1
    33    15    30    1
    34    16    31    1
    35    19    32    1
