@<TRIPOS>MOLECULE
*****
 64 67 0 0 0
SMALL
GASTEIGER

@<TRIPOS>ATOM
      1 C          -5.5278    2.3085    2.9157 C.3     1  UNL1        0.0790
      2 O          -6.7681    1.9283    2.3008 O.3     1  UNL1       -0.4913
      3 C          -6.7776    1.0460    1.2419 C.ar    1  UNL1        0.1669
      4 C          -5.5959    0.4958    0.7337 C.ar    1  UNL1        0.0052
      5 C          -5.5592   -0.3791   -0.3105 C.ar    1  UNL1        0.0408
      6 N          -4.3982   -0.9698   -0.8698 N.am    1  UNL1       -0.2813
      7 C          -3.0740   -0.7761   -0.4675 C.2     1  UNL1        0.2483
      8 O          -2.8348    0.0000    0.4940 O.2     1  UNL1       -0.2699
      9 C          -1.9410   -1.4530   -1.1337 C.ar    1  UNL1        0.0390
     10 C          -2.0672   -2.3160   -2.1848 C.ar    1  UNL1       -0.0495
     11 C          -0.9726   -2.9252   -2.7746 C.ar    1  UNL1       -0.0590
     12 C           0.2949   -2.6850   -2.3238 C.ar    1  UNL1       -0.0362
     13 C           0.4421   -1.8161   -1.2629 C.ar    1  UNL1        0.0661
     14 N           1.7563   -1.5273   -0.7476 N.ar    1  UNL1       -0.2380
     15 C           2.5269   -0.4977   -1.1014 C.ar    1  UNL1        0.0525
     16 C           3.7253   -0.5442   -0.3953 C.ar    1  UNL1        0.0729
     17 N           4.7799    0.3941   -0.5204 N.am    1  UNL1       -0.2665
     18 C           5.9961    0.3529    0.1918 C.2     1  UNL1        0.3082
     19 O           6.1844   -0.5777    1.0070 O.2     1  UNL1       -0.2522
     20 N           7.0278    1.3199    0.0319 N.am    1  UNL1       -0.2692
     21 C           8.2481    1.2630    0.7585 C.ar    1  UNL1        0.0350
     22 C           8.3930    1.8903    1.9925 C.ar    1  UNL1       -0.0404
     23 C           9.6069    1.7740    2.6072 C.ar    1  UNL1       -0.0598
     24 C          10.6598    1.0727    2.0534 C.ar    1  UNL1       -0.0587
     25 C          10.5258    0.4559    0.8457 C.ar    1  UNL1       -0.0487
     26 C          11.6554   -0.3025    0.2406 C.3     1  UNL1       -0.0397
     27 C           9.2956    0.5614    0.2004 C.ar    1  UNL1       -0.0375
     28 C           3.6288   -1.6595    0.4014 C.ar    1  UNL1        0.0710
     29 N           2.4200   -2.2067    0.1420 N.ar    1  UNL1       -0.1729
     30 C          -0.6515   -1.2116   -0.6785 C.ar    1  UNL1       -0.0241
     31 C          -6.7977   -0.7084   -0.8642 C.ar    1  UNL1        0.0052
     32 C          -7.9807   -0.1715   -0.3721 C.ar    1  UNL1        0.1669
     33 O          -9.2002   -0.5123   -0.9371 O.3     1  UNL1       -0.4913
     34 C          -9.3170   -1.4103   -2.0287 C.3     1  UNL1        0.0790
     35 C          -7.9890    0.7098    0.6834 C.ar    1  UNL1        0.2036
     36 O          -9.1691    1.2489    1.1785 O.3     1  UNL1       -0.4885
     37 C          -9.7102    2.4591    0.6808 C.3     1  UNL1        0.0791
     38 H          -5.7084    3.0779    3.6864 H       1  UNL1        0.0660
     39 H          -5.1054    1.3673    3.3213 H       1  UNL1        0.0660
     40 H          -4.9011    2.7048    2.0861 H       1  UNL1        0.0660
     41 H          -4.7031    0.8147    1.2305 H       1  UNL1        0.0674
     42 H          -4.5086   -1.6468   -1.6959 H       1  UNL1        0.1551
     43 H          -3.0278   -2.5556   -2.5956 H       1  UNL1        0.0625
     44 H          -1.0916   -3.6143   -3.6163 H       1  UNL1        0.0618
     45 H           1.1809   -3.1412   -2.7569 H       1  UNL1        0.0639
     46 H           2.2310    0.2523   -1.8391 H       1  UNL1        0.0850
     47 H           4.6472    1.1964   -1.2067 H       1  UNL1        0.1565
     48 H           6.8444    2.0836   -0.6532 H       1  UNL1        0.1564
     49 H           7.5524    2.4167    2.3741 H       1  UNL1        0.0636
     50 H           9.7446    2.2514    3.5651 H       1  UNL1        0.0618
     51 H          11.6004    1.0260    2.6083 H       1  UNL1        0.0620
     52 H          11.6094   -1.3805    0.4536 H       1  UNL1        0.0278
     53 H          12.6358    0.1017    0.5453 H       1  UNL1        0.0278
     54 H          11.6109   -0.1809   -0.8768 H       1  UNL1        0.0278
     55 H           9.2308    0.0570   -0.7568 H       1  UNL1        0.0639
     56 H           4.3839   -2.0200    1.0989 H       1  UNL1        0.0867
     57 H          -0.5394   -0.5190    0.1665 H       1  UNL1        0.0646
     58 H          -6.7927   -1.3992   -1.6917 H       1  UNL1        0.0674
     59 H         -10.3469   -1.3537   -2.4234 H       1  UNL1        0.0660
     60 H          -8.5524   -1.1764   -2.7756 H       1  UNL1        0.0660
     61 H          -9.1288   -2.4445   -1.6648 H       1  UNL1        0.0660
     62 H         -10.2161    2.2966   -0.3047 H       1  UNL1        0.0660
     63 H         -10.5360    2.7452    1.3799 H       1  UNL1        0.0660
     64 H          -8.9487    3.2655    0.6133 H       1  UNL1        0.0660
@<TRIPOS>BOND
     1     1     2    1
     2     2     3    1
     3     3     4   ar
     4     4     5   ar
     5     5     6    1
     6     6     7   am
     7     7     8    2
     8     7     9    1
     9     9    10   ar
    10    10    11   ar
    11    11    12   ar
    12    12    13   ar
    13    13    14    1
    14    14    15   ar
    15    15    16   ar
    16    16    17    1
    17    17    18   am
    18    18    19    2
    19    18    20   am
    20    20    21    1
    21    21    22   ar
    22    22    23   ar
    23    23    24   ar
    24    24    25   ar
    25    25    26    1
    26    25    27   ar
    27    16    28   ar
    28    28    29   ar
    29    13    30   ar
    30     5    31   ar
    31    31    32   ar
    32    32    33    1
    33    33    34    1
    34    32    35   ar
    35    35    36    1
    36    36    37    1
    37    35     3   ar
    38    30     9   ar
    39    29    14   ar
    40    27    21   ar
    41     1    38    1
    42     1    39    1
    43     1    40    1
    44     4    41    1
    45     6    42    1
    46    10    43    1
    47    11    44    1
    48    12    45    1
    49    15    46    1
    50    17    47    1
    51    20    48    1
    52    22    49    1
    53    23    50    1
    54    24    51    1
    55    26    52    1
    56    26    53    1
    57    26    54    1
    58    27    55    1
    59    28    56    1
    60    30    57    1
    61    31    58    1
    62    34    59    1
    63    34    60    1
    64    34    61    1
    65    37    62    1
    66    37    63    1
    67    37    64    1
