@<TRIPOS>MOLECULE
*****
 44 47 0 0 0
SMALL
GASTEIGER

@<TRIPOS>ATOM
      1 C          -6.4026   -1.3285   -0.7254 C.3     1  UNL1        0.0789
      2 O          -5.8168   -0.5468    0.1331 O.3     1  UNL1       -0.4933
      3 C          -5.2390    0.2304    0.9935 C.ar    1  UNL1        0.1412
      4 C          -5.6019    0.5949    2.2485 C.ar    1  UNL1       -0.0181
      5 C          -4.8808    1.4686    3.0554 C.ar    1  UNL1       -0.0582
      6 C          -3.7304    2.0021    2.5502 C.ar    1  UNL1       -0.0598
      7 C          -3.3084    1.6559    1.2677 C.ar    1  UNL1       -0.0369
      8 C          -4.0227    0.8064    0.5059 C.ar    1  UNL1        0.0746
      9 N          -3.4566    0.1601   -0.6473 N.pl3   1  UNL1       -0.2965
     10 C          -2.0748   -0.2761   -0.3462 C.ar    1  UNL1        0.1249
     11 C          -1.2676   -0.6375   -1.3512 C.ar    1  UNL1        0.0023
     12 C           0.0939   -0.7514   -1.0074 C.ar    1  UNL1        0.0516
     13 N           1.1650   -0.8506   -1.8031 N.ar    1  UNL1       -0.3539
     14 C           2.2539   -0.6581   -1.0378 C.ar    1  UNL1        0.0505
     15 C           3.6146   -0.5170   -1.5038 C.ar    1  UNL1        0.0357
     16 C           4.2617   -0.9015   -2.6359 C.ar    1  UNL1        0.0585
     17 N           5.4984   -0.4067   -2.5432 N.ar    1  UNL1       -0.1787
     18 N           5.7365    0.2657   -1.4697 N.ar    1  UNL1       -0.2622
     19 C           6.9665    0.7107   -0.7914 C.3     1  UNL1        0.1365
     20 C           6.7294    0.6582    0.7352 C.3     1  UNL1        0.4089
     21 F           6.2762   -0.5673    1.0717 F       1  UNL1       -0.1687
     22 F           8.0130    0.7686    1.3485 F       1  UNL1       -0.1687
     23 F           5.9757    1.7236    1.0757 F       1  UNL1       -0.1687
     24 C           4.5628    0.2249   -0.7740 C.ar    1  UNL1        0.0349
     25 C           1.8564   -0.4544    0.2670 C.ar    1  UNL1       -0.0271
     26 C           0.4849   -0.5085    0.2811 C.ar    1  UNL1        0.0185
     27 C          -0.3687   -0.1571    1.3176 C.ar    1  UNL1        0.0389
     28 N          -1.6668   -0.0500    0.9231 N.ar    1  UNL1       -0.2395
     29 H          -5.8043   -1.4293   -1.7214 H       1  UNL1        0.0660
     30 H          -6.5847   -2.3788   -0.4921 H       1  UNL1        0.0660
     31 H          -7.4076   -0.9120   -1.1081 H       1  UNL1        0.0660
     32 H          -6.5022    0.1460    2.7234 H       1  UNL1        0.0655
     33 H          -5.2336    1.7080    4.0809 H       1  UNL1        0.0619
     34 H          -3.1305    2.7094    3.0906 H       1  UNL1        0.0618
     35 H          -2.4053    2.1158    0.8243 H       1  UNL1        0.0637
     36 H          -3.8392    0.0849   -1.5279 H       1  UNL1        0.1537
     37 H          -1.5565   -0.8830   -2.3461 H       1  UNL1        0.0673
     38 H           1.1468   -1.0683   -2.8138 H       1  UNL1        0.1659
     39 H           3.7823   -1.4868   -3.4275 H       1  UNL1        0.0854
     40 H           7.7214   -0.1533   -0.9199 H       1  UNL1        0.0598
     41 H           7.3627    1.6107   -1.1502 H       1  UNL1        0.0598
     42 H           4.3583    0.6850    0.1946 H       1  UNL1        0.0833
     43 H           2.4782   -0.2676    1.1240 H       1  UNL1        0.0645
     44 H          -0.0375    0.0043    2.3316 H       1  UNL1        0.0837
@<TRIPOS>BOND
     1     1     2    1
     2     2     3    1
     3     3     4   ar
     4     4     5   ar
     5     5     6   ar
     6     6     7   ar
     7     7     8   ar
     8     8     9    1
     9     9    10    1
    10    10    11   ar
    11    11    12   ar
    12    12    13   ar
    13    13    14   ar
    14    14    15    1
    15    15    16   ar
    16    16    17   ar
    17    17    18   ar
    18    18    19    1
    19    19    20    1
    20    20    21    1
    21    20    22    1
    22    20    23    1
    23    18    24   ar
    24    14    25   ar
    25    25    26   ar
    26    26    27   ar
    27    27    28   ar
    28     8     3   ar
    29    28    10   ar
    30    26    12   ar
    31    24    15   ar
    32     1    29    1
    33     1    30    1
    34     1    31    1
    35     4    32    1
    36     5    33    1
    37     6    34    1
    38     7    35    1
    39     9    36    1
    40    11    37    1
    41    13    38    1
    42    16    39    1
    43    19    40    1
    44    19    41    1
    45    24    42    1
    46    25    43    1
    47    27    44    1
