
     RDKit          3D

 26 27  0  0  0  0  0  0  0  0999 V2000
   -1.0457   -1.1584    1.5997 C   0  0  0  0  0  0  0  0  0  0  0  0
   -0.9463   -0.3605    0.2943 C   0  0  0  0  0  0  0  0  0  0  0  0
   -2.3553   -0.1064   -0.1586 C   0  0  0  0  0  0  0  0  0  0  0  0
   -0.1271    0.8729    0.4759 C   0  0  2  0  0  0  0  0  0  0  0  0
   -0.6055    1.9789   -0.4157 C   0  0  0  0  0  0  0  0  0  0  0  0
   -1.7844    2.4103   -0.3884 O   0  0  0  0  0  0  0  0  0  0  0  0
    0.2571    2.5771   -1.3219 O   0  0  0  0  0  0  0  0  0  0  0  0
    1.2186    0.6221    0.2146 N   0  0  0  0  0  0  0  0  0  0  0  0
    2.6221    0.6801    0.2750 C   0  0  0  0  0  0  0  0  0  0  0  0
    3.5100    1.5526    0.4232 O   0  0  0  0  0  0  0  0  0  0  0  0
    2.5682   -0.8187    0.0759 C   0  0  0  0  0  0  0  0  0  0  0  0
    1.4466   -0.3818   -0.8239 C   0  0  1  0  0  0  0  0  0  0  0  0
   -0.0227   -1.3370   -0.8380 S   0  0  0  0  0  6  0  0  0  0  0  0
    0.1857   -2.7350   -0.3427 O   0  0  0  0  0  0  0  0  0  0  0  0
   -0.6364   -1.3017   -2.2013 O   0  0  0  0  0  0  0  0  0  0  0  0
   -1.6449   -2.0538    1.3956 H   0  0  0  0  0  0  0  0  0  0  0  0
   -1.4501   -0.5213    2.4125 H   0  0  0  0  0  0  0  0  0  0  0  0
   -0.0143   -1.4203    1.8795 H   0  0  0  0  0  0  0  0  0  0  0  0
   -2.8294    0.5625    0.5881 H   0  0  0  0  0  0  0  0  0  0  0  0
   -2.8857   -1.0912   -0.1237 H   0  0  0  0  0  0  0  0  0  0  0  0
   -2.4324    0.3073   -1.1740 H   0  0  0  0  0  0  0  0  0  0  0  0
   -0.3594    1.2355    1.5204 H   0  0  0  0  0  0  0  0  0  0  0  0
   -0.1403    3.0596   -2.1174 H   0  0  0  0  0  0  0  0  0  0  0  0
    2.1981   -1.3487    0.9537 H   0  0  0  0  0  0  0  0  0  0  0  0
    3.4635   -1.2273   -0.4229 H   0  0  0  0  0  0  0  0  0  0  0  0
    1.8100    0.0033   -1.7801 H   0  0  0  0  0  0  0  0  0  0  0  0
  1  2  1  0
  2  3  1  0
  2  4  1  0
  4  5  1  0
  5  6  2  0
  5  7  1  0
  4  8  1  0
  8  9  1  0
  9 10  2  0
  9 11  1  0
 11 12  1  0
 12 13  1  0
 13 14  2  0
 13 15  2  0
 13  2  1  0
 12  8  1  0
  1 16  1  0
  1 17  1  0
  1 18  1  0
  3 19  1  0
  3 20  1  0
  3 21  1  0
  4 22  1  1
  7 23  1  0
 11 24  1  0
 11 25  1  0
 12 26  1  6
M  END
$$$$
