@<TRIPOS>MOLECULE
*****
 26 27 0 0 0
SMALL
GASTEIGER

@<TRIPOS>ATOM
      1 C          -1.0457   -1.1584    1.5997 C.3     1  UNL1       -0.0379
      2 C          -0.9463   -0.3605    0.2943 C.3     1  UNL1        0.1130
      3 C          -2.3553   -0.1064   -0.1586 C.3     1  UNL1       -0.0379
      4 C          -0.1271    0.8729    0.4759 C.3     1  UNL1        0.1488
      5 C          -0.6055    1.9789   -0.4157 C.2     1  UNL1        0.3277
      6 O          -1.7844    2.4103   -0.3884 O.2     1  UNL1       -0.2488
      7 O           0.2571    2.5771   -1.3219 O.3     1  UNL1       -0.4793
      8 N           1.2186    0.6221    0.2146 N.am    1  UNL1       -0.2633
      9 C           2.6221    0.6801    0.2750 C.2     1  UNL1        0.2211
     10 O           3.5100    1.5526    0.4232 O.2     1  UNL1       -0.2754
     11 C           2.5682   -0.8187    0.0759 C.3     1  UNL1        0.0629
     12 C           1.4466   -0.3818   -0.8239 C.3     1  UNL1        0.1535
     13 S          -0.0227   -1.3370   -0.8380 S.O2    1  UNL1       -0.0042
     14 O           0.1857   -2.7350   -0.3427 O.2     1  UNL1       -0.1720
     15 O          -0.6364   -1.3017   -2.2013 O.2     1  UNL1       -0.1720
     16 H          -1.6449   -2.0538    1.3956 H       1  UNL1        0.0251
     17 H          -1.4501   -0.5213    2.4125 H       1  UNL1        0.0251
     18 H          -0.0143   -1.4203    1.8795 H       1  UNL1        0.0251
     19 H          -2.8294    0.5625    0.5881 H       1  UNL1        0.0251
     20 H          -2.8857   -1.0912   -0.1237 H       1  UNL1        0.0251
     21 H          -2.4324    0.3073   -1.1740 H       1  UNL1        0.0251
     22 H          -0.3594    1.2355    1.5204 H       1  UNL1        0.0639
     23 H          -0.1403    3.0596   -2.1174 H       1  UNL1        0.2951
     24 H           2.1981   -1.3487    0.9537 H       1  UNL1        0.0393
     25 H           3.4635   -1.2273   -0.4229 H       1  UNL1        0.0393
     26 H           1.8100    0.0033   -1.7801 H       1  UNL1        0.0750
@<TRIPOS>BOND
     1     1     2    1
     2     2     3    1
     3     2     4    1
     4     4     5    1
     5     5     6    2
     6     5     7    1
     7     4     8    1
     8     8     9   am
     9     9    10    2
    10     9    11    1
    11    11    12    1
    12    12    13    1
    13    13    14    2
    14    13    15    2
    15    13     2    1
    16    12     8    1
    17     1    16    1
    18     1    17    1
    19     1    18    1
    20     3    19    1
    21     3    20    1
    22     3    21    1
    23     4    22    1
    24     7    23    1
    25    11    24    1
    26    11    25    1
    27    12    26    1
