@<TRIPOS>MOLECULE
*****
 63 67 0 0 0
SMALL
GASTEIGER

@<TRIPOS>ATOM
      1 O           0.5279   -1.1621   -0.5574 O.2     1  UNL1       -0.2734
      2 C           0.1109   -0.1260   -0.0264 C.2     1  UNL1        0.2378
      3 N           1.1144    0.5855    0.7377 N.am    1  UNL1       -0.2840
      4 C           2.4436    0.1150    0.8480 C.ar    1  UNL1        0.0337
      5 C           2.8193   -0.7704    1.8396 C.ar    1  UNL1       -0.0370
      6 C           4.1217   -1.2257    1.9575 C.ar    1  UNL1       -0.0176
      7 C           5.1077   -0.8158    1.0887 C.ar    1  UNL1        0.1286
      8 O           6.4228   -1.2780    1.2105 O.3     1  UNL1       -0.4560
      9 C           7.4166   -0.7988    0.3875 C.ar    1  UNL1        0.1286
     10 C           7.6504   -1.4304   -0.8096 C.ar    1  UNL1       -0.0166
     11 C           8.6338   -0.9527   -1.6190 C.ar    1  UNL1       -0.0230
     12 C           9.4045    0.1417   -1.2828 C.ar    1  UNL1        0.1236
     13 F          10.3606    0.5263   -2.1781 F       1  UNL1       -0.2055
     14 C           9.1825    0.7815   -0.0920 C.ar    1  UNL1       -0.0230
     15 C           8.1913    0.3110    0.7389 C.ar    1  UNL1       -0.0166
     16 C           4.7403    0.0684    0.0953 C.ar    1  UNL1       -0.0176
     17 C           3.4405    0.5225   -0.0222 C.ar    1  UNL1       -0.0370
     18 C          -1.2250    0.4537   -0.0696 C.3     1  UNL1        0.1028
     19 C          -1.7767    0.4000    1.3997 C.3     1  UNL1       -0.0212
     20 C          -3.2653    0.6072    1.2258 C.3     1  UNL1       -0.0191
     21 C          -3.6135    1.8660    1.9876 C.3     1  UNL1       -0.0233
     22 C          -5.0145    2.2385    1.9416 C.ar    1  UNL1       -0.0469
     23 C          -5.5027    3.0641    0.9587 C.ar    1  UNL1       -0.0559
     24 C          -6.8498    3.4268    0.9106 C.ar    1  UNL1       -0.0262
     25 C          -7.7145    2.9522    1.8637 C.ar    1  UNL1        0.1234
     26 F          -9.0280    3.3202    1.7982 F       1  UNL1       -0.2055
     27 C          -7.2476    2.1273    2.8525 C.ar    1  UNL1       -0.0262
     28 C          -5.8975    1.7733    2.8873 C.ar    1  UNL1       -0.0559
     29 C          -3.4482    0.7132   -0.2502 C.3     1  UNL1        0.0187
     30 N          -2.2975   -0.1337   -0.7287 N.am    1  UNL1       -0.2881
     31 C          -2.5094   -1.1700   -1.6131 C.2     1  UNL1        0.2377
     32 O          -3.7765   -1.3052   -1.9637 O.2     1  UNL1       -0.2736
     33 C          -1.5788   -2.1287   -2.2188 C.3     1  UNL1        0.1195
     34 N          -2.3702   -2.9795   -3.1512 N.ar    1  UNL1       -0.2432
     35 C          -2.6008   -2.7490   -4.4482 C.ar    1  UNL1        0.1148
     36 N          -3.3631   -3.7448   -4.9621 N.ar    1  UNL1       -0.2228
     37 C          -3.6018   -4.6042   -3.9475 C.ar    1  UNL1        0.1380
     38 N          -2.9893   -4.1132   -2.8713 N.ar    1  UNL1       -0.1580
     39 H           0.8257    1.4601    1.2074 H       1  UNL1        0.1549
     40 H           2.0468   -1.1127    2.5475 H       1  UNL1        0.0637
     41 H           4.4188   -1.9250    2.7409 H       1  UNL1        0.0655
     42 H           7.0467   -2.3005   -1.0895 H       1  UNL1        0.0655
     43 H           8.8138   -1.4636   -2.5735 H       1  UNL1        0.0647
     44 H           9.8029    1.6509    0.1639 H       1  UNL1        0.0647
     45 H           8.0021    0.8041    1.6836 H       1  UNL1        0.0655
     46 H           5.5123    0.4021   -0.6016 H       1  UNL1        0.0655
     47 H           3.1335    1.2166   -0.7962 H       1  UNL1        0.0637
     48 H          -1.1283    1.5725   -0.3076 H       1  UNL1        0.0597
     49 H          -1.6145   -0.5996    1.8030 H       1  UNL1        0.0291
     50 H          -1.2738    1.2096    1.9225 H       1  UNL1        0.0291
     51 H          -3.8591   -0.2505    1.6163 H       1  UNL1        0.0320
     52 H          -3.2322    1.7002    3.0318 H       1  UNL1        0.0316
     53 H          -2.9277    2.6635    1.5749 H       1  UNL1        0.0316
     54 H          -4.8585    3.4587    0.1920 H       1  UNL1        0.0621
     55 H          -7.2441    4.0750    0.1434 H       1  UNL1        0.0646
     56 H          -7.9473    1.7670    3.5905 H       1  UNL1        0.0646
     57 H          -5.5886    1.1084    3.7071 H       1  UNL1        0.0621
     58 H          -4.3970    0.3370   -0.6224 H       1  UNL1        0.0467
     59 H          -3.1762    1.7263   -0.5709 H       1  UNL1        0.0467
     60 H          -0.7541   -1.6798   -2.7975 H       1  UNL1        0.0606
     61 H          -1.1787   -2.8740   -1.4727 H       1  UNL1        0.0606
     62 H          -2.2607   -1.9192   -5.0473 H       1  UNL1        0.1044
     63 H          -4.1801   -5.5330   -3.9631 H       1  UNL1        0.1065
@<TRIPOS>BOND
     1     1     2    2
     2     2     3   am
     3     3     4    1
     4     4     5   ar
     5     5     6   ar
     6     6     7   ar
     7     7     8    1
     8     8     9    1
     9     9    10   ar
    10    10    11   ar
    11    11    12   ar
    12    12    13    1
    13    12    14   ar
    14    14    15   ar
    15     7    16   ar
    16    16    17   ar
    17     2    18    1
    18    18    19    1
    19    19    20    1
    20    20    21    1
    21    21    22    1
    22    22    23   ar
    23    23    24   ar
    24    24    25   ar
    25    25    26    1
    26    25    27   ar
    27    27    28   ar
    28    20    29    1
    29    29    30    1
    30    30    31   am
    31    31    32    2
    32    31    33    1
    33    33    34    1
    34    34    35   ar
    35    35    36   ar
    36    36    37   ar
    37    37    38   ar
    38    17     4   ar
    39    30    18    1
    40    38    34   ar
    41    15     9   ar
    42    28    22   ar
    43     3    39    1
    44     5    40    1
    45     6    41    1
    46    10    42    1
    47    11    43    1
    48    14    44    1
    49    15    45    1
    50    16    46    1
    51    17    47    1
    52    18    48    1
    53    19    49    1
    54    19    50    1
    55    20    51    1
    56    21    52    1
    57    21    53    1
    58    23    54    1
    59    24    55    1
    60    27    56    1
    61    28    57    1
    62    29    58    1
    63    29    59    1
    64    33    60    1
    65    33    61    1
    66    35    62    1
    67    37    63    1
