@<TRIPOS>MOLECULE
*****
 13 12 0 0 0
SMALL
GASTEIGER

@<TRIPOS>ATOM
      1 C           1.5284    0.2713   -0.2826 C.3     1  UNL1       -0.0526
      2 C           0.4926   -0.7302    0.2077 C.3     1  UNL1       -0.0072
      3 N          -0.7760   -0.5670   -0.4445 N.3     1  UNL1       -0.3192
      4 C          -1.4890    0.6145   -0.0939 C.3     1  UNL1       -0.0158
      5 H           2.5121   -0.0917    0.0887 H       1  UNL1        0.0242
      6 H           1.2958    1.3015    0.0234 H       1  UNL1        0.0242
      7 H           1.5950    0.2205   -1.3899 H       1  UNL1        0.0242
      8 H           0.8755   -1.7445   -0.0638 H       1  UNL1        0.0421
      9 H           0.4328   -0.6719    1.3123 H       1  UNL1        0.0421
     10 H          -1.3341   -1.4311   -0.5173 H       1  UNL1        0.1216
     11 H          -1.4828    1.3498   -0.9333 H       1  UNL1        0.0388
     12 H          -2.5683    0.3609    0.0642 H       1  UNL1        0.0388
     13 H          -1.0820    1.1179    0.8189 H       1  UNL1        0.0388
@<TRIPOS>BOND
     1     1     2    1
     2     2     3    1
     3     3     4    1
     4     1     5    1
     5     1     6    1
     6     1     7    1
     7     2     8    1
     8     2     9    1
     9     3    10    1
    10     4    11    1
    11     4    12    1
    12     4    13    1
