@<TRIPOS>MOLECULE
*****
 48 51 0 0 0
SMALL
GASTEIGER

@<TRIPOS>ATOM
      1 C          -3.1596   -1.8575    1.9748 C.3     1  UNL1       -0.0480
      2 C          -3.5126   -1.2897    0.6133 C.3     1  UNL1        0.0231
      3 N          -4.9276   -0.9706    0.6263 N.3     1  UNL1       -0.3118
      4 C          -5.3821   -0.4057   -0.6079 C.3     1  UNL1       -0.0037
      5 C          -4.2455   -0.1781   -1.5546 C.3     1  UNL1       -0.0387
      6 C          -3.2050    0.6680   -0.8788 C.3     1  UNL1       -0.0320
      7 C          -2.7473   -0.0311    0.3698 C.3     1  UNL1        0.0371
      8 N          -1.3212   -0.2597    0.2711 N.pl3   1  UNL1       -0.3242
      9 C          -0.4358    0.8557    0.0363 C.ar    1  UNL1        0.1273
     10 N          -0.9561    2.0678   -0.0835 N.ar    1  UNL1       -0.2391
     11 C          -0.2958    3.2143   -0.3020 C.ar    1  UNL1        0.0429
     12 C           1.0889    3.0725   -0.4089 C.ar    1  UNL1        0.0689
     13 C           1.9116    4.2256   -0.6432 C.2     1  UNL1        0.2441
     14 N           1.3568    5.5230   -0.7716 N.am    1  UNL1       -0.3253
     15 O           3.1593    4.1220   -0.7428 O.2     1  UNL1       -0.2703
     16 C           1.6755    1.8187   -0.2895 C.ar    1  UNL1        0.0367
     17 S           3.3499    1.2718   -0.3669 S.2     1  UNL1       -0.0873
     18 C           3.0118   -0.4555   -0.0977 C.ar    1  UNL1        0.0206
     19 C           4.0408   -1.4562   -0.0536 C.ar    1  UNL1       -0.0113
     20 C           5.3653   -1.1210   -0.2207 C.ar    1  UNL1       -0.0535
     21 C           6.3675   -2.0742   -0.1807 C.ar    1  UNL1       -0.0612
     22 C           6.0296   -3.3992    0.0328 C.ar    1  UNL1       -0.0617
     23 C           4.7042   -3.7387    0.2005 C.ar    1  UNL1       -0.0612
     24 C           3.7091   -2.7526    0.1554 C.ar    1  UNL1       -0.0535
     25 C           1.6822   -0.4752    0.0265 C.ar    1  UNL1       -0.0359
     26 C           0.9520    0.6525   -0.0624 C.ar    1  UNL1        0.0302
     27 H          -2.4746   -1.1522    2.5012 H       1  UNL1        0.0245
     28 H          -2.6100   -2.8200    1.8876 H       1  UNL1        0.0245
     29 H          -4.0675   -2.0688    2.5848 H       1  UNL1        0.0245
     30 H          -3.3311   -2.0785   -0.1217 H       1  UNL1        0.0476
     31 H          -5.1012   -0.3409    1.4609 H       1  UNL1        0.1223
     32 H          -6.0940   -1.1236   -1.0830 H       1  UNL1        0.0424
     33 H          -5.9257    0.5333   -0.4467 H       1  UNL1        0.0424
     34 H          -4.6031    0.3357   -2.4761 H       1  UNL1        0.0278
     35 H          -3.7674   -1.1282   -1.8734 H       1  UNL1        0.0278
     36 H          -3.6679    1.6654   -0.6481 H       1  UNL1        0.0284
     37 H          -2.3634    0.8721   -1.5850 H       1  UNL1        0.0284
     38 H          -2.9650    0.6544    1.2406 H       1  UNL1        0.0513
     39 H          -0.9777   -1.2270    0.3732 H       1  UNL1        0.1478
     40 H          -0.7441    4.1722   -0.3932 H       1  UNL1        0.0838
     41 H           1.0551    6.0265    0.0818 H       1  UNL1        0.1453
     42 H           1.2575    5.9580   -1.7204 H       1  UNL1        0.1453
     43 H           5.6391   -0.0818   -0.3889 H       1  UNL1        0.0624
     44 H           7.3921   -1.8239   -0.3087 H       1  UNL1        0.0618
     45 H           6.8232   -4.1369    0.0621 H       1  UNL1        0.0618
     46 H           4.4510   -4.7725    0.3662 H       1  UNL1        0.0618
     47 H           2.6748   -3.0191    0.2865 H       1  UNL1        0.0624
     48 H           1.1839   -1.4713    0.2094 H       1  UNL1        0.0636
@<TRIPOS>BOND
     1     1     2    1
     2     2     3    1
     3     3     4    1
     4     4     5    1
     5     5     6    1
     6     6     7    1
     7     7     8    1
     8     8     9    1
     9     9    10   ar
    10    10    11   ar
    11    11    12   ar
    12    12    13    1
    13    13    14   am
    14    13    15    2
    15    12    16   ar
    16    16    17   ar
    17    17    18   ar
    18    18    19    1
    19    19    20   ar
    20    20    21   ar
    21    21    22   ar
    22    22    23   ar
    23    23    24   ar
    24    18    25   ar
    25    25    26   ar
    26     7     2    1
    27    26     9   ar
    28    26    16   ar
    29    24    19   ar
    30     1    27    1
    31     1    28    1
    32     1    29    1
    33     2    30    1
    34     3    31    1
    35     4    32    1
    36     4    33    1
    37     5    34    1
    38     5    35    1
    39     6    36    1
    40     6    37    1
    41     7    38    1
    42     8    39    1
    43    11    40    1
    44    14    41    1
    45    14    42    1
    46    20    43    1
    47    21    44    1
    48    22    45    1
    49    23    46    1
    50    24    47    1
    51    25    48    1
