
     RDKit          3D

 48 51  0  0  0  0  0  0  0  0999 V2000
   -3.1596   -1.8575    1.9748 C   0  0  0  0  0  0  0  0  0  0  0  0
   -3.5126   -1.2897    0.6133 C   0  0  1  0  0  0  0  0  0  0  0  0
   -4.9276   -0.9706    0.6263 N   0  0  0  0  0  0  0  0  0  0  0  0
   -5.3821   -0.4057   -0.6079 C   0  0  0  0  0  0  0  0  0  0  0  0
   -4.2455   -0.1781   -1.5546 C   0  0  0  0  0  0  0  0  0  0  0  0
   -3.2050    0.6680   -0.8788 C   0  0  0  0  0  0  0  0  0  0  0  0
   -2.7473   -0.0311    0.3698 C   0  0  2  0  0  0  0  0  0  0  0  0
   -1.3212   -0.2597    0.2711 N   0  0  0  0  0  0  0  0  0  0  0  0
   -0.4358    0.8557    0.0363 C   0  0  0  0  0  0  0  0  0  0  0  0
   -0.9561    2.0678   -0.0835 N   0  0  0  0  0  0  0  0  0  0  0  0
   -0.2958    3.2143   -0.3020 C   0  0  0  0  0  0  0  0  0  0  0  0
    1.0889    3.0725   -0.4089 C   0  0  0  0  0  0  0  0  0  0  0  0
    1.9116    4.2256   -0.6432 C   0  0  0  0  0  0  0  0  0  0  0  0
    1.3568    5.5230   -0.7716 N   0  0  0  0  0  0  0  0  0  0  0  0
    3.1593    4.1220   -0.7428 O   0  0  0  0  0  0  0  0  0  0  0  0
    1.6755    1.8187   -0.2895 C   0  0  0  0  0  0  0  0  0  0  0  0
    3.3499    1.2718   -0.3669 S   0  0  0  0  0  0  0  0  0  0  0  0
    3.0118   -0.4555   -0.0977 C   0  0  0  0  0  0  0  0  0  0  0  0
    4.0408   -1.4562   -0.0536 C   0  0  0  0  0  0  0  0  0  0  0  0
    5.3653   -1.1210   -0.2207 C   0  0  0  0  0  0  0  0  0  0  0  0
    6.3675   -2.0742   -0.1807 C   0  0  0  0  0  0  0  0  0  0  0  0
    6.0296   -3.3992    0.0328 C   0  0  0  0  0  0  0  0  0  0  0  0
    4.7042   -3.7387    0.2005 C   0  0  0  0  0  0  0  0  0  0  0  0
    3.7091   -2.7526    0.1554 C   0  0  0  0  0  0  0  0  0  0  0  0
    1.6822   -0.4752    0.0265 C   0  0  0  0  0  0  0  0  0  0  0  0
    0.9520    0.6525   -0.0624 C   0  0  0  0  0  0  0  0  0  0  0  0
   -2.4746   -1.1522    2.5012 H   0  0  0  0  0  0  0  0  0  0  0  0
   -2.6100   -2.8200    1.8876 H   0  0  0  0  0  0  0  0  0  0  0  0
   -4.0675   -2.0688    2.5848 H   0  0  0  0  0  0  0  0  0  0  0  0
   -3.3311   -2.0785   -0.1217 H   0  0  0  0  0  0  0  0  0  0  0  0
   -5.1012   -0.3409    1.4609 H   0  0  0  0  0  0  0  0  0  0  0  0
   -6.0940   -1.1236   -1.0830 H   0  0  0  0  0  0  0  0  0  0  0  0
   -5.9257    0.5333   -0.4467 H   0  0  0  0  0  0  0  0  0  0  0  0
   -4.6031    0.3357   -2.4761 H   0  0  0  0  0  0  0  0  0  0  0  0
   -3.7674   -1.1282   -1.8734 H   0  0  0  0  0  0  0  0  0  0  0  0
   -3.6679    1.6654   -0.6481 H   0  0  0  0  0  0  0  0  0  0  0  0
   -2.3634    0.8721   -1.5850 H   0  0  0  0  0  0  0  0  0  0  0  0
   -2.9650    0.6544    1.2406 H   0  0  0  0  0  0  0  0  0  0  0  0
   -0.9777   -1.2270    0.3732 H   0  0  0  0  0  0  0  0  0  0  0  0
   -0.7441    4.1722   -0.3932 H   0  0  0  0  0  0  0  0  0  0  0  0
    1.0551    6.0265    0.0818 H   0  0  0  0  0  0  0  0  0  0  0  0
    1.2575    5.9580   -1.7204 H   0  0  0  0  0  0  0  0  0  0  0  0
    5.6391   -0.0818   -0.3889 H   0  0  0  0  0  0  0  0  0  0  0  0
    7.3921   -1.8239   -0.3087 H   0  0  0  0  0  0  0  0  0  0  0  0
    6.8232   -4.1369    0.0621 H   0  0  0  0  0  0  0  0  0  0  0  0
    4.4510   -4.7725    0.3662 H   0  0  0  0  0  0  0  0  0  0  0  0
    2.6748   -3.0191    0.2865 H   0  0  0  0  0  0  0  0  0  0  0  0
    1.1839   -1.4713    0.2094 H   0  0  0  0  0  0  0  0  0  0  0  0
  1  2  1  0
  2  3  1  0
  3  4  1  0
  4  5  1  0
  5  6  1  0
  6  7  1  0
  7  8  1  0
  8  9  1  0
  9 10  2  0
 10 11  1  0
 11 12  2  0
 12 13  1  0
 13 14  1  0
 13 15  2  0
 12 16  1  0
 16 17  1  0
 17 18  1  0
 18 19  1  0
 19 20  2  0
 20 21  1  0
 21 22  2  0
 22 23  1  0
 23 24  2  0
 18 25  2  0
 25 26  1  0
  7  2  1  0
 26  9  1  0
 26 16  2  0
 24 19  1  0
  1 27  1  0
  1 28  1  0
  1 29  1  0
  2 30  1  6
  3 31  1  0
  4 32  1  0
  4 33  1  0
  5 34  1  0
  5 35  1  0
  6 36  1  0
  6 37  1  0
  7 38  1  1
  8 39  1  0
 11 40  1  0
 14 41  1  0
 14 42  1  0
 20 43  1  0
 21 44  1  0
 22 45  1  0
 23 46  1  0
 24 47  1  0
 25 48  1  0
M  END
$$$$
