@<TRIPOS>MOLECULE
*****
 56 57 0 0 0
SMALL
GASTEIGER

@<TRIPOS>ATOM
      1 C          -6.8714    2.7573   -0.2456 C.3     1  UNL1       -0.0307
      2 C          -6.9886    1.2391   -0.3206 C.3     1  UNL1        0.0870
      3 O          -5.8256    0.6048    0.0591 O.3     1  UNL1       -0.4886
      4 C          -5.4978   -0.7260    0.1239 C.ar    1  UNL1        0.1619
      5 C          -6.2502   -1.8341   -0.1971 C.ar    1  UNL1       -0.0163
      6 C          -5.6644   -3.0681   -0.0335 C.ar    1  UNL1       -0.0581
      7 C          -4.3845   -3.2630    0.4269 C.ar    1  UNL1       -0.0581
      8 C          -3.6233   -2.1371    0.7529 C.ar    1  UNL1       -0.0163
      9 C          -4.1831   -0.8778    0.5988 C.ar    1  UNL1        0.1620
     10 O          -3.4242    0.1150    0.9196 O.3     1  UNL1       -0.4870
     11 C          -2.6603    1.1110    1.2425 C.3     1  UNL1        0.1022
     12 C          -1.3193    0.9577    0.4816 C.3     1  UNL1        0.0304
     13 N          -0.4095    2.0150    0.7495 N.3     1  UNL1       -0.3100
     14 C           0.8998    1.5809    0.2404 C.3     1  UNL1        0.0089
     15 C           0.8506    1.0336   -1.1354 C.3     1  UNL1       -0.0494
     16 C           1.5939    0.7215    1.2398 C.3     1  UNL1       -0.0124
     17 C           2.8889    0.2434    0.7760 C.ar    1  UNL1       -0.0438
     18 C           4.0754    0.9591    0.8390 C.ar    1  UNL1       -0.0285
     19 C           5.2534    0.3619    0.4092 C.ar    1  UNL1        0.1466
     20 C           5.2312   -0.9399   -0.0757 C.ar    1  UNL1        0.1463
     21 O           6.4117   -1.5462   -0.5042 O.3     1  UNL1       -0.4932
     22 C           6.3578   -2.8704   -0.9844 C.3     1  UNL1        0.0789
     23 C           4.0489   -1.6475   -0.1382 C.ar    1  UNL1       -0.0177
     24 C           2.8995   -1.0354    0.2918 C.ar    1  UNL1       -0.0550
     25 S           6.7337    1.2973    0.4695 S.O2    1  UNL1        0.0594
     26 N           7.8905    0.4862    1.4296 N.3     1  UNL1       -0.2034
     27 O           7.2005    1.5628   -0.9406 O.2     1  UNL1       -0.1531
     28 O           6.4541    2.6278    1.0940 O.2     1  UNL1       -0.1531
     29 H          -7.5014    3.1611    0.5690 H       1  UNL1        0.0262
     30 H          -7.1438    3.2537   -1.1903 H       1  UNL1        0.0262
     31 H          -5.8107    3.0526   -0.0573 H       1  UNL1        0.0262
     32 H          -7.8811    0.9637    0.2853 H       1  UNL1        0.0694
     33 H          -7.2393    0.9895   -1.3654 H       1  UNL1        0.0694
     34 H          -7.2385   -1.6234   -0.5507 H       1  UNL1        0.0655
     35 H          -6.2488   -3.9369   -0.2882 H       1  UNL1        0.0619
     36 H          -3.9752   -4.2565    0.5304 H       1  UNL1        0.0619
     37 H          -2.6076   -2.3019    1.1190 H       1  UNL1        0.0655
     38 H          -2.4014    1.2588    2.3467 H       1  UNL1        0.0709
     39 H          -3.0707    2.1192    0.9454 H       1  UNL1        0.0709
     40 H          -1.6210    0.8541   -0.5668 H       1  UNL1        0.0457
     41 H          -0.9689   -0.0646    0.8107 H       1  UNL1        0.0457
     42 H          -0.3022    2.2329    1.7569 H       1  UNL1        0.1223
     43 H           1.4847    2.5521    0.1958 H       1  UNL1        0.0461
     44 H           0.7955   -0.0870   -1.1458 H       1  UNL1        0.0245
     45 H           1.7530    1.3374   -1.7334 H       1  UNL1        0.0245
     46 H          -0.0392    1.3536   -1.7239 H       1  UNL1        0.0245
     47 H           0.9525   -0.1089    1.6249 H       1  UNL1        0.0328
     48 H           1.7596    1.3864    2.1440 H       1  UNL1        0.0328
     49 H           4.0085    1.9731    1.2322 H       1  UNL1        0.0641
     50 H           5.8832   -3.5184   -0.1963 H       1  UNL1        0.0660
     51 H           7.3872   -3.2406   -1.0945 H       1  UNL1        0.0660
     52 H           5.7926   -2.8530   -1.9216 H       1  UNL1        0.0660
     53 H           4.0478   -2.6692   -0.5167 H       1  UNL1        0.0655
     54 H           2.0136   -1.6471    0.2144 H       1  UNL1        0.0621
     55 H           8.8334    0.6245    0.9847 H       1  UNL1        0.1442
     56 H           7.6505   -0.5337    1.4247 H       1  UNL1        0.1442
@<TRIPOS>BOND
     1     1     2    1
     2     2     3    1
     3     3     4    1
     4     4     5   ar
     5     5     6   ar
     6     6     7   ar
     7     7     8   ar
     8     8     9   ar
     9     9    10    1
    10    10    11    1
    11    11    12    1
    12    12    13    1
    13    13    14    1
    14    14    15    1
    15    14    16    1
    16    16    17    1
    17    17    18   ar
    18    18    19   ar
    19    19    20   ar
    20    20    21    1
    21    21    22    1
    22    20    23   ar
    23    23    24   ar
    24    19    25    1
    25    25    26    1
    26    25    27    2
    27    25    28    2
    28     9     4   ar
    29    24    17   ar
    30     1    29    1
    31     1    30    1
    32     1    31    1
    33     2    32    1
    34     2    33    1
    35     5    34    1
    36     6    35    1
    37     7    36    1
    38     8    37    1
    39    11    38    1
    40    11    39    1
    41    12    40    1
    42    12    41    1
    43    13    42    1
    44    14    43    1
    45    15    44    1
    46    15    45    1
    47    15    46    1
    48    16    47    1
    49    16    48    1
    50    18    49    1
    51    22    50    1
    52    22    51    1
    53    22    52    1
    54    23    53    1
    55    24    54    1
    56    26    55    1
    57    26    56    1
