@<TRIPOS>MOLECULE
*****
 56 59 0 0 0
SMALL
GASTEIGER

@<TRIPOS>ATOM
      1 C          -3.9910   -2.7127   -2.0666 C.3     1  UNL1       -0.0394
      2 C          -4.5188   -1.3587   -1.8126 C.ar    1  UNL1       -0.0455
      3 C          -5.4927   -0.8607   -2.6901 C.ar    1  UNL1       -0.0585
      4 C          -5.9939    0.4092   -2.5241 C.ar    1  UNL1       -0.0615
      5 C          -5.5167    1.1651   -1.4850 C.ar    1  UNL1       -0.0614
      6 C          -4.5569    0.6735   -0.6195 C.ar    1  UNL1       -0.0565
      7 C          -4.0486   -0.5947   -0.7748 C.ar    1  UNL1       -0.0238
      8 C          -3.0538   -1.1516    0.1581 C.3     1  UNL1        0.0590
      9 C          -3.6119   -1.1569    1.5604 C.3     1  UNL1        0.0673
     10 C          -4.8474   -1.9361    1.7358 C.2     1  UNL1        0.3068
     11 O          -5.4567   -2.5337    0.8214 O.2     1  UNL1       -0.2509
     12 O          -5.4449   -2.0606    3.0066 O.3     1  UNL1       -0.4806
     13 N          -1.8395   -0.3582    0.1965 N.am    1  UNL1       -0.3027
     14 C          -0.6138   -0.9719   -0.1141 C.2     1  UNL1        0.2648
     15 O          -0.5251   -2.1976   -0.4269 O.2     1  UNL1       -0.2684
     16 C           0.6475   -0.2207   -0.0940 C.ar    1  UNL1        0.1511
     17 C           1.9330   -0.6846   -0.3611 C.ar    1  UNL1        0.0322
     18 C           2.8144    0.3400   -0.2335 C.ar    1  UNL1        0.2187
     19 O           4.1782    0.3146   -0.4077 O.3     1  UNL1       -0.4760
     20 C           4.9743   -0.7656   -0.7482 C.3     1  UNL1        0.0940
     21 C           4.9343   -1.8931    0.2532 C.3     1  UNL1       -0.0067
     22 C           5.3862   -1.5069    1.6432 C.3     1  UNL1       -0.0468
     23 C           6.2686   -2.3402    0.7598 C.3     1  UNL1       -0.0468
     24 N           2.0655    1.4314    0.1119 N.ar    1  UNL1       -0.1969
     25 C           2.6396    2.7150    0.3353 C.ar    1  UNL1        0.1042
     26 C           2.5631    3.6983   -0.6451 C.ar    1  UNL1       -0.0333
     27 C           3.1096    4.9508   -0.4550 C.ar    1  UNL1       -0.0596
     28 C           3.7551    5.2767    0.7188 C.ar    1  UNL1       -0.0589
     29 C           3.8292    4.3043    1.6845 C.ar    1  UNL1       -0.0243
     30 C           3.2813    3.0321    1.5077 C.ar    1  UNL1        0.1488
     31 F           3.3777    2.0958    2.4933 F       1  UNL1       -0.2033
     32 N           0.8198    1.0766    0.1847 N.ar    1  UNL1       -0.1585
     33 H          -2.9810   -2.6625   -2.5756 H       1  UNL1        0.0278
     34 H          -4.6288   -3.2145   -2.8560 H       1  UNL1        0.0278
     35 H          -3.9816   -3.3975   -1.2283 H       1  UNL1        0.0278
     36 H          -5.8713   -1.4506   -3.5087 H       1  UNL1        0.0620
     37 H          -6.7584    0.8149   -3.2039 H       1  UNL1        0.0618
     38 H          -5.8795    2.1822   -1.3060 H       1  UNL1        0.0618
     39 H          -4.1671    1.2624    0.2119 H       1  UNL1        0.0621
     40 H          -2.7713   -2.1884   -0.1567 H       1  UNL1        0.0554
     41 H          -2.8178   -1.4718    2.3037 H       1  UNL1        0.0399
     42 H          -3.8287   -0.0937    1.8822 H       1  UNL1        0.0399
     43 H          -6.0225   -2.8504    3.2440 H       1  UNL1        0.2951
     44 H          -1.8281    0.6514    0.4444 H       1  UNL1        0.1497
     45 H           2.1089   -1.7172   -0.6266 H       1  UNL1        0.0694
     46 H           6.0189   -0.3881   -0.8624 H       1  UNL1        0.0700
     47 H           4.6287   -1.1327   -1.7634 H       1  UNL1        0.0700
     48 H           4.1370   -2.6392    0.1024 H       1  UNL1        0.0334
     49 H           5.6382   -0.4446    1.8490 H       1  UNL1        0.0269
     50 H           4.8806   -1.9959    2.5149 H       1  UNL1        0.0269
     51 H           7.1694   -1.8799    0.3203 H       1  UNL1        0.0269
     52 H           6.3044   -3.4331    1.0286 H       1  UNL1        0.0269
     53 H           2.0469    3.4312   -1.5793 H       1  UNL1        0.0640
     54 H           3.0387    5.7107   -1.2385 H       1  UNL1        0.0618
     55 H           4.1811    6.2558    0.8657 H       1  UNL1        0.0618
     56 H           4.3178    4.4730    2.6365 H       1  UNL1        0.0647
@<TRIPOS>BOND
     1     1     2    1
     2     2     3   ar
     3     3     4   ar
     4     4     5   ar
     5     5     6   ar
     6     6     7   ar
     7     7     8    1
     8     8     9    1
     9     9    10    1
    10    10    11    2
    11    10    12    1
    12     8    13    1
    13    13    14   am
    14    14    15    2
    15    14    16    1
    16    16    17   ar
    17    17    18   ar
    18    18    19    1
    19    19    20    1
    20    20    21    1
    21    21    22    1
    22    22    23    1
    23    18    24   ar
    24    24    25    1
    25    25    26   ar
    26    26    27   ar
    27    27    28   ar
    28    28    29   ar
    29    29    30   ar
    30    30    31    1
    31    24    32   ar
    32     7     2   ar
    33    32    16   ar
    34    23    21    1
    35    30    25   ar
    36     1    33    1
    37     1    34    1
    38     1    35    1
    39     3    36    1
    40     4    37    1
    41     5    38    1
    42     6    39    1
    43     8    40    1
    44     9    41    1
    45     9    42    1
    46    12    43    1
    47    13    44    1
    48    17    45    1
    49    20    46    1
    50    20    47    1
    51    21    48    1
    52    22    49    1
    53    22    50    1
    54    23    51    1
    55    23    52    1
    56    26    53    1
    57    27    54    1
    58    28    55    1
    59    29    56    1
