
     RDKit          3D

 56 59  0  0  0  0  0  0  0  0999 V2000
   -3.9910   -2.7127   -2.0666 C   0  0  0  0  0  0  0  0  0  0  0  0
   -4.5188   -1.3587   -1.8126 C   0  0  0  0  0  0  0  0  0  0  0  0
   -5.4927   -0.8607   -2.6901 C   0  0  0  0  0  0  0  0  0  0  0  0
   -5.9939    0.4092   -2.5241 C   0  0  0  0  0  0  0  0  0  0  0  0
   -5.5167    1.1651   -1.4850 C   0  0  0  0  0  0  0  0  0  0  0  0
   -4.5569    0.6735   -0.6195 C   0  0  0  0  0  0  0  0  0  0  0  0
   -4.0486   -0.5947   -0.7748 C   0  0  0  0  0  0  0  0  0  0  0  0
   -3.0538   -1.1516    0.1581 C   0  0  2  0  0  0  0  0  0  0  0  0
   -3.6119   -1.1569    1.5604 C   0  0  0  0  0  0  0  0  0  0  0  0
   -4.8474   -1.9361    1.7358 C   0  0  0  0  0  0  0  0  0  0  0  0
   -5.4567   -2.5337    0.8214 O   0  0  0  0  0  0  0  0  0  0  0  0
   -5.4449   -2.0606    3.0066 O   0  0  0  0  0  0  0  0  0  0  0  0
   -1.8395   -0.3582    0.1965 N   0  0  0  0  0  0  0  0  0  0  0  0
   -0.6138   -0.9719   -0.1141 C   0  0  0  0  0  0  0  0  0  0  0  0
   -0.5251   -2.1976   -0.4269 O   0  0  0  0  0  0  0  0  0  0  0  0
    0.6475   -0.2207   -0.0940 C   0  0  0  0  0  0  0  0  0  0  0  0
    1.9330   -0.6846   -0.3611 C   0  0  0  0  0  0  0  0  0  0  0  0
    2.8144    0.3400   -0.2335 C   0  0  0  0  0  0  0  0  0  0  0  0
    4.1782    0.3146   -0.4077 O   0  0  0  0  0  0  0  0  0  0  0  0
    4.9743   -0.7656   -0.7482 C   0  0  0  0  0  0  0  0  0  0  0  0
    4.9343   -1.8931    0.2532 C   0  0  0  0  0  0  0  0  0  0  0  0
    5.3862   -1.5069    1.6432 C   0  0  0  0  0  0  0  0  0  0  0  0
    6.2686   -2.3402    0.7598 C   0  0  0  0  0  0  0  0  0  0  0  0
    2.0655    1.4314    0.1119 N   0  0  0  0  0  0  0  0  0  0  0  0
    2.6396    2.7150    0.3353 C   0  0  0  0  0  0  0  0  0  0  0  0
    2.5631    3.6983   -0.6451 C   0  0  0  0  0  0  0  0  0  0  0  0
    3.1096    4.9508   -0.4550 C   0  0  0  0  0  0  0  0  0  0  0  0
    3.7551    5.2767    0.7188 C   0  0  0  0  0  0  0  0  0  0  0  0
    3.8292    4.3043    1.6845 C   0  0  0  0  0  0  0  0  0  0  0  0
    3.2813    3.0321    1.5077 C   0  0  0  0  0  0  0  0  0  0  0  0
    3.3777    2.0958    2.4933 F   0  0  0  0  0  0  0  0  0  0  0  0
    0.8198    1.0766    0.1847 N   0  0  0  0  0  0  0  0  0  0  0  0
   -2.9810   -2.6625   -2.5756 H   0  0  0  0  0  0  0  0  0  0  0  0
   -4.6288   -3.2145   -2.8560 H   0  0  0  0  0  0  0  0  0  0  0  0
   -3.9816   -3.3975   -1.2283 H   0  0  0  0  0  0  0  0  0  0  0  0
   -5.8713   -1.4506   -3.5087 H   0  0  0  0  0  0  0  0  0  0  0  0
   -6.7584    0.8149   -3.2039 H   0  0  0  0  0  0  0  0  0  0  0  0
   -5.8795    2.1822   -1.3060 H   0  0  0  0  0  0  0  0  0  0  0  0
   -4.1671    1.2624    0.2119 H   0  0  0  0  0  0  0  0  0  0  0  0
   -2.7713   -2.1884   -0.1567 H   0  0  0  0  0  0  0  0  0  0  0  0
   -2.8178   -1.4718    2.3037 H   0  0  0  0  0  0  0  0  0  0  0  0
   -3.8287   -0.0937    1.8822 H   0  0  0  0  0  0  0  0  0  0  0  0
   -6.0225   -2.8504    3.2440 H   0  0  0  0  0  0  0  0  0  0  0  0
   -1.8281    0.6514    0.4444 H   0  0  0  0  0  0  0  0  0  0  0  0
    2.1089   -1.7172   -0.6266 H   0  0  0  0  0  0  0  0  0  0  0  0
    6.0189   -0.3881   -0.8624 H   0  0  0  0  0  0  0  0  0  0  0  0
    4.6287   -1.1327   -1.7634 H   0  0  0  0  0  0  0  0  0  0  0  0
    4.1370   -2.6392    0.1024 H   0  0  0  0  0  0  0  0  0  0  0  0
    5.6382   -0.4446    1.8490 H   0  0  0  0  0  0  0  0  0  0  0  0
    4.8806   -1.9959    2.5149 H   0  0  0  0  0  0  0  0  0  0  0  0
    7.1694   -1.8799    0.3203 H   0  0  0  0  0  0  0  0  0  0  0  0
    6.3044   -3.4331    1.0286 H   0  0  0  0  0  0  0  0  0  0  0  0
    2.0469    3.4312   -1.5793 H   0  0  0  0  0  0  0  0  0  0  0  0
    3.0387    5.7107   -1.2385 H   0  0  0  0  0  0  0  0  0  0  0  0
    4.1811    6.2558    0.8657 H   0  0  0  0  0  0  0  0  0  0  0  0
    4.3178    4.4730    2.6365 H   0  0  0  0  0  0  0  0  0  0  0  0
  1  2  1  0
  2  3  2  0
  3  4  1  0
  4  5  2  0
  5  6  1  0
  6  7  2  0
  7  8  1  0
  8  9  1  0
  9 10  1  0
 10 11  2  0
 10 12  1  0
  8 13  1  0
 13 14  1  0
 14 15  2  0
 14 16  1  0
 16 17  1  0
 17 18  2  0
 18 19  1  0
 19 20  1  0
 20 21  1  0
 21 22  1  0
 22 23  1  0
 18 24  1  0
 24 25  1  0
 25 26  2  0
 26 27  1  0
 27 28  2  0
 28 29  1  0
 29 30  2  0
 30 31  1  0
 24 32  1  0
  7  2  1  0
 32 16  2  0
 23 21  1  0
 30 25  1  0
  1 33  1  0
  1 34  1  0
  1 35  1  0
  3 36  1  0
  4 37  1  0
  5 38  1  0
  6 39  1  0
  8 40  1  6
  9 41  1  0
  9 42  1  0
 12 43  1  0
 13 44  1  0
 17 45  1  0
 20 46  1  0
 20 47  1  0
 21 48  1  0
 22 49  1  0
 22 50  1  0
 23 51  1  0
 23 52  1  0
 26 53  1  0
 27 54  1  0
 28 55  1  0
 29 56  1  0
M  END
$$$$
