@<TRIPOS>MOLECULE
*****
 64 66 0 0 0
SMALL
GASTEIGER

@<TRIPOS>ATOM
      1 C          -5.1083   -3.6684    1.5669 C.3     1  UNL1       -0.0493
      2 C          -4.2140   -3.1668    0.4349 C.3     1  UNL1        0.0123
      3 N          -3.7198   -1.8164    0.7659 N.am    1  UNL1       -0.2946
      4 C          -2.5432   -1.7087    1.5186 C.3     1  UNL1        0.0539
      5 C          -1.2158   -1.5136    0.8949 C.3     1  UNL1        0.1917
      6 O          -1.1106   -0.3541    0.1542 O.3     1  UNL1       -0.3774
      7 C          -0.1671   -1.4403    2.0199 C.3     1  UNL1        0.0508
      8 N           1.1728   -1.3326    1.6173 N.am    1  UNL1       -0.3081
      9 C           1.8049   -0.2779    0.9073 C.2     1  UNL1        0.2490
     10 O           1.1404    0.7203    0.5778 O.2     1  UNL1       -0.2700
     11 C           3.2167   -0.3300    0.5511 C.ar    1  UNL1        0.0958
     12 C           4.1363   -1.3247    0.8095 C.ar    1  UNL1        0.0638
     13 N           5.3072   -0.9358    0.2934 N.ar    1  UNL1       -0.1723
     14 N           5.1965    0.2575   -0.2858 N.ar    1  UNL1       -0.2182
     15 C           6.2020    1.0051   -0.9401 C.ar    1  UNL1        0.0676
     16 C           7.3935    1.3073   -0.3124 C.ar    1  UNL1       -0.0335
     17 C           8.3768    2.0386   -0.9528 C.ar    1  UNL1       -0.0244
     18 C           8.1939    2.4863   -2.2367 C.ar    1  UNL1        0.1235
     19 F           9.1548    3.2032   -2.8677 F       1  UNL1       -0.2055
     20 C           6.9946    2.1799   -2.8631 C.ar    1  UNL1       -0.0244
     21 C           6.0203    1.4537   -2.2249 C.ar    1  UNL1       -0.0335
     22 C           3.9027    0.6440   -0.1322 C.ar    1  UNL1        0.1320
     23 N           3.3424    1.8609   -0.6014 N.pl3   1  UNL1       -0.3424
     24 C          -0.7470   -2.6937    0.0350 C.3     1  UNL1        0.4212
     25 F           0.5196   -2.3423   -0.4463 F       1  UNL1       -0.1675
     26 F          -0.6198   -3.8084    0.7976 F       1  UNL1       -0.1675
     27 F          -1.4999   -2.8831   -1.0846 F       1  UNL1       -0.1675
     28 C          -4.5715   -0.7300    0.3436 C.2     1  UNL1        0.2485
     29 O          -5.6330   -1.0210   -0.2077 O.2     1  UNL1       -0.2699
     30 C          -4.2251    0.6740    0.5508 C.ar    1  UNL1        0.0616
     31 C          -4.2895    1.2758    1.7724 C.ar    1  UNL1       -0.0478
     32 C          -3.8749    2.5740    1.9287 C.ar    1  UNL1       -0.0609
     33 C          -3.3786    3.3333    0.8832 C.ar    1  UNL1       -0.0599
     34 C          -3.3196    2.7153   -0.3476 C.ar    1  UNL1       -0.0361
     35 C          -3.7372    1.4019   -0.5214 C.ar    1  UNL1        0.0999
     36 S          -3.7414    0.6988   -2.1414 S.O2    1  UNL1       -0.0052
     37 C          -2.9924    1.8926   -3.2262 C.3     1  UNL1        0.0596
     38 O          -5.1768    0.5835   -2.6356 O.2     1  UNL1       -0.1696
     39 O          -3.0163   -0.5704   -2.2508 O.2     1  UNL1       -0.1696
     40 H          -4.4481   -3.9669    2.4021 H       1  UNL1        0.0245
     41 H          -5.7953   -2.8759    1.9263 H       1  UNL1        0.0245
     42 H          -5.6558   -4.5655    1.2201 H       1  UNL1        0.0245
     43 H          -3.3558   -3.8598    0.4368 H       1  UNL1        0.0462
     44 H          -4.8236   -3.1764   -0.4811 H       1  UNL1        0.0462
     45 H          -2.6891   -0.7985    2.2020 H       1  UNL1        0.0496
     46 H          -2.4822   -2.6199    2.1800 H       1  UNL1        0.0496
     47 H          -0.7864   -0.5743   -0.7586 H       1  UNL1        0.2106
     48 H          -0.4873   -0.6635    2.7635 H       1  UNL1        0.0494
     49 H          -0.3130   -2.4020    2.5766 H       1  UNL1        0.0494
     50 H           1.8554   -2.1338    1.8557 H       1  UNL1        0.1491
     51 H           3.9696   -2.2503    1.3273 H       1  UNL1        0.0856
     52 H           7.5406    0.9581    0.6942 H       1  UNL1        0.0640
     53 H           9.3077    2.2586   -0.4235 H       1  UNL1        0.0647
     54 H           6.8561    2.5383   -3.8821 H       1  UNL1        0.0647
     55 H           5.0762    1.2110   -2.7146 H       1  UNL1        0.0640
     56 H           3.0300    1.9220   -1.5830 H       1  UNL1        0.1437
     57 H           3.2431    2.6844    0.0242 H       1  UNL1        0.1437
     58 H          -4.6802    0.6770    2.5938 H       1  UNL1        0.0626
     59 H          -3.9267    3.0592    2.9135 H       1  UNL1        0.0618
     60 H          -3.0490    4.3594    1.0043 H       1  UNL1        0.0618
     61 H          -2.9314    3.2805   -1.2105 H       1  UNL1        0.0637
     62 H          -1.9550    2.1279   -2.9475 H       1  UNL1        0.0468
     63 H          -3.5793    2.8326   -3.1243 H       1  UNL1        0.0468
     64 H          -3.0938    1.5900   -4.2943 H       1  UNL1        0.0468
@<TRIPOS>BOND
     1     1     2    1
     2     2     3    1
     3     3     4    1
     4     4     5    1
     5     5     6    1
     6     5     7    1
     7     7     8    1
     8     8     9   am
     9     9    10    2
    10     9    11    1
    11    11    12   ar
    12    12    13   ar
    13    13    14   ar
    14    14    15    1
    15    15    16   ar
    16    16    17   ar
    17    17    18   ar
    18    18    19    1
    19    18    20   ar
    20    20    21   ar
    21    14    22   ar
    22    22    23    1
    23     5    24    1
    24    24    25    1
    25    24    26    1
    26    24    27    1
    27     3    28   am
    28    28    29    2
    29    28    30    1
    30    30    31   ar
    31    31    32   ar
    32    32    33   ar
    33    33    34   ar
    34    34    35   ar
    35    35    36    1
    36    36    37    1
    37    36    38    2
    38    36    39    2
    39    22    11   ar
    40    35    30   ar
    41    21    15   ar
    42     1    40    1
    43     1    41    1
    44     1    42    1
    45     2    43    1
    46     2    44    1
    47     4    45    1
    48     4    46    1
    49     6    47    1
    50     7    48    1
    51     7    49    1
    52     8    50    1
    53    12    51    1
    54    16    52    1
    55    17    53    1
    56    20    54    1
    57    21    55    1
    58    23    56    1
    59    23    57    1
    60    31    58    1
    61    32    59    1
    62    33    60    1
    63    34    61    1
    64    37    62    1
    65    37    63    1
    66    37    64    1
