
     RDKit          3D

 85 89  0  0  0  0  0  0  0  0999 V2000
    7.1829   -2.1848   -0.9004 C   0  0  0  0  0  0  0  0  0  0  0  0
    8.2188   -1.3457   -1.5841 C   0  0  0  0  0  0  0  0  0  0  0  0
    7.6678   -0.5087   -2.5790 N   0  0  0  0  0  0  0  0  0  0  0  0
    8.7787    0.0684   -3.4070 C   0  0  0  0  0  0  0  0  0  0  0  0
    9.6100    1.0283   -2.6334 C   0  0  0  0  0  0  0  0  0  0  0  0
    6.8187    0.5663   -2.2011 C   0  0  0  0  0  0  0  0  0  0  0  0
    5.5563    0.1947   -1.5666 C   0  0  0  0  0  0  0  0  0  0  0  0
    5.3181    0.1786   -0.2261 C   0  0  0  0  0  0  0  0  0  0  0  0
    4.0783   -0.1851    0.2644 C   0  0  0  0  0  0  0  0  0  0  0  0
    3.0276   -0.5446   -0.5449 C   0  0  0  0  0  0  0  0  0  0  0  0
    1.8013   -0.9051   -0.1586 O   0  0  0  0  0  0  0  0  0  0  0  0
    1.1952   -1.0107    1.0436 C   0  0  0  0  0  0  0  0  0  0  0  0
    1.0137    0.2670    1.8080 C   0  0  0  0  0  0  0  0  0  0  0  0
    0.3067   -0.0484    3.1219 C   0  0  0  0  0  0  0  0  0  0  0  0
    0.0556    1.1790    3.8987 C   0  0  0  0  0  0  0  0  0  0  0  0
   -0.8886    2.1194    3.2060 C   0  0  0  0  0  0  0  0  0  0  0  0
   -2.2505    1.5645    2.9910 C   0  0  0  0  0  0  0  0  0  0  0  0
   -2.3566    0.4133    2.1338 N   0  0  0  0  0  0  0  0  0  0  0  0
   -3.7161   -0.0894    2.3217 C   0  0  0  0  0  0  0  0  0  0  0  0
   -3.9579   -1.3724    1.6026 C   0  0  0  0  0  0  0  0  0  0  0  0
   -4.6039   -1.1792    0.2406 C   0  0  1  0  0  0  0  0  0  0  0  0
   -3.8149   -1.7890   -0.8247 C   0  0  0  0  0  0  0  0  0  0  0  0
   -4.3033   -2.6555   -1.6674 C   0  0  0  0  0  0  0  0  0  0  0  0
   -5.7012   -3.1017   -1.6231 C   0  0  2  0  0  0  0  0  0  0  0  0
   -6.4526   -2.6141   -2.6911 O   0  0  0  0  0  0  0  0  0  0  0  0
   -6.3661   -2.8549   -0.2980 C   0  0  0  0  0  0  0  0  0  0  0  0
   -6.0568   -1.4901    0.2496 C   0  0  2  0  0  0  0  0  0  0  0  0
   -6.6021   -0.4844   -0.5900 O   0  0  0  0  0  0  0  0  0  0  0  0
   -5.7909    0.6488   -0.5004 C   0  0  0  0  0  0  0  0  0  0  0  0
   -6.0178    1.9916   -0.8257 C   0  0  0  0  0  0  0  0  0  0  0  0
   -7.2271    2.3112   -1.3223 O   0  0  0  0  0  0  0  0  0  0  0  0
   -7.8130    3.4625   -1.7658 C   0  0  0  0  0  0  0  0  0  0  0  0
   -4.9810    2.9031   -0.6147 C   0  0  0  0  0  0  0  0  0  0  0  0
   -3.7710    2.4937   -0.1011 C   0  0  0  0  0  0  0  0  0  0  0  0
   -3.5526    1.1779    0.2164 C   0  0  0  0  0  0  0  0  0  0  0  0
   -4.5858    0.2957    0.0007 C   0  0  0  0  0  0  0  0  0  0  0  0
   -2.2098    0.8884    0.7580 C   0  0  0  0  0  0  0  0  0  0  0  0
    3.2552   -0.5342   -1.9434 C   0  0  0  0  0  0  0  0  0  0  0  0
    4.4880   -0.1719   -2.3988 C   0  0  0  0  0  0  0  0  0  0  0  0
    7.5094   -3.2743   -0.8902 H   0  0  0  0  0  0  0  0  0  0  0  0
    6.2166   -2.2165   -1.4346 H   0  0  0  0  0  0  0  0  0  0  0  0
    7.0576   -1.9524    0.1860 H   0  0  0  0  0  0  0  0  0  0  0  0
    8.9327   -2.0440   -2.0918 H   0  0  0  0  0  0  0  0  0  0  0  0
    8.7634   -0.7758   -0.7754 H   0  0  0  0  0  0  0  0  0  0  0  0
    9.3004   -0.7883   -3.8243 H   0  0  0  0  0  0  0  0  0  0  0  0
    8.2537    0.6071   -4.2301 H   0  0  0  0  0  0  0  0  0  0  0  0
   10.6871    0.8568   -2.9275 H   0  0  0  0  0  0  0  0  0  0  0  0
    9.3614    2.0852   -2.9449 H   0  0  0  0  0  0  0  0  0  0  0  0
    9.4735    0.9524   -1.5512 H   0  0  0  0  0  0  0  0  0  0  0  0
    7.3681    1.2265   -1.4538 H   0  0  0  0  0  0  0  0  0  0  0  0
    6.6166    1.2647   -3.0598 H   0  0  0  0  0  0  0  0  0  0  0  0
    6.1373    0.4612    0.4441 H   0  0  0  0  0  0  0  0  0  0  0  0
    3.9295   -0.2076    1.3576 H   0  0  0  0  0  0  0  0  0  0  0  0
    0.1939   -1.5276    0.9415 H   0  0  0  0  0  0  0  0  0  0  0  0
    1.8442   -1.6593    1.7170 H   0  0  0  0  0  0  0  0  0  0  0  0
    2.0018    0.6711    2.1220 H   0  0  0  0  0  0  0  0  0  0  0  0
    0.5271    1.0060    1.1857 H   0  0  0  0  0  0  0  0  0  0  0  0
   -0.5325   -0.7407    2.9939 H   0  0  0  0  0  0  0  0  0  0  0  0
    1.0857   -0.6471    3.7049 H   0  0  0  0  0  0  0  0  0  0  0  0
   -0.3066    0.9739    4.9452 H   0  0  0  0  0  0  0  0  0  0  0  0
    1.0352    1.7436    3.9903 H   0  0  0  0  0  0  0  0  0  0  0  0
   -1.0232    2.9947    3.9138 H   0  0  0  0  0  0  0  0  0  0  0  0
   -0.3909    2.4724    2.2868 H   0  0  0  0  0  0  0  0  0  0  0  0
   -2.6268    1.2292    4.0036 H   0  0  0  0  0  0  0  0  0  0  0  0
   -2.9936    2.3347    2.6839 H   0  0  0  0  0  0  0  0  0  0  0  0
   -4.4886    0.6391    2.0209 H   0  0  0  0  0  0  0  0  0  0  0  0
   -3.8332   -0.2635    3.4096 H   0  0  0  0  0  0  0  0  0  0  0  0
   -3.0467   -1.9801    1.4386 H   0  0  0  0  0  0  0  0  0  0  0  0
   -4.6494   -1.9979    2.2005 H   0  0  0  0  0  0  0  0  0  0  0  0
   -2.7705   -1.5130   -0.9206 H   0  0  0  0  0  0  0  0  0  0  0  0
   -3.6614   -3.0816   -2.4508 H   0  0  0  0  0  0  0  0  0  0  0  0
   -5.6739   -4.2179   -1.7725 H   0  0  0  0  0  0  0  0  0  0  0  0
   -7.3659   -3.0331   -2.6150 H   0  0  0  0  0  0  0  0  0  0  0  0
   -6.0886   -3.6026    0.4732 H   0  0  0  0  0  0  0  0  0  0  0  0
   -7.4794   -2.9519   -0.4073 H   0  0  0  0  0  0  0  0  0  0  0  0
   -6.4685   -1.4489    1.2801 H   0  0  0  0  0  0  0  0  0  0  0  0
   -7.7673    3.6572   -2.8667 H   0  0  0  0  0  0  0  0  0  0  0  0
   -8.9125    3.4873   -1.5207 H   0  0  0  0  0  0  0  0  0  0  0  0
   -7.3223    4.3531   -1.2966 H   0  0  0  0  0  0  0  0  0  0  0  0
   -5.1642    3.9409   -0.8698 H   0  0  0  0  0  0  0  0  0  0  0  0
   -2.9443    3.1893    0.0738 H   0  0  0  0  0  0  0  0  0  0  0  0
   -1.6760    1.8501    0.8021 H   0  0  0  0  0  0  0  0  0  0  0  0
   -1.6050    0.2133    0.1464 H   0  0  0  0  0  0  0  0  0  0  0  0
    2.4710   -0.8071   -2.6292 H   0  0  0  0  0  0  0  0  0  0  0  0
    4.6716   -0.1612   -3.4879 H   0  0  0  0  0  0  0  0  0  0  0  0
  1  2  1  0
  2  3  1  0
  3  4  1  0
  4  5  1  0
  3  6  1  0
  6  7  1  0
  7  8  2  0
  8  9  1  0
  9 10  2  0
 10 11  1  0
 11 12  1  0
 12 13  1  0
 13 14  1  0
 14 15  1  0
 15 16  1  0
 16 17  1  0
 17 18  1  0
 18 19  1  0
 19 20  1  0
 21 20  1  1
 21 22  1  0
 22 23  2  0
 23 24  1  0
 24 25  1  0
 24 26  1  0
 26 27  1  0
 27 28  1  0
 28 29  1  0
 29 30  1  0
 30 31  1  0
 31 32  1  0
 30 33  2  0
 33 34  1  0
 34 35  2  0
 35 36  1  0
 35 37  1  0
 10 38  1  0
 38 39  2  0
 39  7  1  0
 37 18  1  0
 27 21  1  0
 36 29  2  0
 36 21  1  0
  1 40  1  0
  1 41  1  0
  1 42  1  0
  2 43  1  0
  2 44  1  0
  4 45  1  0
  4 46  1  0
  5 47  1  0
  5 48  1  0
  5 49  1  0
  6 50  1  0
  6 51  1  0
  8 52  1  0
  9 53  1  0
 12 54  1  0
 12 55  1  0
 13 56  1  0
 13 57  1  0
 14 58  1  0
 14 59  1  0
 15 60  1  0
 15 61  1  0
 16 62  1  0
 16 63  1  0
 17 64  1  0
 17 65  1  0
 19 66  1  0
 19 67  1  0
 20 68  1  0
 20 69  1  0
 22 70  1  0
 23 71  1  0
 24 72  1  6
 25 73  1  0
 26 74  1  0
 26 75  1  0
 27 76  1  1
 32 77  1  0
 32 78  1  0
 32 79  1  0
 33 80  1  0
 34 81  1  0
 37 82  1  0
 37 83  1  0
 38 84  1  0
 39 85  1  0
M  END
$$$$
