@<TRIPOS>MOLECULE
*****
 85 89 0 0 0
SMALL
GASTEIGER

@<TRIPOS>ATOM
      1 C           7.1829   -2.1848   -0.9004 C.3     1  UNL1       -0.0523
      2 C           8.2188   -1.3457   -1.5841 C.3     1  UNL1       -0.0036
      3 N           7.6678   -0.5087   -2.5790 N.3     1  UNL1       -0.2987
      4 C           8.7787    0.0684   -3.4070 C.3     1  UNL1       -0.0036
      5 C           9.6100    1.0283   -2.6334 C.3     1  UNL1       -0.0523
      6 C           6.8187    0.5663   -2.2011 C.3     1  UNL1        0.0240
      7 C           5.5563    0.1947   -1.5666 C.ar    1  UNL1       -0.0331
      8 C           5.3181    0.1786   -0.2261 C.ar    1  UNL1       -0.0539
      9 C           4.0783   -0.1851    0.2644 C.ar    1  UNL1       -0.0196
     10 C           3.0276   -0.5446   -0.5449 C.ar    1  UNL1        0.1205
     11 O           1.8013   -0.9051   -0.1586 O.3     1  UNL1       -0.4920
     12 C           1.1952   -1.0107    1.0436 C.3     1  UNL1        0.0896
     13 C           1.0137    0.2670    1.8080 C.3     1  UNL1       -0.0186
     14 C           0.3067   -0.0484    3.1219 C.3     1  UNL1       -0.0499
     15 C           0.0556    1.1790    3.8987 C.3     1  UNL1       -0.0518
     16 C          -0.8886    2.1194    3.2060 C.3     1  UNL1       -0.0402
     17 C          -2.2505    1.5645    2.9910 C.3     1  UNL1       -0.0008
     18 N          -2.3566    0.4133    2.1338 N.3     1  UNL1       -0.2981
     19 C          -3.7161   -0.0894    2.3217 C.3     1  UNL1        0.0004
     20 C          -3.9579   -1.3724    1.6026 C.3     1  UNL1       -0.0235
     21 C          -4.6039   -1.1792    0.2406 C.3     1  UNL1        0.0558
     22 C          -3.8149   -1.7890   -0.8247 C.2     1  UNL1       -0.0715
     23 C          -4.3033   -2.6555   -1.6674 C.2     1  UNL1       -0.0588
     24 C          -5.7012   -3.1017   -1.6231 C.3     1  UNL1        0.0768
     25 O          -6.4526   -2.6141   -2.6911 O.3     1  UNL1       -0.3876
     26 C          -6.3661   -2.8549   -0.2980 C.3     1  UNL1        0.0151
     27 C          -6.0568   -1.4901    0.2496 C.3     1  UNL1        0.1161
     28 O          -6.6021   -0.4844   -0.5900 O.3     1  UNL1       -0.4836
     29 C          -5.7909    0.6488   -0.5004 C.ar    1  UNL1        0.1667
     30 C          -6.0178    1.9916   -0.8257 C.ar    1  UNL1        0.1618
     31 O          -7.2271    2.3112   -1.3223 O.3     1  UNL1       -0.4914
     32 C          -7.8130    3.4625   -1.7658 C.3     1  UNL1        0.0790
     33 C          -4.9810    2.9031   -0.6147 C.ar    1  UNL1       -0.0160
     34 C          -3.7710    2.4937   -0.1011 C.ar    1  UNL1       -0.0534
     35 C          -3.5526    1.1779    0.2164 C.ar    1  UNL1       -0.0255
     36 C          -4.5858    0.2957    0.0007 C.ar    1  UNL1        0.0158
     37 C          -2.2098    0.8884    0.7580 C.3     1  UNL1        0.0244
     38 C           3.2552   -0.5342   -1.9434 C.ar    1  UNL1       -0.0196
     39 C           4.4880   -0.1719   -2.3988 C.ar    1  UNL1       -0.0539
     40 H           7.5094   -3.2743   -0.8902 H       1  UNL1        0.0242
     41 H           6.2166   -2.2165   -1.4346 H       1  UNL1        0.0242
     42 H           7.0576   -1.9524    0.1860 H       1  UNL1        0.0242
     43 H           8.9327   -2.0440   -2.0918 H       1  UNL1        0.0424
     44 H           8.7634   -0.7758   -0.7754 H       1  UNL1        0.0424
     45 H           9.3004   -0.7883   -3.8243 H       1  UNL1        0.0424
     46 H           8.2537    0.6071   -4.2301 H       1  UNL1        0.0424
     47 H          10.6871    0.8568   -2.9275 H       1  UNL1        0.0242
     48 H           9.3614    2.0852   -2.9449 H       1  UNL1        0.0242
     49 H           9.4735    0.9524   -1.5512 H       1  UNL1        0.0242
     50 H           7.3681    1.2265   -1.4538 H       1  UNL1        0.0476
     51 H           6.6166    1.2647   -3.0598 H       1  UNL1        0.0476
     52 H           6.1373    0.4612    0.4441 H       1  UNL1        0.0622
     53 H           3.9295   -0.2076    1.3576 H       1  UNL1        0.0654
     54 H           0.1939   -1.5276    0.9415 H       1  UNL1        0.0696
     55 H           1.8442   -1.6593    1.7170 H       1  UNL1        0.0696
     56 H           2.0018    0.6711    2.1220 H       1  UNL1        0.0298
     57 H           0.5271    1.0060    1.1857 H       1  UNL1        0.0298
     58 H          -0.5325   -0.7407    2.9939 H       1  UNL1        0.0266
     59 H           1.0857   -0.6471    3.7049 H       1  UNL1        0.0266
     60 H          -0.3066    0.9739    4.9452 H       1  UNL1        0.0266
     61 H           1.0352    1.7436    3.9903 H       1  UNL1        0.0266
     62 H          -1.0232    2.9947    3.9138 H       1  UNL1        0.0278
     63 H          -0.3909    2.4724    2.2868 H       1  UNL1        0.0278
     64 H          -2.6268    1.2292    4.0036 H       1  UNL1        0.0427
     65 H          -2.9936    2.3347    2.6839 H       1  UNL1        0.0427
     66 H          -4.4886    0.6391    2.0209 H       1  UNL1        0.0427
     67 H          -3.8332   -0.2635    3.4096 H       1  UNL1        0.0427
     68 H          -3.0467   -1.9801    1.4386 H       1  UNL1        0.0290
     69 H          -4.6494   -1.9979    2.2005 H       1  UNL1        0.0290
     70 H          -2.7705   -1.5130   -0.9206 H       1  UNL1        0.0580
     71 H          -3.6614   -3.0816   -2.4508 H       1  UNL1        0.0595
     72 H          -5.6739   -4.2179   -1.7725 H       1  UNL1        0.0639
     73 H          -7.3659   -3.0331   -2.6150 H       1  UNL1        0.2102
     74 H          -6.0886   -3.6026    0.4732 H       1  UNL1        0.0329
     75 H          -7.4794   -2.9519   -0.4073 H       1  UNL1        0.0329
     76 H          -6.4685   -1.4489    1.2801 H       1  UNL1        0.0746
     77 H          -7.7673    3.6572   -2.8667 H       1  UNL1        0.0660
     78 H          -8.9125    3.4873   -1.5207 H       1  UNL1        0.0660
     79 H          -7.3223    4.3531   -1.2966 H       1  UNL1        0.0660
     80 H          -5.1642    3.9409   -0.8698 H       1  UNL1        0.0655
     81 H          -2.9443    3.1893    0.0738 H       1  UNL1        0.0622
     82 H          -1.6760    1.8501    0.8021 H       1  UNL1        0.0476
     83 H          -1.6050    0.2133    0.1464 H       1  UNL1        0.0476
     84 H           2.4710   -0.8071   -2.6292 H       1  UNL1        0.0654
     85 H           4.6716   -0.1612   -3.4879 H       1  UNL1        0.0622
@<TRIPOS>BOND
     1     1     2    1
     2     2     3    1
     3     3     4    1
     4     4     5    1
     5     3     6    1
     6     6     7    1
     7     7     8   ar
     8     8     9   ar
     9     9    10   ar
    10    10    11    1
    11    11    12    1
    12    12    13    1
    13    13    14    1
    14    14    15    1
    15    15    16    1
    16    16    17    1
    17    17    18    1
    18    18    19    1
    19    19    20    1
    20    21    20    1
    21    21    22    1
    22    22    23    2
    23    23    24    1
    24    24    25    1
    25    24    26    1
    26    26    27    1
    27    27    28    1
    28    28    29    1
    29    29    30   ar
    30    30    31    1
    31    31    32    1
    32    30    33   ar
    33    33    34   ar
    34    34    35   ar
    35    35    36   ar
    36    35    37    1
    37    10    38   ar
    38    38    39   ar
    39    39     7   ar
    40    37    18    1
    41    27    21    1
    42    36    29   ar
    43    36    21    1
    44     1    40    1
    45     1    41    1
    46     1    42    1
    47     2    43    1
    48     2    44    1
    49     4    45    1
    50     4    46    1
    51     5    47    1
    52     5    48    1
    53     5    49    1
    54     6    50    1
    55     6    51    1
    56     8    52    1
    57     9    53    1
    58    12    54    1
    59    12    55    1
    60    13    56    1
    61    13    57    1
    62    14    58    1
    63    14    59    1
    64    15    60    1
    65    15    61    1
    66    16    62    1
    67    16    63    1
    68    17    64    1
    69    17    65    1
    70    19    66    1
    71    19    67    1
    72    20    68    1
    73    20    69    1
    74    22    70    1
    75    23    71    1
    76    24    72    1
    77    25    73    1
    78    26    74    1
    79    26    75    1
    80    27    76    1
    81    32    77    1
    82    32    78    1
    83    32    79    1
    84    33    80    1
    85    34    81    1
    86    37    82    1
    87    37    83    1
    88    38    84    1
    89    39    85    1
