
     RDKit          3D

 62 64  0  0  0  0  0  0  0  0999 V2000
   -8.1722   -0.0661    2.6132 C   0  0  0  0  0  0  0  0  0  0  0  0
   -6.7019   -0.1297    2.2909 C   0  0  0  0  0  0  0  0  0  0  0  0
   -6.3807    0.6771    1.0237 C   0  0  2  0  0  0  0  0  0  0  0  0
   -6.7692    2.0910    1.2569 C   0  0  0  0  0  0  0  0  0  0  0  0
   -7.9749    2.4504    1.3949 O   0  0  0  0  0  0  0  0  0  0  0  0
   -5.8219    3.0999    1.3359 O   0  0  0  0  0  0  0  0  0  0  0  0
   -7.1007    0.1453   -0.1644 C   0  0  0  0  0  0  0  0  0  0  0  0
   -6.2616   -0.1634   -1.3565 C   0  0  0  0  0  0  0  0  0  0  0  0
   -4.9068   -0.6649   -1.0322 C   0  0  0  0  0  0  0  0  0  0  0  0
   -4.2573   -1.5419   -1.8551 C   0  0  0  0  0  0  0  0  0  0  0  0
   -3.0049   -2.0221   -1.5837 C   0  0  0  0  0  0  0  0  0  0  0  0
   -2.3425   -1.6061   -0.4117 C   0  0  0  0  0  0  0  0  0  0  0  0
   -1.1583   -2.0608   -0.1562 O   0  0  0  0  0  0  0  0  0  0  0  0
    0.0186   -2.5115    0.0993 C   0  0  0  0  0  0  0  0  0  0  0  0
    1.1190   -1.4140    0.2079 C   0  0  0  0  0  0  0  0  0  0  0  0
    1.1260   -0.7435   -1.1385 C   0  0  0  0  0  0  0  0  0  0  0  0
    2.0104    0.2901   -1.3195 O   0  0  0  0  0  0  0  0  0  0  0  0
    3.3662    0.2490   -1.3134 C   0  0  0  0  0  0  0  0  0  0  0  0
    4.1330   -0.8801   -1.1496 C   0  0  0  0  0  0  0  0  0  0  0  0
    5.5300   -0.7789   -1.1666 C   0  0  0  0  0  0  0  0  0  0  0  0
    6.1724    0.4343   -1.3463 C   0  0  0  0  0  0  0  0  0  0  0  0
    7.6513    0.4705   -1.3521 C   0  0  0  0  0  0  0  0  0  0  0  0
    8.1439    0.6918    0.0615 C   0  0  0  0  0  0  0  0  0  0  0  0
    9.6619    0.7326    0.0843 C   0  0  0  0  0  0  0  0  0  0  0  0
    7.5644    1.9817    0.6265 C   0  0  0  0  0  0  0  0  0  0  0  0
    5.4195    1.5745   -1.5132 C   0  0  0  0  0  0  0  0  0  0  0  0
    4.0571    1.4627   -1.4940 C   0  0  0  0  0  0  0  0  0  0  0  0
    3.0625    2.8980   -1.7029 Cl  0  0  0  0  0  0  0  0  0  0  0  0
   -3.0497   -0.7025    0.4057 C   0  0  0  0  0  0  0  0  0  0  0  0
   -4.2981   -0.2415    0.1081 C   0  0  0  0  0  0  0  0  0  0  0  0
   -4.9674    0.6361    0.9173 O   0  0  0  0  0  0  0  0  0  0  0  0
   -8.7756   -0.3713    1.7470 H   0  0  0  0  0  0  0  0  0  0  0  0
   -8.4764    0.8966    3.0557 H   0  0  0  0  0  0  0  0  0  0  0  0
   -8.3476   -0.8478    3.4010 H   0  0  0  0  0  0  0  0  0  0  0  0
   -6.0869    0.2524    3.1058 H   0  0  0  0  0  0  0  0  0  0  0  0
   -6.4525   -1.1999    2.0762 H   0  0  0  0  0  0  0  0  0  0  0  0
   -6.0596    4.0462    1.6662 H   0  0  0  0  0  0  0  0  0  0  0  0
   -7.7037   -0.7658    0.0571 H   0  0  0  0  0  0  0  0  0  0  0  0
   -7.8729    0.8972   -0.5079 H   0  0  0  0  0  0  0  0  0  0  0  0
   -6.7774   -0.8465   -2.0797 H   0  0  0  0  0  0  0  0  0  0  0  0
   -6.1019    0.8107   -1.9045 H   0  0  0  0  0  0  0  0  0  0  0  0
   -4.7642   -1.8637   -2.7572 H   0  0  0  0  0  0  0  0  0  0  0  0
   -2.5060   -2.7184   -2.2501 H   0  0  0  0  0  0  0  0  0  0  0  0
    0.1691   -3.1381    1.0331 H   0  0  0  0  0  0  0  0  0  0  0  0
    0.3738   -3.2425   -0.7084 H   0  0  0  0  0  0  0  0  0  0  0  0
    0.8144   -0.6852    0.9912 H   0  0  0  0  0  0  0  0  0  0  0  0
    2.0203   -1.9526    0.4239 H   0  0  0  0  0  0  0  0  0  0  0  0
    1.3192   -1.6034   -1.8723 H   0  0  0  0  0  0  0  0  0  0  0  0
    0.0690   -0.4495   -1.4263 H   0  0  0  0  0  0  0  0  0  0  0  0
    3.6763   -1.8598   -1.0309 H   0  0  0  0  0  0  0  0  0  0  0  0
    6.0727   -1.7049   -1.0302 H   0  0  0  0  0  0  0  0  0  0  0  0
    7.9665    1.3741   -1.9472 H   0  0  0  0  0  0  0  0  0  0  0  0
    8.1192   -0.3867   -1.8367 H   0  0  0  0  0  0  0  0  0  0  0  0
    7.8383   -0.1179    0.7429 H   0  0  0  0  0  0  0  0  0  0  0  0
    9.9757    0.4841    1.1406 H   0  0  0  0  0  0  0  0  0  0  0  0
   10.0656    1.7081   -0.2326 H   0  0  0  0  0  0  0  0  0  0  0  0
    9.9950   -0.1092   -0.5700 H   0  0  0  0  0  0  0  0  0  0  0  0
    8.0271    2.2245    1.6039 H   0  0  0  0  0  0  0  0  0  0  0  0
    6.4762    1.8685    0.7841 H   0  0  0  0  0  0  0  0  0  0  0  0
    7.7128    2.7800   -0.1228 H   0  0  0  0  0  0  0  0  0  0  0  0
    5.8896    2.5595   -1.6601 H   0  0  0  0  0  0  0  0  0  0  0  0
   -2.5240   -0.3970    1.2981 H   0  0  0  0  0  0  0  0  0  0  0  0
  1  2  1  0
  3  2  1  1
  3  4  1  0
  4  5  2  0
  4  6  1  0
  3  7  1  0
  7  8  1  0
  8  9  1  0
  9 10  2  0
 10 11  1  0
 11 12  2  0
 12 13  1  0
 13 14  1  0
 14 15  1  0
 15 16  1  0
 16 17  1  0
 17 18  1  0
 18 19  2  0
 19 20  1  0
 20 21  2  0
 21 22  1  0
 22 23  1  0
 23 24  1  0
 23 25  1  0
 21 26  1  0
 26 27  2  0
 27 28  1  0
 12 29  1  0
 29 30  2  0
 30 31  1  0
 31  3  1  0
 30  9  1  0
 27 18  1  0
  1 32  1  0
  1 33  1  0
  1 34  1  0
  2 35  1  0
  2 36  1  0
  6 37  1  0
  7 38  1  0
  7 39  1  0
  8 40  1  0
  8 41  1  0
 10 42  1  0
 11 43  1  0
 14 44  1  0
 14 45  1  0
 15 46  1  0
 15 47  1  0
 16 48  1  0
 16 49  1  0
 19 50  1  0
 20 51  1  0
 22 52  1  0
 22 53  1  0
 23 54  1  0
 24 55  1  0
 24 56  1  0
 24 57  1  0
 25 58  1  0
 25 59  1  0
 25 60  1  0
 26 61  1  0
 29 62  1  0
M  END
$$$$
