@<TRIPOS>MOLECULE
*****
 62 64 0 0 0
SMALL
GASTEIGER

@<TRIPOS>ATOM
      1 C          -8.1722   -0.0661    2.6132 C.3     1  UNL1       -0.0611
      2 C          -6.7019   -0.1297    2.2909 C.3     1  UNL1       -0.0051
      3 C          -6.3807    0.6771    1.0237 C.3     1  UNL1        0.2059
      4 C          -6.7692    2.0910    1.2569 C.2     1  UNL1        0.3490
      5 O          -7.9749    2.4504    1.3949 O.2     1  UNL1       -0.2465
      6 O          -5.8219    3.0999    1.3359 O.3     1  UNL1       -0.4778
      7 C          -7.1007    0.1453   -0.1644 C.3     1  UNL1        0.0018
      8 C          -6.2616   -0.1634   -1.3565 C.3     1  UNL1       -0.0201
      9 C          -4.9068   -0.6649   -1.0322 C.ar    1  UNL1       -0.0053
     10 C          -4.2573   -1.5419   -1.8551 C.ar    1  UNL1       -0.0517
     11 C          -3.0049   -2.0221   -1.5837 C.ar    1  UNL1       -0.0195
     12 C          -2.3425   -1.6061   -0.4117 C.ar    1  UNL1        0.1240
     13 O          -1.1583   -2.0608   -0.1562 O.3     1  UNL1       -0.4917
     14 C           0.0186   -2.5115    0.0993 C.3     1  UNL1        0.0927
     15 C           1.1190   -1.4140    0.2079 C.3     1  UNL1        0.0157
     16 C           1.1260   -0.7435   -1.1385 C.3     1  UNL1        0.0927
     17 O           2.0104    0.2901   -1.3195 O.3     1  UNL1       -0.4904
     18 C           3.3662    0.2490   -1.3134 C.ar    1  UNL1        0.1387
     19 C           4.1330   -0.8801   -1.1496 C.ar    1  UNL1       -0.0182
     20 C           5.5300   -0.7789   -1.1666 C.ar    1  UNL1       -0.0550
     21 C           6.1724    0.4343   -1.3463 C.ar    1  UNL1       -0.0455
     22 C           7.6513    0.4705   -1.3521 C.3     1  UNL1       -0.0253
     23 C           8.1439    0.6918    0.0615 C.3     1  UNL1       -0.0427
     24 C           9.6619    0.7326    0.0843 C.3     1  UNL1       -0.0624
     25 C           7.5644    1.9817    0.6265 C.3     1  UNL1       -0.0624
     26 C           5.4195    1.5745   -1.5132 C.ar    1  UNL1       -0.0366
     27 C           4.0571    1.4627   -1.4940 C.ar    1  UNL1        0.0828
     28 CL          3.0625    2.8980   -1.7029 Cl      1  UNL1       -0.0797
     29 C          -3.0497   -0.7025    0.4057 C.ar    1  UNL1        0.0221
     30 C          -4.2981   -0.2415    0.1081 C.ar    1  UNL1        0.1287
     31 O          -4.9674    0.6361    0.9173 O.3     1  UNL1       -0.4741
     32 H          -8.7756   -0.3713    1.7470 H       1  UNL1        0.0231
     33 H          -8.4764    0.8966    3.0557 H       1  UNL1        0.0231
     34 H          -8.3476   -0.8478    3.4010 H       1  UNL1        0.0231
     35 H          -6.0869    0.2524    3.1058 H       1  UNL1        0.0307
     36 H          -6.4525   -1.1999    2.0762 H       1  UNL1        0.0307
     37 H          -6.0596    4.0462    1.6662 H       1  UNL1        0.2952
     38 H          -7.7037   -0.7658    0.0571 H       1  UNL1        0.0312
     39 H          -7.8729    0.8972   -0.5079 H       1  UNL1        0.0312
     40 H          -6.7774   -0.8465   -2.0797 H       1  UNL1        0.0316
     41 H          -6.1019    0.8107   -1.9045 H       1  UNL1        0.0316
     42 H          -4.7642   -1.8637   -2.7572 H       1  UNL1        0.0623
     43 H          -2.5060   -2.7184   -2.2501 H       1  UNL1        0.0654
     44 H           0.1691   -3.1381    1.0331 H       1  UNL1        0.0697
     45 H           0.3738   -3.2425   -0.7084 H       1  UNL1        0.0697
     46 H           0.8144   -0.6852    0.9912 H       1  UNL1        0.0331
     47 H           2.0203   -1.9526    0.4239 H       1  UNL1        0.0331
     48 H           1.3192   -1.6034   -1.8723 H       1  UNL1        0.0697
     49 H           0.0690   -0.4495   -1.4263 H       1  UNL1        0.0697
     50 H           3.6763   -1.8598   -1.0309 H       1  UNL1        0.0655
     51 H           6.0727   -1.7049   -1.0302 H       1  UNL1        0.0621
     52 H           7.9665    1.3741   -1.9472 H       1  UNL1        0.0316
     53 H           8.1192   -0.3867   -1.8367 H       1  UNL1        0.0316
     54 H           7.8383   -0.1179    0.7429 H       1  UNL1        0.0299
     55 H           9.9757    0.4841    1.1406 H       1  UNL1        0.0232
     56 H          10.0656    1.7081   -0.2326 H       1  UNL1        0.0232
     57 H           9.9950   -0.1092   -0.5700 H       1  UNL1        0.0232
     58 H           8.0271    2.2245    1.6039 H       1  UNL1        0.0232
     59 H           6.4762    1.8685    0.7841 H       1  UNL1        0.0232
     60 H           7.7128    2.7800   -0.1228 H       1  UNL1        0.0232
     61 H           5.8896    2.5595   -1.6601 H       1  UNL1        0.0636
     62 H          -2.5240   -0.3970    1.2981 H       1  UNL1        0.0691
@<TRIPOS>BOND
     1     1     2    1
     2     3     2    1
     3     3     4    1
     4     4     5    2
     5     4     6    1
     6     3     7    1
     7     7     8    1
     8     8     9    1
     9     9    10   ar
    10    10    11   ar
    11    11    12   ar
    12    12    13    1
    13    13    14    1
    14    14    15    1
    15    15    16    1
    16    16    17    1
    17    17    18    1
    18    18    19   ar
    19    19    20   ar
    20    20    21   ar
    21    21    22    1
    22    22    23    1
    23    23    24    1
    24    23    25    1
    25    21    26   ar
    26    26    27   ar
    27    27    28    1
    28    12    29   ar
    29    29    30   ar
    30    30    31    1
    31    31     3    1
    32    30     9   ar
    33    27    18   ar
    34     1    32    1
    35     1    33    1
    36     1    34    1
    37     2    35    1
    38     2    36    1
    39     6    37    1
    40     7    38    1
    41     7    39    1
    42     8    40    1
    43     8    41    1
    44    10    42    1
    45    11    43    1
    46    14    44    1
    47    14    45    1
    48    15    46    1
    49    15    47    1
    50    16    48    1
    51    16    49    1
    52    19    50    1
    53    20    51    1
    54    22    52    1
    55    22    53    1
    56    23    54    1
    57    24    55    1
    58    24    56    1
    59    24    57    1
    60    25    58    1
    61    25    59    1
    62    25    60    1
    63    26    61    1
    64    29    62    1
