@<TRIPOS>MOLECULE
*****
 62 64 0 0 0
SMALL
GASTEIGER

@<TRIPOS>ATOM
      1 C          -3.5030   -0.5637    0.3480 C.3     1  UNL1        0.0887
      2 C          -4.1126    0.3802   -0.6524 C.3     1  UNL1       -0.0037
      3 C          -5.3000    1.0464   -0.0631 C.ar    1  UNL1       -0.0454
      4 C          -6.6099    0.6302   -0.1193 C.ar    1  UNL1       -0.0585
      5 C          -7.6450    1.3214    0.4670 C.ar    1  UNL1       -0.0615
      6 C          -7.4013    2.4976    1.1568 C.ar    1  UNL1       -0.0617
      7 C          -6.0951    2.9189    1.2166 C.ar    1  UNL1       -0.0615
      8 C          -5.0572    2.2192    0.6247 C.ar    1  UNL1       -0.0585
      9 N          -4.4388   -1.5705    0.7313 N.3     1  UNL1       -0.3084
     10 C          -4.9009   -2.4347   -0.3035 C.3     1  UNL1       -0.0151
     11 C          -2.2250   -1.0951   -0.1237 C.2     1  UNL1        0.2335
     12 O          -2.5891   -2.2884    0.0332 O.2     1  UNL1       -0.2739
     13 N          -0.9670   -0.7029   -0.6032 N.am    1  UNL1       -0.2885
     14 C          -0.3172    0.5695   -0.8644 C.3     1  UNL1        0.0156
     15 C           0.3844    0.3356   -2.1868 C.3     1  UNL1       -0.0350
     16 C           0.5757   -1.1566   -2.2909 C.3     1  UNL1       -0.0242
     17 C           0.0529   -1.6512   -0.9782 C.3     1  UNL1        0.1013
     18 C           1.0776   -1.7049    0.1059 C.2     1  UNL1        0.2037
     19 O           0.3416   -2.0551    1.2449 O.2     1  UNL1       -0.4944
     20 N           2.3024   -1.5828    0.4796 N.2     1  UNL1       -0.2529
     21 C           3.3252   -1.2270   -0.4654 C.3     1  UNL1        0.0459
     22 C           4.6720   -1.0278    0.2474 C.3     1  UNL1       -0.0213
     23 C           5.7532   -0.6510   -0.7500 C.3     1  UNL1       -0.0471
     24 C           6.7964    0.2445   -0.0933 C.3     1  UNL1       -0.0374
     25 C           6.1951    1.5927    0.1709 C.3     1  UNL1        0.0049
     26 N           6.6716    2.1971    1.4001 N.3     1  UNL1       -0.3272
     27 C           4.6934    1.4032    0.3485 C.3     1  UNL1       -0.0374
     28 C           4.5036    0.1518    1.1807 C.3     1  UNL1       -0.0471
     29 H          -3.2674    0.0118    1.2936 H       1  UNL1        0.0560
     30 H          -4.4823   -0.1476   -1.5557 H       1  UNL1        0.0333
     31 H          -3.4132    1.1604   -0.9985 H       1  UNL1        0.0333
     32 H          -6.7934   -0.2780   -0.6563 H       1  UNL1        0.0620
     33 H          -8.6421    0.9262    0.3757 H       1  UNL1        0.0618
     34 H          -8.2416    3.0139    1.6050 H       1  UNL1        0.0618
     35 H          -5.9798    3.8580    1.7791 H       1  UNL1        0.0618
     36 H          -4.0509    2.6492    0.7360 H       1  UNL1        0.0620
     37 H          -4.2292   -2.0501    1.6282 H       1  UNL1        0.1223
     38 H          -6.0199   -2.4967   -0.2310 H       1  UNL1        0.0388
     39 H          -4.5738   -3.4962   -0.0958 H       1  UNL1        0.0388
     40 H          -4.6452   -2.1556   -1.3231 H       1  UNL1        0.0388
     41 H           0.4344    0.8516   -0.1229 H       1  UNL1        0.0465
     42 H          -1.0397    1.3691   -1.0335 H       1  UNL1        0.0465
     43 H           1.3603    0.8384   -2.2542 H       1  UNL1        0.0281
     44 H          -0.2264    0.6675   -3.0650 H       1  UNL1        0.0281
     45 H           1.5898   -1.4320   -2.5473 H       1  UNL1        0.0288
     46 H          -0.0734   -1.5807   -3.1045 H       1  UNL1        0.0288
     47 H          -0.3981   -2.6523   -1.1123 H       1  UNL1        0.0598
     48 H           0.7406   -2.2486    2.1441 H       1  UNL1        0.2935
     49 H           3.4781   -2.0254   -1.2411 H       1  UNL1        0.0512
     50 H           3.0308   -0.3149   -1.0038 H       1  UNL1        0.0512
     51 H           4.9659   -1.9457    0.7808 H       1  UNL1        0.0318
     52 H           6.2406   -1.5698   -1.1665 H       1  UNL1        0.0269
     53 H           5.3536   -0.1218   -1.6365 H       1  UNL1        0.0269
     54 H           7.1919   -0.2506    0.8167 H       1  UNL1        0.0280
     55 H           7.6442    0.3316   -0.7962 H       1  UNL1        0.0280
     56 H           6.4298    2.2305   -0.7273 H       1  UNL1        0.0458
     57 H           6.6031    3.2424    1.3167 H       1  UNL1        0.1185
     58 H           7.6911    1.9917    1.5072 H       1  UNL1        0.1185
     59 H           4.2353    2.2915    0.8301 H       1  UNL1        0.0280
     60 H           4.2502    1.2801   -0.6520 H       1  UNL1        0.0280
     61 H           5.2123    0.1137    2.0310 H       1  UNL1        0.0269
     62 H           3.4412    0.1421    1.5385 H       1  UNL1        0.0269
@<TRIPOS>BOND
     1     1     2    1
     2     2     3    1
     3     3     4   ar
     4     4     5   ar
     5     5     6   ar
     6     6     7   ar
     7     7     8   ar
     8     1     9    1
     9     9    10    1
    10     1    11    1
    11    11    12    2
    12    11    13   am
    13    13    14    1
    14    14    15    1
    15    15    16    1
    16    16    17    1
    17    17    18    1
    18    18    19    1
    19    18    20    2
    20    20    21    1
    21    21    22    1
    22    22    23    1
    23    23    24    1
    24    24    25    1
    25    25    26    1
    26    25    27    1
    27    27    28    1
    28     8     3   ar
    29    17    13    1
    30    28    22    1
    31     1    29    1
    32     2    30    1
    33     2    31    1
    34     4    32    1
    35     5    33    1
    36     6    34    1
    37     7    35    1
    38     8    36    1
    39     9    37    1
    40    10    38    1
    41    10    39    1
    42    10    40    1
    43    14    41    1
    44    14    42    1
    45    15    43    1
    46    15    44    1
    47    16    45    1
    48    16    46    1
    49    17    47    1
    50    19    48    1
    51    21    49    1
    52    21    50    1
    53    22    51    1
    54    23    52    1
    55    23    53    1
    56    24    54    1
    57    24    55    1
    58    25    56    1
    59    26    57    1
    60    26    58    1
    61    27    59    1
    62    27    60    1
    63    28    61    1
    64    28    62    1
