
     RDKit          3D

 67 71  0  0  0  0  0  0  0  0999 V2000
   -1.3443   -2.3875    2.2884 O   0  0  0  0  0  0  0  0  0  0  0  0
   -0.2210   -2.2322    1.7556 C   0  0  0  0  0  0  0  0  0  0  0  0
    0.7101   -3.2440    1.8755 O   0  0  0  0  0  0  0  0  0  0  0  0
    0.1167   -1.0170    1.0202 C   0  0  2  0  0  0  0  0  0  0  0  0
    1.3214   -0.3288    1.6741 C   0  0  0  0  0  0  0  0  0  0  0  0
    1.4955    0.8864    0.9725 N   0  0  0  0  0  0  0  0  0  0  0  0
    2.4910    1.2231    0.0799 C   0  0  0  0  0  0  0  0  0  0  0  0
    2.4600    2.4390   -0.4519 O   0  0  0  0  0  0  0  0  0  0  0  0
    3.5565    0.4629   -0.3677 N   0  0  0  0  0  0  0  0  0  0  0  0
    4.4515    1.0948   -1.3491 C   0  0  0  0  0  0  0  0  0  0  0  0
    4.1736    0.9604   -2.6805 C   0  0  0  0  0  0  0  0  0  0  0  0
    5.0288    1.5595   -3.5948 C   0  0  0  0  0  0  0  0  0  0  0  0
    6.1259    2.2683   -3.1503 C   0  0  0  0  0  0  0  0  0  0  0  0
    6.4114    2.4072   -1.8061 C   0  0  0  0  0  0  0  0  0  0  0  0
    5.5339    1.7937   -0.9016 C   0  0  0  0  0  0  0  0  0  0  0  0
    3.8824   -0.8483    0.0237 C   0  0  0  0  0  0  0  0  0  0  0  0
    4.7779   -1.1503    1.0513 C   0  0  0  0  0  0  0  0  0  0  0  0
    5.0864   -2.4462    1.3823 C   0  0  0  0  0  0  0  0  0  0  0  0
    4.5164   -3.4899    0.7045 C   0  0  0  0  0  0  0  0  0  0  0  0
    3.6243   -3.2294   -0.3200 C   0  0  0  0  0  0  0  0  0  0  0  0
    3.3199   -1.9275   -0.6461 C   0  0  0  0  0  0  0  0  0  0  0  0
    0.4492    1.8882    1.2387 C   0  0  0  0  0  0  0  0  0  0  0  0
   -0.8407    1.1752    1.6302 C   0  0  0  0  0  0  0  0  0  0  0  0
   -1.0284   -0.0727    0.9859 N   0  0  0  0  0  0  0  0  0  0  0  0
   -2.1711   -0.5743    0.3109 C   0  0  0  0  0  0  0  0  0  0  0  0
   -1.9877   -1.7603   -0.1774 O   0  0  0  0  0  0  0  0  0  0  0  0
   -3.4153   -0.0018    0.1055 N   0  0  0  0  0  0  0  0  0  0  0  0
   -4.4495   -0.6722   -0.6380 C   0  0  0  0  0  0  0  0  0  0  0  0
   -5.7617   -0.1769   -0.6107 C   0  0  0  0  0  0  0  0  0  0  0  0
   -6.8096   -0.7081   -1.2899 C   0  0  0  0  0  0  0  0  0  0  0  0
   -6.6066   -1.8154   -2.0739 C   0  0  0  0  0  0  0  0  0  0  0  0
   -5.3483   -2.3456   -2.1424 C   0  0  0  0  0  0  0  0  0  0  0  0
   -4.2702   -1.7767   -1.4270 C   0  0  0  0  0  0  0  0  0  0  0  0
   -3.8250    1.3002    0.5742 C   0  0  0  0  0  0  0  0  0  0  0  0
   -4.3422    1.3824    1.8400 C   0  0  0  0  0  0  0  0  0  0  0  0
   -4.7835    2.6312    2.2788 C   0  0  0  0  0  0  0  0  0  0  0  0
   -4.6953    3.7338    1.4559 C   0  0  0  0  0  0  0  0  0  0  0  0
   -4.1751    3.6413    0.1878 C   0  0  0  0  0  0  0  0  0  0  0  0
   -3.7363    2.4112   -0.2547 C   0  0  0  0  0  0  0  0  0  0  0  0
    0.4148   -4.2039    2.0043 H   0  0  0  0  0  0  0  0  0  0  0  0
    0.3937   -1.1685   -0.0415 H   0  0  0  0  0  0  0  0  0  0  0  0
    2.1401   -1.0242    1.7388 H   0  0  0  0  0  0  0  0  0  0  0  0
    1.0041   -0.0380    2.7377 H   0  0  0  0  0  0  0  0  0  0  0  0
    3.3175    0.4088   -3.0613 H   0  0  0  0  0  0  0  0  0  0  0  0
    4.8299    1.4668   -4.6586 H   0  0  0  0  0  0  0  0  0  0  0  0
    6.7738    2.7243   -3.8906 H   0  0  0  0  0  0  0  0  0  0  0  0
    7.2687    2.9611   -1.4556 H   0  0  0  0  0  0  0  0  0  0  0  0
    5.7376    1.8898    0.1431 H   0  0  0  0  0  0  0  0  0  0  0  0
    5.2064   -0.2996    1.5627 H   0  0  0  0  0  0  0  0  0  0  0  0
    5.7876   -2.6330    2.1883 H   0  0  0  0  0  0  0  0  0  0  0  0
    4.7835   -4.5048    0.9927 H   0  0  0  0  0  0  0  0  0  0  0  0
    3.1779   -4.0404   -0.8513 H   0  0  0  0  0  0  0  0  0  0  0  0
    2.6207   -1.6929   -1.4480 H   0  0  0  0  0  0  0  0  0  0  0  0
    0.7900    2.4635    2.1134 H   0  0  0  0  0  0  0  0  0  0  0  0
    0.2989    2.5803    0.3993 H   0  0  0  0  0  0  0  0  0  0  0  0
   -0.7607    0.9694    2.7358 H   0  0  0  0  0  0  0  0  0  0  0  0
   -1.6280    1.8920    1.4042 H   0  0  0  0  0  0  0  0  0  0  0  0
   -5.9674    0.7044    0.0045 H   0  0  0  0  0  0  0  0  0  0  0  0
   -7.8074   -0.2674   -1.2209 H   0  0  0  0  0  0  0  0  0  0  0  0
   -7.4624   -2.2083   -2.5969 H   0  0  0  0  0  0  0  0  0  0  0  0
   -5.1911   -3.2163   -2.7590 H   0  0  0  0  0  0  0  0  0  0  0  0
   -3.3345   -2.2622   -1.5702 H   0  0  0  0  0  0  0  0  0  0  0  0
   -4.4285    0.5407    2.5177 H   0  0  0  0  0  0  0  0  0  0  0  0
   -5.2045    2.7406    3.2858 H   0  0  0  0  0  0  0  0  0  0  0  0
   -5.0601    4.6940    1.8585 H   0  0  0  0  0  0  0  0  0  0  0  0
   -4.1062    4.4964   -0.4515 H   0  0  0  0  0  0  0  0  0  0  0  0
   -3.3155    2.2552   -1.2350 H   0  0  0  0  0  0  0  0  0  0  0  0
  1  2  2  0
  2  3  1  0
  2  4  1  0
  4  5  1  0
  5  6  1  0
  6  7  1  0
  7  8  2  0
  7  9  1  0
  9 10  1  0
 10 11  2  0
 11 12  1  0
 12 13  2  0
 13 14  1  0
 14 15  2  0
  9 16  1  0
 16 17  2  0
 17 18  1  0
 18 19  2  0
 19 20  1  0
 20 21  2  0
  6 22  1  0
 22 23  1  0
 23 24  1  0
 24 25  1  0
 25 26  2  0
 25 27  1  0
 27 28  1  0
 28 29  2  0
 29 30  1  0
 30 31  2  0
 31 32  1  0
 32 33  2  0
 27 34  1  0
 34 35  2  0
 35 36  1  0
 36 37  2  0
 37 38  1  0
 38 39  2  0
 24  4  1  0
 33 28  1  0
 39 34  1  0
 15 10  1  0
 21 16  1  0
  3 40  1  0
  4 41  1  6
  5 42  1  0
  5 43  1  0
 11 44  1  0
 12 45  1  0
 13 46  1  0
 14 47  1  0
 15 48  1  0
 17 49  1  0
 18 50  1  0
 19 51  1  0
 20 52  1  0
 21 53  1  0
 22 54  1  0
 22 55  1  0
 23 56  1  0
 23 57  1  0
 29 58  1  0
 30 59  1  0
 31 60  1  0
 32 61  1  0
 33 62  1  0
 35 63  1  0
 36 64  1  0
 37 65  1  0
 38 66  1  0
 39 67  1  0
M  END
$$$$
