@<TRIPOS>MOLECULE
*****
 67 71 0 0 0
SMALL
GASTEIGER

@<TRIPOS>ATOM
      1 O          -1.3443   -2.3875    2.2884 O.2     1  UNL1       -0.2488
      2 C          -0.2210   -2.2322    1.7556 C.2     1  UNL1        0.3271
      3 O           0.7101   -3.2440    1.8755 O.3     1  UNL1       -0.4793
      4 C           0.1167   -1.0170    1.0202 C.3     1  UNL1        0.1399
      5 C           1.3214   -0.3288    1.6741 C.3     1  UNL1        0.0453
      6 N           1.4955    0.8864    0.9725 N.am    1  UNL1       -0.2811
      7 C           2.4910    1.2231    0.0799 C.2     1  UNL1        0.3136
      8 O           2.4600    2.4390   -0.4519 O.2     1  UNL1       -0.2517
      9 N           3.5565    0.4629   -0.3677 N.am    1  UNL1       -0.2243
     10 C           4.4515    1.0948   -1.3491 C.ar    1  UNL1        0.0428
     11 C           4.1736    0.9604   -2.6805 C.ar    1  UNL1       -0.0399
     12 C           5.0288    1.5595   -3.5948 C.ar    1  UNL1       -0.0600
     13 C           6.1259    2.2683   -3.1503 C.ar    1  UNL1       -0.0616
     14 C           6.4114    2.4072   -1.8061 C.ar    1  UNL1       -0.0600
     15 C           5.5339    1.7937   -0.9016 C.ar    1  UNL1       -0.0399
     16 C           3.8824   -0.8483    0.0237 C.ar    1  UNL1        0.0428
     17 C           4.7779   -1.1503    1.0513 C.ar    1  UNL1       -0.0399
     18 C           5.0864   -2.4462    1.3823 C.ar    1  UNL1       -0.0600
     19 C           4.5164   -3.4899    0.7045 C.ar    1  UNL1       -0.0616
     20 C           3.6243   -3.2294   -0.3200 C.ar    1  UNL1       -0.0600
     21 C           3.3199   -1.9275   -0.6461 C.ar    1  UNL1       -0.0399
     22 C           0.4492    1.8882    1.2387 C.3     1  UNL1        0.0321
     23 C          -0.8407    1.1752    1.6302 C.3     1  UNL1        0.0329
     24 N          -1.0284   -0.0727    0.9859 N.am    1  UNL1       -0.2684
     25 C          -2.1711   -0.5743    0.3109 C.2     1  UNL1        0.3143
     26 O          -1.9877   -1.7603   -0.1774 O.2     1  UNL1       -0.2517
     27 N          -3.4153   -0.0018    0.1055 N.am    1  UNL1       -0.2243
     28 C          -4.4495   -0.6722   -0.6380 C.ar    1  UNL1        0.0428
     29 C          -5.7617   -0.1769   -0.6107 C.ar    1  UNL1       -0.0399
     30 C          -6.8096   -0.7081   -1.2899 C.ar    1  UNL1       -0.0600
     31 C          -6.6066   -1.8154   -2.0739 C.ar    1  UNL1       -0.0616
     32 C          -5.3483   -2.3456   -2.1424 C.ar    1  UNL1       -0.0600
     33 C          -4.2702   -1.7767   -1.4270 C.ar    1  UNL1       -0.0399
     34 C          -3.8250    1.3002    0.5742 C.ar    1  UNL1        0.0428
     35 C          -4.3422    1.3824    1.8400 C.ar    1  UNL1       -0.0399
     36 C          -4.7835    2.6312    2.2788 C.ar    1  UNL1       -0.0600
     37 C          -4.6953    3.7338    1.4559 C.ar    1  UNL1       -0.0616
     38 C          -4.1751    3.6413    0.1878 C.ar    1  UNL1       -0.0600
     39 C          -3.7363    2.4112   -0.2547 C.ar    1  UNL1       -0.0399
     40 H           0.4148   -4.2039    2.0043 H       1  UNL1        0.2951
     41 H           0.3937   -1.1685   -0.0415 H       1  UNL1        0.0633
     42 H           2.1401   -1.0242    1.7388 H       1  UNL1        0.0489
     43 H           1.0041   -0.0380    2.7377 H       1  UNL1        0.0489
     44 H           3.3175    0.4088   -3.0613 H       1  UNL1        0.0636
     45 H           4.8299    1.4668   -4.6586 H       1  UNL1        0.0618
     46 H           6.7738    2.7243   -3.8906 H       1  UNL1        0.0618
     47 H           7.2687    2.9611   -1.4556 H       1  UNL1        0.0618
     48 H           5.7376    1.8898    0.1431 H       1  UNL1        0.0636
     49 H           5.2064   -0.2996    1.5627 H       1  UNL1        0.0636
     50 H           5.7876   -2.6330    2.1883 H       1  UNL1        0.0618
     51 H           4.7835   -4.5048    0.9927 H       1  UNL1        0.0618
     52 H           3.1779   -4.0404   -0.8513 H       1  UNL1        0.0618
     53 H           2.6207   -1.6929   -1.4480 H       1  UNL1        0.0636
     54 H           0.7900    2.4635    2.1134 H       1  UNL1        0.0480
     55 H           0.2989    2.5803    0.3993 H       1  UNL1        0.0480
     56 H          -0.7607    0.9694    2.7358 H       1  UNL1        0.0481
     57 H          -1.6280    1.8920    1.4042 H       1  UNL1        0.0481
     58 H          -5.9674    0.7044    0.0045 H       1  UNL1        0.0636
     59 H          -7.8074   -0.2674   -1.2209 H       1  UNL1        0.0618
     60 H          -7.4624   -2.2083   -2.5969 H       1  UNL1        0.0618
     61 H          -5.1911   -3.2163   -2.7590 H       1  UNL1        0.0618
     62 H          -3.3345   -2.2622   -1.5702 H       1  UNL1        0.0636
     63 H          -4.4285    0.5407    2.5177 H       1  UNL1        0.0636
     64 H          -5.2045    2.7406    3.2858 H       1  UNL1        0.0618
     65 H          -5.0601    4.6940    1.8585 H       1  UNL1        0.0618
     66 H          -4.1062    4.4964   -0.4515 H       1  UNL1        0.0618
     67 H          -3.3155    2.2552   -1.2350 H       1  UNL1        0.0636
@<TRIPOS>BOND
     1     1     2    2
     2     2     3    1
     3     2     4    1
     4     4     5    1
     5     5     6    1
     6     6     7   am
     7     7     8    2
     8     7     9   am
     9     9    10    1
    10    10    11   ar
    11    11    12   ar
    12    12    13   ar
    13    13    14   ar
    14    14    15   ar
    15     9    16    1
    16    16    17   ar
    17    17    18   ar
    18    18    19   ar
    19    19    20   ar
    20    20    21   ar
    21     6    22    1
    22    22    23    1
    23    23    24    1
    24    24    25   am
    25    25    26    2
    26    25    27   am
    27    27    28    1
    28    28    29   ar
    29    29    30   ar
    30    30    31   ar
    31    31    32   ar
    32    32    33   ar
    33    27    34    1
    34    34    35   ar
    35    35    36   ar
    36    36    37   ar
    37    37    38   ar
    38    38    39   ar
    39    24     4    1
    40    33    28   ar
    41    39    34   ar
    42    15    10   ar
    43    21    16   ar
    44     3    40    1
    45     4    41    1
    46     5    42    1
    47     5    43    1
    48    11    44    1
    49    12    45    1
    50    13    46    1
    51    14    47    1
    52    15    48    1
    53    17    49    1
    54    18    50    1
    55    19    51    1
    56    20    52    1
    57    21    53    1
    58    22    54    1
    59    22    55    1
    60    23    56    1
    61    23    57    1
    62    29    58    1
    63    30    59    1
    64    31    60    1
    65    32    61    1
    66    33    62    1
    67    35    63    1
    68    36    64    1
    69    37    65    1
    70    38    66    1
    71    39    67    1
