
     RDKit          3D

 45 47  0  0  0  0  0  0  0  0999 V2000
    4.7225    3.4592   -0.1492 C   0  0  0  0  0  0  0  0  0  0  0  0
    3.5644    2.4683   -0.3596 C   0  0  0  0  0  0  0  0  0  0  0  0
    4.1977    1.2308   -0.9254 C   0  0  0  0  0  0  0  0  0  0  0  0
    3.3668    0.1839   -1.2050 O   0  0  0  0  0  0  0  0  0  0  0  0
    2.6188   -0.5679   -0.3659 C   0  0  0  0  0  0  0  0  0  0  0  0
    2.5904   -0.4300    0.9960 C   0  0  0  0  0  0  0  0  0  0  0  0
    1.8022   -1.2256    1.7916 N   0  0  0  0  0  0  0  0  0  0  0  0
    1.0324   -2.1694    1.2464 C   0  0  0  0  0  0  0  0  0  0  0  0
    0.1874   -3.0209    2.1101 C   0  0  0  0  0  0  0  0  0  0  0  0
   -1.1229   -2.4488    2.2980 N   0  0  0  0  0  0  0  0  0  0  0  0
   -2.0159   -2.1754    1.2034 C   0  0  0  0  0  0  0  0  0  0  0  0
   -2.3121   -0.9235    0.9283 C   0  0  0  0  0  0  0  0  0  0  0  0
   -1.7562    0.1897    1.7070 C   0  0  0  0  0  0  0  0  0  0  0  0
   -0.9758   -0.0519    2.6633 O   0  0  0  0  0  0  0  0  0  0  0  0
   -2.0818    1.5337    1.4021 N   0  0  0  0  0  0  0  0  0  0  0  0
   -2.9494    1.8142    0.3398 C   0  0  0  0  0  0  0  0  0  0  0  0
   -3.2604    2.9932    0.0407 O   0  0  0  0  0  0  0  0  0  0  0  0
   -3.5221    0.7091   -0.4592 C   0  0  0  0  0  0  0  0  0  0  0  0
   -4.3679    1.0085   -1.4931 C   0  0  0  0  0  0  0  0  0  0  0  0
   -4.9391    0.0370   -2.2801 C   0  0  0  0  0  0  0  0  0  0  0  0
   -4.6542   -1.2840   -2.0244 C   0  0  0  0  0  0  0  0  0  0  0  0
   -5.4805   -2.8318   -3.1738 I   0  0  0  0  0  0  0  0  0  0  0  0
   -3.7908   -1.5951   -0.9696 C   0  0  0  0  0  0  0  0  0  0  0  0
   -3.2125   -0.6199   -0.1733 C   0  0  0  0  0  0  0  0  0  0  0  0
    1.0148   -2.3604   -0.1086 C   0  0  0  0  0  0  0  0  0  0  0  0
    1.7975   -1.5714   -0.9133 C   0  0  0  0  0  0  0  0  0  0  0  0
    1.8287   -1.7106   -2.2971 O   0  0  0  0  0  0  0  0  0  0  0  0
    5.5108    2.8927    0.3738 H   0  0  0  0  0  0  0  0  0  0  0  0
    5.1037    3.6755   -1.1666 H   0  0  0  0  0  0  0  0  0  0  0  0
    4.3434    4.3290    0.3872 H   0  0  0  0  0  0  0  0  0  0  0  0
    2.8103    2.9114   -1.0511 H   0  0  0  0  0  0  0  0  0  0  0  0
    3.0767    2.3816    0.6068 H   0  0  0  0  0  0  0  0  0  0  0  0
    5.0144    0.9562   -0.1766 H   0  0  0  0  0  0  0  0  0  0  0  0
    4.7823    1.4850   -1.8633 H   0  0  0  0  0  0  0  0  0  0  0  0
    3.2261    0.3145    1.4534 H   0  0  0  0  0  0  0  0  0  0  0  0
    0.6747   -3.1055    3.1269 H   0  0  0  0  0  0  0  0  0  0  0  0
    0.1357   -4.0641    1.7184 H   0  0  0  0  0  0  0  0  0  0  0  0
   -1.4564   -2.2245    3.2499 H   0  0  0  0  0  0  0  0  0  0  0  0
   -2.4040   -3.0014    0.6560 H   0  0  0  0  0  0  0  0  0  0  0  0
   -1.6760    2.3011    1.9671 H   0  0  0  0  0  0  0  0  0  0  0  0
   -4.5942    2.0440   -1.6972 H   0  0  0  0  0  0  0  0  0  0  0  0
   -5.6143    0.3003   -3.1035 H   0  0  0  0  0  0  0  0  0  0  0  0
   -3.5914   -2.6341   -0.7992 H   0  0  0  0  0  0  0  0  0  0  0  0
    0.3951   -3.1244   -0.5765 H   0  0  0  0  0  0  0  0  0  0  0  0
    1.9812   -0.9462   -2.9347 H   0  0  0  0  0  0  0  0  0  0  0  0
  1  2  1  0
  2  3  1  0
  3  4  1  0
  4  5  1  0
  5  6  2  0
  6  7  1  0
  7  8  2  0
  8  9  1  0
  9 10  1  0
 10 11  1  0
 11 12  2  3
 12 13  1  0
 13 14  2  0
 13 15  1  0
 15 16  1  0
 16 17  2  0
 16 18  1  0
 18 19  2  0
 19 20  1  0
 20 21  2  0
 21 22  1  0
 21 23  1  0
 23 24  2  0
  8 25  1  0
 25 26  2  0
 26 27  1  0
 26  5  1  0
 24 12  1  0
 24 18  1  0
  1 28  1  0
  1 29  1  0
  1 30  1  0
  2 31  1  0
  2 32  1  0
  3 33  1  0
  3 34  1  0
  6 35  1  0
  9 36  1  0
  9 37  1  0
 10 38  1  0
 11 39  1  0
 15 40  1  0
 19 41  1  0
 20 42  1  0
 23 43  1  0
 25 44  1  0
 27 45  1  0
M  END
$$$$
