@<TRIPOS>MOLECULE
*****
 45 47 0 0 0
SMALL
GASTEIGER

@<TRIPOS>ATOM
      1 C           4.7225    3.4592   -0.1492 C.3     1  UNL1       -0.0622
      2 C           3.5644    2.4683   -0.3596 C.3     1  UNL1       -0.0215
      3 C           4.1977    1.2308   -0.9254 C.3     1  UNL1        0.0896
      4 O           3.3668    0.1839   -1.2050 O.3     1  UNL1       -0.4868
      5 C           2.6188   -0.5679   -0.3659 C.ar    1  UNL1        0.1797
      6 C           2.5904   -0.4300    0.9960 C.ar    1  UNL1        0.0732
      7 N           1.8022   -1.2256    1.7916 N.ar    1  UNL1       -0.2544
      8 C           1.0324   -2.1694    1.2464 C.ar    1  UNL1        0.0619
      9 C           0.1874   -3.0209    2.1101 C.3     1  UNL1        0.0511
     10 N          -1.1229   -2.4488    2.2980 N.pl3   1  UNL1       -0.3434
     11 C          -2.0159   -2.1754    1.2034 C.2     1  UNL1        0.0026
     12 C          -2.3121   -0.9235    0.9283 C.2     1  UNL1        0.0584
     13 C          -1.7562    0.1897    1.7070 C.2     1  UNL1        0.2523
     14 O          -0.9758   -0.0519    2.6633 O.2     1  UNL1       -0.2697
     15 N          -2.0818    1.5337    1.4021 N.am    1  UNL1       -0.2483
     16 C          -2.9494    1.8142    0.3398 C.2     1  UNL1        0.2511
     17 O          -3.2604    2.9932    0.0407 O.2     1  UNL1       -0.2698
     18 C          -3.5221    0.7091   -0.4592 C.ar    1  UNL1        0.0451
     19 C          -4.3679    1.0085   -1.4931 C.ar    1  UNL1       -0.0481
     20 C          -4.9391    0.0370   -2.2801 C.ar    1  UNL1       -0.0479
     21 C          -4.6542   -1.2840   -2.0244 C.ar    1  UNL1        0.0140
     22 I          -5.4805   -2.8318   -3.1738 I       1  UNL1       -0.0438
     23 C          -3.7908   -1.5951   -0.9696 C.ar    1  UNL1       -0.0400
     24 C          -3.2125   -0.6199   -0.1733 C.ar    1  UNL1        0.0014
     25 C           1.0148   -2.3604   -0.1086 C.ar    1  UNL1        0.0063
     26 C           1.7975   -1.5714   -0.9133 C.ar    1  UNL1        0.1618
     27 O           1.8287   -1.7106   -2.2971 O.3     1  UNL1       -0.5032
     28 H           5.5108    2.8927    0.3738 H       1  UNL1        0.0231
     29 H           5.1037    3.6755   -1.1666 H       1  UNL1        0.0231
     30 H           4.3434    4.3290    0.3872 H       1  UNL1        0.0231
     31 H           2.8103    2.9114   -1.0511 H       1  UNL1        0.0295
     32 H           3.0767    2.3816    0.6068 H       1  UNL1        0.0295
     33 H           5.0144    0.9562   -0.1766 H       1  UNL1        0.0696
     34 H           4.7823    1.4850   -1.8633 H       1  UNL1        0.0696
     35 H           3.2261    0.3145    1.4534 H       1  UNL1        0.0868
     36 H           0.6747   -3.1055    3.1269 H       1  UNL1        0.0526
     37 H           0.1357   -4.0641    1.7184 H       1  UNL1        0.0526
     38 H          -1.4564   -2.2245    3.2499 H       1  UNL1        0.1459
     39 H          -2.4040   -3.0014    0.6560 H       1  UNL1        0.0786
     40 H          -1.6760    2.3011    1.9671 H       1  UNL1        0.1581
     41 H          -4.5942    2.0440   -1.6972 H       1  UNL1        0.0626
     42 H          -5.6143    0.3003   -3.1035 H       1  UNL1        0.0628
     43 H          -3.5914   -2.6341   -0.7992 H       1  UNL1        0.0634
     44 H           0.3951   -3.1244   -0.5765 H       1  UNL1        0.0674
     45 H           1.9812   -0.9462   -2.9347 H       1  UNL1        0.2923
@<TRIPOS>BOND
     1     1     2    1
     2     2     3    1
     3     3     4    1
     4     4     5    1
     5     5     6   ar
     6     6     7   ar
     7     7     8   ar
     8     8     9    1
     9     9    10    1
    10    10    11    1
    11    11    12    2
    12    12    13    1
    13    13    14    2
    14    13    15   am
    15    15    16   am
    16    16    17    2
    17    16    18    1
    18    18    19   ar
    19    19    20   ar
    20    20    21   ar
    21    21    22    1
    22    21    23   ar
    23    23    24   ar
    24     8    25   ar
    25    25    26   ar
    26    26    27    1
    27    26     5   ar
    28    24    12    1
    29    24    18   ar
    30     1    28    1
    31     1    29    1
    32     1    30    1
    33     2    31    1
    34     2    32    1
    35     3    33    1
    36     3    34    1
    37     6    35    1
    38     9    36    1
    39     9    37    1
    40    10    38    1
    41    11    39    1
    42    15    40    1
    43    19    41    1
    44    20    42    1
    45    23    43    1
    46    25    44    1
    47    27    45    1
