@<TRIPOS>MOLECULE
*****
 56 60 0 0 0
SMALL
GASTEIGER

@<TRIPOS>ATOM
      1 O          -8.6904   -0.5238    0.9288 O.2     1  UNL1       -0.2509
      2 C          -8.0842    0.5780    1.0985 C.2     1  UNL1        0.3072
      3 O          -7.9719    1.1322    2.3737 O.3     1  UNL1       -0.4806
      4 C          -7.5068    1.2554   -0.0644 C.3     1  UNL1        0.0710
      5 C          -6.1862    0.6829   -0.4973 C.3     1  UNL1        0.0695
      6 C          -6.2915   -0.7792   -0.8781 C.3     1  UNL1       -0.0234
      7 C          -4.8267   -1.1661   -0.9088 C.3     1  UNL1       -0.0213
      8 C          -4.1967   -0.0705   -0.0775 C.3     1  UNL1        0.0729
      9 C          -3.3562    0.8594   -0.8967 C.3     1  UNL1       -0.0079
     10 C          -2.1452    1.2600   -0.0410 C.3     1  UNL1        0.0161
     11 N          -1.3275    0.0933    0.1423 N.pl3   1  UNL1       -0.3150
     12 C           0.0779    0.1197    0.1206 C.ar    1  UNL1        0.1212
     13 C           0.7946    1.2663    0.0016 C.ar    1  UNL1       -0.0210
     14 C           2.1799    1.2989   -0.0262 C.ar    1  UNL1       -0.0464
     15 C           2.8561    0.1097    0.0718 C.ar    1  UNL1        0.0355
     16 C           4.3174    0.0808    0.0443 C.ar    1  UNL1        0.1407
     17 N           5.0325   -1.0620    0.1443 N.ar    1  UNL1       -0.2277
     18 C           6.3246   -0.7406    0.0857 C.ar    1  UNL1        0.0900
     19 C           7.4944   -1.4709    0.1351 C.ar    1  UNL1       -0.0226
     20 C           8.7457   -0.8910    0.0508 C.ar    1  UNL1        0.0569
     21 C           9.9706   -1.7279    0.1080 C.3     1  UNL1        0.4175
     22 F          11.0574   -0.9049    0.2045 F       1  UNL1       -0.1659
     23 F          10.0291   -2.5884   -0.9719 F       1  UNL1       -0.1659
     24 F           9.9262   -2.5109    1.2657 F       1  UNL1       -0.1659
     25 C           8.8089    0.4708   -0.0876 C.ar    1  UNL1       -0.0480
     26 C           7.6432    1.2114   -0.1380 C.ar    1  UNL1       -0.0357
     27 C           6.3985    0.6297   -0.0535 C.ar    1  UNL1        0.0665
     28 N           5.1347    1.1157   -0.0764 N.ar    1  UNL1       -0.3378
     29 C           2.1046   -1.0428    0.1923 C.ar    1  UNL1        0.0403
     30 N           0.7679   -1.0388    0.2158 N.ar    1  UNL1       -0.2396
     31 C          -2.0335   -1.1772    0.3662 C.3     1  UNL1        0.0161
     32 C          -3.3664   -0.7838    0.9922 C.3     1  UNL1       -0.0079
     33 O          -5.2308    0.6508    0.4887 O.3     1  UNL1       -0.3695
     34 H          -8.0281    0.5289    3.1889 H       1  UNL1        0.2951
     35 H          -7.3468    2.3360    0.1267 H       1  UNL1        0.0403
     36 H          -8.1914    1.1916   -0.9501 H       1  UNL1        0.0403
     37 H          -5.8538    1.2148   -1.4139 H       1  UNL1        0.0601
     38 H          -6.7459   -1.3666   -0.0541 H       1  UNL1        0.0291
     39 H          -6.7839   -0.9370   -1.8544 H       1  UNL1        0.0291
     40 H          -4.5098   -1.0461   -1.9802 H       1  UNL1        0.0294
     41 H          -4.6723   -2.1702   -0.5190 H       1  UNL1        0.0294
     42 H          -3.0305    0.4658   -1.8614 H       1  UNL1        0.0308
     43 H          -3.8819    1.8341   -1.1065 H       1  UNL1        0.0308
     44 H          -2.5371    1.5782    0.9548 H       1  UNL1        0.0465
     45 H          -1.6385    2.0706   -0.5675 H       1  UNL1        0.0465
     46 H           0.2844    2.2371   -0.0754 H       1  UNL1        0.0652
     47 H           2.7192    2.2310   -0.1220 H       1  UNL1        0.0626
     48 H           7.4565   -2.5518    0.2448 H       1  UNL1        0.0645
     49 H           9.7631    0.9737   -0.1580 H       1  UNL1        0.0624
     50 H           7.6955    2.2866   -0.2472 H       1  UNL1        0.0639
     51 H           4.8839    2.1105   -0.1715 H       1  UNL1        0.1674
     52 H           2.6617   -1.9923    0.2705 H       1  UNL1        0.0837
     53 H          -1.4739   -1.8180    1.0685 H       1  UNL1        0.0465
     54 H          -2.1944   -1.6340   -0.6304 H       1  UNL1        0.0465
     55 H          -3.8749   -1.7370    1.2504 H       1  UNL1        0.0308
     56 H          -3.1515   -0.1418    1.8501 H       1  UNL1        0.0308
@<TRIPOS>BOND
     1     1     2    2
     2     2     3    1
     3     2     4    1
     4     4     5    1
     5     5     6    1
     6     6     7    1
     7     7     8    1
     8     8     9    1
     9     9    10    1
    10    10    11    1
    11    11    12    1
    12    12    13   ar
    13    13    14   ar
    14    14    15   ar
    15    15    16    1
    16    16    17   ar
    17    17    18   ar
    18    18    19   ar
    19    19    20   ar
    20    20    21    1
    21    21    22    1
    22    21    23    1
    23    21    24    1
    24    20    25   ar
    25    25    26   ar
    26    26    27   ar
    27    27    28   ar
    28    15    29   ar
    29    29    30   ar
    30    11    31    1
    31    31    32    1
    32     8    33    1
    33    33     5    1
    34    32     8    1
    35    30    12   ar
    36    28    16   ar
    37    27    18   ar
    38     3    34    1
    39     4    35    1
    40     4    36    1
    41     5    37    1
    42     6    38    1
    43     6    39    1
    44     7    40    1
    45     7    41    1
    46     9    42    1
    47     9    43    1
    48    10    44    1
    49    10    45    1
    50    13    46    1
    51    14    47    1
    52    19    48    1
    53    25    49    1
    54    26    50    1
    55    28    51    1
    56    29    52    1
    57    31    53    1
    58    31    54    1
    59    32    55    1
    60    32    56    1
