
     RDKit          3D

 56 60  0  0  0  0  0  0  0  0999 V2000
   -8.6904   -0.5238    0.9288 O   0  0  0  0  0  0  0  0  0  0  0  0
   -8.0842    0.5780    1.0985 C   0  0  0  0  0  0  0  0  0  0  0  0
   -7.9719    1.1322    2.3737 O   0  0  0  0  0  0  0  0  0  0  0  0
   -7.5068    1.2554   -0.0644 C   0  0  0  0  0  0  0  0  0  0  0  0
   -6.1862    0.6829   -0.4973 C   0  0  0  0  0  0  0  0  0  0  0  0
   -6.2915   -0.7792   -0.8781 C   0  0  0  0  0  0  0  0  0  0  0  0
   -4.8267   -1.1661   -0.9088 C   0  0  0  0  0  0  0  0  0  0  0  0
   -4.1967   -0.0705   -0.0775 C   0  0  0  0  0  0  0  0  0  0  0  0
   -3.3562    0.8594   -0.8967 C   0  0  0  0  0  0  0  0  0  0  0  0
   -2.1452    1.2600   -0.0410 C   0  0  0  0  0  0  0  0  0  0  0  0
   -1.3275    0.0933    0.1423 N   0  0  0  0  0  0  0  0  0  0  0  0
    0.0779    0.1197    0.1206 C   0  0  0  0  0  0  0  0  0  0  0  0
    0.7946    1.2663    0.0016 C   0  0  0  0  0  0  0  0  0  0  0  0
    2.1799    1.2989   -0.0262 C   0  0  0  0  0  0  0  0  0  0  0  0
    2.8561    0.1097    0.0718 C   0  0  0  0  0  0  0  0  0  0  0  0
    4.3174    0.0808    0.0443 C   0  0  0  0  0  0  0  0  0  0  0  0
    5.0325   -1.0620    0.1443 N   0  0  0  0  0  0  0  0  0  0  0  0
    6.3246   -0.7406    0.0857 C   0  0  0  0  0  0  0  0  0  0  0  0
    7.4944   -1.4709    0.1351 C   0  0  0  0  0  0  0  0  0  0  0  0
    8.7457   -0.8910    0.0508 C   0  0  0  0  0  0  0  0  0  0  0  0
    9.9706   -1.7279    0.1080 C   0  0  0  0  0  0  0  0  0  0  0  0
   11.0574   -0.9049    0.2045 F   0  0  0  0  0  0  0  0  0  0  0  0
   10.0291   -2.5884   -0.9719 F   0  0  0  0  0  0  0  0  0  0  0  0
    9.9262   -2.5109    1.2657 F   0  0  0  0  0  0  0  0  0  0  0  0
    8.8089    0.4708   -0.0876 C   0  0  0  0  0  0  0  0  0  0  0  0
    7.6432    1.2114   -0.1380 C   0  0  0  0  0  0  0  0  0  0  0  0
    6.3985    0.6297   -0.0535 C   0  0  0  0  0  0  0  0  0  0  0  0
    5.1347    1.1157   -0.0764 N   0  0  0  0  0  0  0  0  0  0  0  0
    2.1046   -1.0428    0.1923 C   0  0  0  0  0  0  0  0  0  0  0  0
    0.7679   -1.0388    0.2158 N   0  0  0  0  0  0  0  0  0  0  0  0
   -2.0335   -1.1772    0.3662 C   0  0  0  0  0  0  0  0  0  0  0  0
   -3.3664   -0.7838    0.9922 C   0  0  0  0  0  0  0  0  0  0  0  0
   -5.2308    0.6508    0.4887 O   0  0  0  0  0  0  0  0  0  0  0  0
   -8.0281    0.5289    3.1889 H   0  0  0  0  0  0  0  0  0  0  0  0
   -7.3468    2.3360    0.1267 H   0  0  0  0  0  0  0  0  0  0  0  0
   -8.1914    1.1916   -0.9501 H   0  0  0  0  0  0  0  0  0  0  0  0
   -5.8538    1.2148   -1.4139 H   0  0  0  0  0  0  0  0  0  0  0  0
   -6.7459   -1.3666   -0.0541 H   0  0  0  0  0  0  0  0  0  0  0  0
   -6.7839   -0.9370   -1.8544 H   0  0  0  0  0  0  0  0  0  0  0  0
   -4.5098   -1.0461   -1.9802 H   0  0  0  0  0  0  0  0  0  0  0  0
   -4.6723   -2.1702   -0.5190 H   0  0  0  0  0  0  0  0  0  0  0  0
   -3.0305    0.4658   -1.8614 H   0  0  0  0  0  0  0  0  0  0  0  0
   -3.8819    1.8341   -1.1065 H   0  0  0  0  0  0  0  0  0  0  0  0
   -2.5371    1.5782    0.9548 H   0  0  0  0  0  0  0  0  0  0  0  0
   -1.6385    2.0706   -0.5675 H   0  0  0  0  0  0  0  0  0  0  0  0
    0.2844    2.2371   -0.0754 H   0  0  0  0  0  0  0  0  0  0  0  0
    2.7192    2.2310   -0.1220 H   0  0  0  0  0  0  0  0  0  0  0  0
    7.4565   -2.5518    0.2448 H   0  0  0  0  0  0  0  0  0  0  0  0
    9.7631    0.9737   -0.1580 H   0  0  0  0  0  0  0  0  0  0  0  0
    7.6955    2.2866   -0.2472 H   0  0  0  0  0  0  0  0  0  0  0  0
    4.8839    2.1105   -0.1715 H   0  0  0  0  0  0  0  0  0  0  0  0
    2.6617   -1.9923    0.2705 H   0  0  0  0  0  0  0  0  0  0  0  0
   -1.4739   -1.8180    1.0685 H   0  0  0  0  0  0  0  0  0  0  0  0
   -2.1944   -1.6340   -0.6304 H   0  0  0  0  0  0  0  0  0  0  0  0
   -3.8749   -1.7370    1.2504 H   0  0  0  0  0  0  0  0  0  0  0  0
   -3.1515   -0.1418    1.8501 H   0  0  0  0  0  0  0  0  0  0  0  0
  1  2  2  0
  2  3  1  0
  2  4  1  0
  4  5  1  0
  5  6  1  0
  6  7  1  0
  7  8  1  0
  8  9  1  0
  9 10  1  0
 10 11  1  0
 11 12  1  0
 12 13  2  0
 13 14  1  0
 14 15  2  0
 15 16  1  0
 16 17  2  0
 17 18  1  0
 18 19  2  0
 19 20  1  0
 20 21  1  0
 21 22  1  0
 21 23  1  0
 21 24  1  0
 20 25  2  0
 25 26  1  0
 26 27  2  0
 27 28  1  0
 15 29  1  0
 29 30  2  0
 11 31  1  0
 31 32  1  0
  8 33  1  0
 33  5  1  0
 32  8  1  0
 30 12  1  0
 28 16  1  0
 27 18  1  0
  3 34  1  0
  4 35  1  0
  4 36  1  0
  5 37  1  0
  6 38  1  0
  6 39  1  0
  7 40  1  0
  7 41  1  0
  9 42  1  0
  9 43  1  0
 10 44  1  0
 10 45  1  0
 13 46  1  0
 14 47  1  0
 19 48  1  0
 25 49  1  0
 26 50  1  0
 28 51  1  0
 29 52  1  0
 31 53  1  0
 31 54  1  0
 32 55  1  0
 32 56  1  0
M  END
$$$$
