
     RDKit          3D

 47 50  0  0  0  0  0  0  0  0999 V2000
    6.0419   -3.2833    5.1840 C   0  0  0  0  0  0  0  0  0  0  0  0
    6.4152   -3.3238    4.0226 C   0  0  0  0  0  0  0  0  0  0  0  0
    6.8818   -3.3698    2.6531 C   0  0  0  0  0  0  0  0  0  0  0  0
    6.6159   -2.1612    1.9823 O   0  0  0  0  0  0  0  0  0  0  0  0
    5.3444   -1.6600    1.8264 C   0  0  0  0  0  0  0  0  0  0  0  0
    5.1570   -0.4752    1.1559 C   0  0  0  0  0  0  0  0  0  0  0  0
    3.9269    0.0363    0.9912 N   0  0  0  0  0  0  0  0  0  0  0  0
    2.8687   -0.6209    1.4886 C   0  0  0  0  0  0  0  0  0  0  0  0
    1.5275   -0.1167    1.3434 C   0  0  0  0  0  0  0  0  0  0  0  0
    0.5629   -0.7552    1.8218 O   0  0  0  0  0  0  0  0  0  0  0  0
    1.2185    1.1027    0.6675 N   0  0  0  0  0  0  0  0  0  0  0  0
   -0.1391    1.5306    0.5728 C   0  0  0  0  0  0  0  0  0  0  0  0
   -0.6952    2.3600    1.5208 C   0  0  0  0  0  0  0  0  0  0  0  0
   -2.0048    2.7777    1.4466 C   0  0  0  0  0  0  0  0  0  0  0  0
   -2.7708    2.3380    0.3766 C   0  0  0  0  0  0  0  0  0  0  0  0
   -4.4548    2.8115    0.2964 Cl  0  0  0  0  0  0  0  0  0  0  0  0
   -2.2750    1.4985   -0.6210 C   0  0  0  0  0  0  0  0  0  0  0  0
   -3.1226    1.1106   -1.8032 C   0  0  2  0  0  0  0  0  0  0  0  0
   -3.4657    2.3040   -2.6564 C   0  0  0  0  0  0  0  0  0  0  0  0
   -2.3083    2.9032   -3.1633 F   0  0  0  0  0  0  0  0  0  0  0  0
   -4.3752    2.0167   -3.6385 F   0  0  0  0  0  0  0  0  0  0  0  0
   -4.3333    0.5133   -1.3025 N   0  0  0  0  0  0  0  0  0  0  0  0
   -5.1110   -0.2482   -1.9700 C   0  0  0  0  0  0  0  0  0  0  0  0
   -6.2758   -0.7861   -1.4092 N   0  0  0  0  0  0  0  0  0  0  0  0
   -4.6731   -0.4830   -3.3014 O   0  0  0  0  0  0  0  0  0  0  0  0
   -3.3145   -0.8404   -3.4266 C   0  0  1  0  0  0  0  0  0  0  0  0
   -2.3809    0.1262   -4.0884 C   0  0  0  0  0  0  0  0  0  0  0  0
   -2.4195    0.0430   -2.6275 C   0  0  1  0  0  0  0  0  0  0  0  0
   -0.9630    1.1246   -0.4807 C   0  0  0  0  0  0  0  0  0  0  0  0
    3.0717   -1.8027    2.1544 C   0  0  0  0  0  0  0  0  0  0  0  0
    4.2987   -2.3210    2.3237 N   0  0  0  0  0  0  0  0  0  0  0  0
    5.7289   -3.2626    6.1925 H   0  0  0  0  0  0  0  0  0  0  0  0
    7.9964   -3.5226    2.6802 H   0  0  0  0  0  0  0  0  0  0  0  0
    6.4341   -4.2063    2.0606 H   0  0  0  0  0  0  0  0  0  0  0  0
    6.0225    0.0457    0.7585 H   0  0  0  0  0  0  0  0  0  0  0  0
    1.9965    1.6413    0.2662 H   0  0  0  0  0  0  0  0  0  0  0  0
   -0.0454    2.6795    2.3508 H   0  0  0  0  0  0  0  0  0  0  0  0
   -2.4035    3.4325    2.2162 H   0  0  0  0  0  0  0  0  0  0  0  0
   -3.9114    3.0929   -2.0088 H   0  0  0  0  0  0  0  0  0  0  0  0
   -6.5556   -0.5041   -0.4494 H   0  0  0  0  0  0  0  0  0  0  0  0
   -6.8686   -1.4530   -1.9211 H   0  0  0  0  0  0  0  0  0  0  0  0
   -3.1336   -1.9293   -3.4850 H   0  0  0  0  0  0  0  0  0  0  0  0
   -2.7368    0.9513   -4.7040 H   0  0  0  0  0  0  0  0  0  0  0  0
   -1.4861   -0.3778   -4.5818 H   0  0  0  0  0  0  0  0  0  0  0  0
   -1.6460   -0.5196   -2.0840 H   0  0  0  0  0  0  0  0  0  0  0  0
   -0.4582    0.4921   -1.2031 H   0  0  0  0  0  0  0  0  0  0  0  0
    2.2180   -2.3647    2.5727 H   0  0  0  0  0  0  0  0  0  0  0  0
  1  2  3  0
  2  3  1  0
  3  4  1  0
  4  5  1  0
  5  6  2  0
  6  7  1  0
  7  8  2  0
  8  9  1  0
  9 10  2  0
  9 11  1  0
 11 12  1  0
 12 13  2  0
 13 14  1  0
 14 15  2  0
 15 16  1  0
 15 17  1  0
 17 18  1  0
 18 19  1  6
 19 20  1  0
 19 21  1  0
 18 22  1  0
 22 23  2  0
 23 24  1  0
 23 25  1  0
 25 26  1  0
 26 27  1  0
 27 28  1  0
 17 29  2  0
  8 30  1  0
 30 31  2  0
 31  5  1  0
 29 12  1  0
 28 18  1  0
 28 26  1  0
  1 32  1  0
  3 33  1  0
  3 34  1  0
  6 35  1  0
 11 36  1  0
 13 37  1  0
 14 38  1  0
 19 39  1  0
 24 40  1  0
 24 41  1  0
 26 42  1  6
 27 43  1  0
 27 44  1  0
 28 45  1  1
 29 46  1  0
 30 47  1  0
M  END
$$$$
