@<TRIPOS>MOLECULE
*****
 47 50 0 0 0
SMALL
GASTEIGER

@<TRIPOS>ATOM
      1 C           6.0419   -3.2833    5.1840 C.1     1  UNL1       -0.1158
      2 C           6.4152   -3.3238    4.0226 C.1     1  UNL1       -0.0647
      3 C           6.8818   -3.3698    2.6531 C.3     1  UNL1        0.1513
      4 O           6.6159   -2.1612    1.9823 O.3     1  UNL1       -0.4624
      5 C           5.3444   -1.6600    1.8264 C.ar    1  UNL1        0.2344
      6 C           5.1570   -0.4752    1.1559 C.ar    1  UNL1        0.0899
      7 N           3.9269    0.0363    0.9912 N.ar    1  UNL1       -0.2435
      8 C           2.8687   -0.6209    1.4886 C.ar    1  UNL1        0.1439
      9 C           1.5275   -0.1167    1.3434 C.2     1  UNL1        0.2681
     10 O           0.5629   -0.7552    1.8218 O.2     1  UNL1       -0.2681
     11 N           1.2185    1.1027    0.6675 N.am    1  UNL1       -0.2802
     12 C          -0.1391    1.5306    0.5728 C.ar    1  UNL1        0.0341
     13 C          -0.6952    2.3600    1.5208 C.ar    1  UNL1       -0.0391
     14 C          -2.0048    2.7777    1.4466 C.ar    1  UNL1       -0.0413
     15 C          -2.7708    2.3380    0.3766 C.ar    1  UNL1        0.0467
     16 CL         -4.4548    2.8115    0.2964 Cl      1  UNL1       -0.0832
     17 C          -2.2750    1.4985   -0.6210 C.ar    1  UNL1        0.0059
     18 C          -3.1226    1.1106   -1.8032 C.3     1  UNL1        0.1590
     19 C          -3.4657    2.3040   -2.6564 C.3     1  UNL1        0.2685
     20 F          -2.3083    2.9032   -3.1633 F       1  UNL1       -0.2062
     21 F          -4.3752    2.0167   -3.6385 F       1  UNL1       -0.2062
     22 N          -4.3333    0.5133   -1.3025 N.2     1  UNL1       -0.2194
     23 C          -5.1110   -0.2482   -1.9700 C.2     1  UNL1        0.2764
     24 N          -6.2758   -0.7861   -1.4092 N.pl3   1  UNL1       -0.3134
     25 O          -4.6731   -0.4830   -3.3014 O.2     1  UNL1       -0.4622
     26 C          -3.3145   -0.8404   -3.4266 C.3     1  UNL1        0.1091
     27 C          -2.3809    0.1262   -4.0884 C.3     1  UNL1       -0.0064
     28 C          -2.4195    0.0430   -2.6275 C.3     1  UNL1        0.0344
     29 C          -0.9630    1.1246   -0.4807 C.ar    1  UNL1       -0.0334
     30 C           3.0717   -1.8027    2.1544 C.ar    1  UNL1        0.0619
     31 N           4.2987   -2.3210    2.3237 N.ar    1  UNL1       -0.2177
     32 H           5.7289   -3.2626    6.1925 H       1  UNL1        0.1229
     33 H           7.9964   -3.5226    2.6802 H       1  UNL1        0.0837
     34 H           6.4341   -4.2063    2.0606 H       1  UNL1        0.0837
     35 H           6.0225    0.0457    0.7585 H       1  UNL1        0.0884
     36 H           1.9965    1.6413    0.2662 H       1  UNL1        0.1552
     37 H          -0.0454    2.6795    2.3508 H       1  UNL1        0.0636
     38 H          -2.4035    3.4325    2.2162 H       1  UNL1        0.0633
     39 H          -3.9114    3.0929   -2.0088 H       1  UNL1        0.1047
     40 H          -6.5556   -0.5041   -0.4494 H       1  UNL1        0.1466
     41 H          -6.8686   -1.4530   -1.9211 H       1  UNL1        0.1466
     42 H          -3.1336   -1.9293   -3.4850 H       1  UNL1        0.0737
     43 H          -2.7368    0.9513   -4.7040 H       1  UNL1        0.0306
     44 H          -1.4861   -0.3778   -4.5818 H       1  UNL1        0.0306
     45 H          -1.6460   -0.5196   -2.0840 H       1  UNL1        0.0366
     46 H          -0.4582    0.4921   -1.2031 H       1  UNL1        0.0640
     47 H           2.2180   -2.3647    2.5727 H       1  UNL1        0.0854
@<TRIPOS>BOND
     1     1     2    3
     2     2     3    1
     3     3     4    1
     4     4     5    1
     5     5     6   ar
     6     6     7   ar
     7     7     8   ar
     8     8     9    1
     9     9    10    2
    10     9    11   am
    11    11    12    1
    12    12    13   ar
    13    13    14   ar
    14    14    15   ar
    15    15    16    1
    16    15    17   ar
    17    17    18    1
    18    18    19    1
    19    19    20    1
    20    19    21    1
    21    18    22    1
    22    22    23    2
    23    23    24    1
    24    23    25    1
    25    25    26    1
    26    26    27    1
    27    27    28    1
    28    17    29   ar
    29     8    30   ar
    30    30    31   ar
    31    31     5   ar
    32    29    12   ar
    33    28    18    1
    34    28    26    1
    35     1    32    1
    36     3    33    1
    37     3    34    1
    38     6    35    1
    39    11    36    1
    40    13    37    1
    41    14    38    1
    42    19    39    1
    43    24    40    1
    44    24    41    1
    45    26    42    1
    46    27    43    1
    47    27    44    1
    48    28    45    1
    49    29    46    1
    50    30    47    1
