@<TRIPOS>MOLECULE
*****
 44 47 0 0 0
SMALL
GASTEIGER

@<TRIPOS>ATOM
      1 C          -2.7821    1.1825    0.3976 C.3     1  UNL1       -0.0633
      2 C          -2.5265    0.2728    1.5467 C.3     1  UNL1       -0.0325
      3 C          -1.4337    0.7269    2.4877 C.3     1  UNL1        0.0639
      4 C          -1.9551    2.0899    3.0219 C.3     1  UNL1        0.1108
      5 F          -3.1717    1.8867    3.6537 F       1  UNL1       -0.2469
      6 N          -0.1586    0.9680    1.8910 N.ar    1  UNL1       -0.3228
      7 C           0.7331    1.8063    2.5201 C.ar    1  UNL1        0.0974
      8 N           1.8307    1.8838    1.7648 N.ar    1  UNL1       -0.2351
      9 C           1.6538    1.1175    0.6793 C.ar    1  UNL1        0.0982
     10 C           2.5657    0.9446   -0.4251 C.ar    1  UNL1        0.0027
     11 C           3.1201    2.1306   -0.9353 C.ar    1  UNL1       -0.0498
     12 C           3.9896    2.1256   -2.0026 C.ar    1  UNL1       -0.0258
     13 C           4.3361    0.9505   -2.5988 C.ar    1  UNL1        0.1234
     14 F           5.1942    0.9160   -3.6559 F       1  UNL1       -0.2055
     15 C           3.7778   -0.2294   -2.0838 C.ar    1  UNL1       -0.0258
     16 C           2.9145   -0.2273   -1.0240 C.ar    1  UNL1       -0.0498
     17 C           0.3940    0.5329    0.7558 C.ar    1  UNL1        0.0969
     18 C          -0.1309   -0.3858   -0.2102 C.ar    1  UNL1        0.1103
     19 C          -0.3941   -0.0619   -1.5219 C.ar    1  UNL1       -0.0290
     20 C          -0.8965   -0.9698   -2.4365 C.ar    1  UNL1       -0.0153
     21 C          -1.1475   -2.2647   -2.0218 C.ar    1  UNL1        0.1555
     22 N          -1.6352   -3.3595   -2.6503 N.ar    1  UNL1       -0.2333
     23 C          -1.6676   -4.3582   -1.7173 C.ar    1  UNL1        0.0659
     24 C          -1.2006   -3.8876   -0.5061 C.ar    1  UNL1        0.1618
     25 C          -1.0618   -4.6097    0.7276 C.1     1  UNL1        0.1208
     26 N          -0.9308   -5.2159    1.7388 N.1     1  UNL1       -0.1892
     27 N          -0.8855   -2.5718   -0.7391 N.ar    1  UNL1       -0.2023
     28 N          -0.4142   -1.6896    0.0904 N.ar    1  UNL1       -0.1623
     29 H          -1.9107    1.8671    0.1907 H       1  UNL1        0.0230
     30 H          -3.0225    0.5695   -0.4940 H       1  UNL1        0.0230
     31 H          -3.6528    1.8703    0.5198 H       1  UNL1        0.0230
     32 H          -3.4851    0.4156    2.2022 H       1  UNL1        0.0283
     33 H          -2.4969   -0.7999    1.3599 H       1  UNL1        0.0283
     34 H          -1.4471    0.0588    3.3498 H       1  UNL1        0.0554
     35 H          -2.0155    2.7900    2.1915 H       1  UNL1        0.0636
     36 H          -1.2572    2.4675    3.7836 H       1  UNL1        0.0636
     37 H           0.6318    2.3307    3.4597 H       1  UNL1        0.1029
     38 H           2.8641    3.0840   -0.4823 H       1  UNL1        0.0625
     39 H           4.3904    3.0610   -2.3592 H       1  UNL1        0.0646
     40 H           4.0923   -1.1252   -2.6013 H       1  UNL1        0.0646
     41 H           2.4949   -1.1595   -0.6383 H       1  UNL1        0.0625
     42 H          -0.1871    0.9482   -1.8489 H       1  UNL1        0.0641
     43 H          -1.0979   -0.7054   -3.4688 H       1  UNL1        0.0655
     44 H          -2.0178   -5.3763   -1.9112 H       1  UNL1        0.0859
@<TRIPOS>BOND
     1     1     2    1
     2     2     3    1
     3     3     4    1
     4     4     5    1
     5     3     6    1
     6     6     7   ar
     7     7     8   ar
     8     8     9   ar
     9     9    10    1
    10    10    11   ar
    11    11    12   ar
    12    12    13   ar
    13    13    14    1
    14    13    15   ar
    15    15    16   ar
    16     9    17   ar
    17    17    18    1
    18    18    19   ar
    19    19    20   ar
    20    20    21   ar
    21    21    22   ar
    22    22    23   ar
    23    23    24   ar
    24    24    25    1
    25    25    26    3
    26    24    27   ar
    27    27    28   ar
    28    17     6   ar
    29    28    18   ar
    30    16    10   ar
    31    27    21   ar
    32     1    29    1
    33     1    30    1
    34     1    31    1
    35     2    32    1
    36     2    33    1
    37     3    34    1
    38     4    35    1
    39     4    36    1
    40     7    37    1
    41    11    38    1
    42    12    39    1
    43    15    40    1
    44    16    41    1
    45    19    42    1
    46    20    43    1
    47    23    44    1
