@<TRIPOS>MOLECULE
*****
 69 71 0 0 0
SMALL
GASTEIGER

@<TRIPOS>ATOM
      1 C          -7.1312   -3.2272   -2.8198 C.2     1  UNL1       -0.0938
      2 C          -6.1599   -3.8039   -2.1837 C.2     1  UNL1       -0.0070
      3 C          -5.5268   -3.1325   -1.0457 C.2     1  UNL1        0.2363
      4 O          -5.9177   -1.9842   -0.6684 O.2     1  UNL1       -0.2709
      5 N          -4.4618   -3.7591   -0.3445 N.am    1  UNL1       -0.3118
      6 C          -3.8180   -3.1329    0.7677 C.3     1  UNL1        0.0119
      7 C          -3.1397   -1.8098    0.4307 C.3     1  UNL1       -0.0373
      8 C          -2.0735   -2.0125   -0.6277 C.3     1  UNL1       -0.0495
      9 C          -1.4306   -0.7027   -0.9351 C.3     1  UNL1       -0.0258
     10 C          -0.7600   -0.0879    0.2681 C.3     1  UNL1        0.1027
     11 N          -0.2058    1.1864   -0.1782 N.am    1  UNL1       -0.2698
     12 C          -0.4855    2.3920    0.5507 C.2     1  UNL1        0.4012
     13 O          -1.2038    2.3428    1.5663 O.2     1  UNL1       -0.2265
     14 O           0.0541    3.5561    0.0945 O.3     1  UNL1       -0.4456
     15 C          -0.0987    4.8139    0.6544 C.3     1  UNL1        0.1191
     16 C          -1.5227    5.2157    0.6839 C.ar    1  UNL1       -0.0103
     17 C          -2.3524    5.0692    1.7706 C.ar    1  UNL1       -0.0554
     18 C          -3.6929    5.4519    1.7337 C.ar    1  UNL1       -0.0614
     19 C          -4.2456    5.9982    0.5962 C.ar    1  UNL1       -0.0617
     20 C          -3.4160    6.1454   -0.4903 C.ar    1  UNL1       -0.0614
     21 C          -2.0925    5.7731   -0.4707 C.ar    1  UNL1       -0.0554
     22 C           0.2724   -0.9607    0.7865 C.2     1  UNL1        0.2361
     23 O          -0.1719   -2.0508    1.3517 O.2     1  UNL1       -0.2736
     24 N           1.6541   -0.8425    0.7892 N.am    1  UNL1       -0.2970
     25 C           2.4122    0.2167    0.2294 C.3     1  UNL1        0.0305
     26 C           3.8997    0.0801    0.5670 C.3     1  UNL1        0.0281
     27 N           4.3683   -1.2578    0.2707 N.pl3   1  UNL1       -0.3258
     28 C           5.7202   -1.4059   -0.1160 C.ar    1  UNL1        0.0483
     29 C           6.6483   -0.4315    0.2814 C.ar    1  UNL1       -0.0392
     30 C           7.9777   -0.5636   -0.0478 C.ar    1  UNL1       -0.0599
     31 C           8.4291   -1.6455   -0.7693 C.ar    1  UNL1       -0.0603
     32 C           7.5431   -2.6204   -1.1754 C.ar    1  UNL1       -0.0416
     33 C           6.1876   -2.4714   -0.8320 C.ar    1  UNL1        0.0619
     34 CL          5.0541   -3.6950   -1.3809 Cl      1  UNL1       -0.0816
     35 C           3.4461   -2.3593    0.4102 C.3     1  UNL1        0.0281
     36 C           2.4221   -1.9263    1.4607 C.3     1  UNL1        0.0305
     37 H          -7.4833   -2.2621   -2.5281 H       1  UNL1        0.0536
     38 H          -7.5921   -3.7246   -3.6537 H       1  UNL1        0.0536
     39 H          -5.7911   -4.7742   -2.4610 H       1  UNL1        0.0663
     40 H          -4.1483   -4.7289   -0.6759 H       1  UNL1        0.1490
     41 H          -3.0051   -3.8127    1.1305 H       1  UNL1        0.0462
     42 H          -4.4892   -2.9983    1.6368 H       1  UNL1        0.0462
     43 H          -3.8927   -1.1379   -0.0377 H       1  UNL1        0.0280
     44 H          -2.7662   -1.3336    1.3436 H       1  UNL1        0.0280
     45 H          -1.3990   -2.8078   -0.3059 H       1  UNL1        0.0266
     46 H          -2.5739   -2.3750   -1.5842 H       1  UNL1        0.0266
     47 H          -0.6192   -0.8171   -1.7113 H       1  UNL1        0.0288
     48 H          -2.1792    0.0382   -1.3167 H       1  UNL1        0.0288
     49 H          -1.4656    0.1412    1.1035 H       1  UNL1        0.0596
     50 H           0.3650    1.2307   -1.0292 H       1  UNL1        0.1528
     51 H           0.4480    5.5835    0.0577 H       1  UNL1        0.0749
     52 H           0.2651    4.8394    1.7219 H       1  UNL1        0.0749
     53 H          -1.9514    4.6529    2.6948 H       1  UNL1        0.0621
     54 H          -4.3224    5.3252    2.6016 H       1  UNL1        0.0618
     55 H          -5.2813    6.2826    0.6006 H       1  UNL1        0.0618
     56 H          -3.8215    6.5778   -1.4150 H       1  UNL1        0.0618
     57 H          -1.4383    5.8930   -1.3386 H       1  UNL1        0.0621
     58 H           2.0719    1.1840    0.6115 H       1  UNL1        0.0480
     59 H           2.3988    0.2479   -0.8794 H       1  UNL1        0.0480
     60 H           4.5029    0.7902   -0.0140 H       1  UNL1        0.0479
     61 H           4.0471    0.2738    1.6349 H       1  UNL1        0.0479
     62 H           6.2761    0.4106    0.8513 H       1  UNL1        0.0636
     63 H           8.6535    0.2205    0.2854 H       1  UNL1        0.0618
     64 H           9.4610   -1.7523   -1.0269 H       1  UNL1        0.0618
     65 H           7.8657   -3.4968   -1.7515 H       1  UNL1        0.0633
     66 H           3.9701   -3.2789    0.7616 H       1  UNL1        0.0479
     67 H           2.9524   -2.5143   -0.5650 H       1  UNL1        0.0479
     68 H           2.9835   -1.4960    2.3035 H       1  UNL1        0.0480
     69 H           1.7764   -2.7395    1.7767 H       1  UNL1        0.0480
@<TRIPOS>BOND
     1     1     2    2
     2     2     3    1
     3     3     4    2
     4     3     5   am
     5     5     6    1
     6     6     7    1
     7     7     8    1
     8     8     9    1
     9     9    10    1
    10    10    11    1
    11    11    12   am
    12    12    13    2
    13    12    14    1
    14    14    15    1
    15    15    16    1
    16    16    17   ar
    17    17    18   ar
    18    18    19   ar
    19    19    20   ar
    20    20    21   ar
    21    10    22    1
    22    22    23    2
    23    22    24   am
    24    24    25    1
    25    25    26    1
    26    26    27    1
    27    27    28    1
    28    28    29   ar
    29    29    30   ar
    30    30    31   ar
    31    31    32   ar
    32    32    33   ar
    33    33    34    1
    34    27    35    1
    35    35    36    1
    36    21    16   ar
    37    36    24    1
    38    33    28   ar
    39     1    37    1
    40     1    38    1
    41     2    39    1
    42     5    40    1
    43     6    41    1
    44     6    42    1
    45     7    43    1
    46     7    44    1
    47     8    45    1
    48     8    46    1
    49     9    47    1
    50     9    48    1
    51    10    49    1
    52    11    50    1
    53    15    51    1
    54    15    52    1
    55    17    53    1
    56    18    54    1
    57    19    55    1
    58    20    56    1
    59    21    57    1
    60    25    58    1
    61    25    59    1
    62    26    60    1
    63    26    61    1
    64    29    62    1
    65    30    63    1
    66    31    64    1
    67    32    65    1
    68    35    66    1
    69    35    67    1
    70    36    68    1
    71    36    69    1
