@<TRIPOS>MOLECULE
*****
 40 43 0 0 0
SMALL
GASTEIGER

@<TRIPOS>ATOM
      1 O          -6.6438   -0.7838   -0.1846 O.2     1  UNL1       -0.2510
      2 C          -6.0155   -0.8588    0.9020 C.2     1  UNL1        0.3064
      3 O          -6.7550   -1.0343    2.0638 O.3     1  UNL1       -0.4806
      4 C          -4.5276   -0.7628    0.9409 C.3     1  UNL1        0.0627
      5 C          -4.0279   -0.5823   -0.4764 C.3     1  UNL1        0.0334
      6 N          -2.5609   -0.4851   -0.4512 N.ar    1  UNL1       -0.3458
      7 C          -1.6843   -1.4866   -0.5413 C.ar    1  UNL1        0.0093
      8 C          -0.3758   -0.9780   -0.4758 C.ar    1  UNL1       -0.0159
      9 C           0.7724   -1.8746   -0.5471 C.3     1  UNL1        0.0233
     10 C           2.0936   -1.2930   -0.3367 C.ar    1  UNL1        0.0841
     11 N           2.9306   -1.0040    0.4696 N.ar    1  UNL1       -0.2406
     12 C           4.1032   -0.4666    0.3189 C.ar    1  UNL1        0.1192
     13 C           5.0621   -0.1397    1.2960 C.ar    1  UNL1        0.1849
     14 F           4.8125   -0.3886    2.6294 F       1  UNL1       -0.2002
     15 C           6.2567    0.4283    0.9548 C.ar    1  UNL1        0.1633
     16 F           7.1383    0.7161    1.9794 F       1  UNL1       -0.2023
     17 C           6.6045    0.7170   -0.3405 C.ar    1  UNL1        0.0129
     18 C           5.6841    0.4082   -1.3274 C.ar    1  UNL1        0.1420
     19 F           5.9217    0.6491   -2.6358 F       1  UNL1       -0.2042
     20 C           4.4744   -0.1678   -0.9732 C.ar    1  UNL1        0.0773
     21 S           3.0433   -0.7087   -1.9020 S.2     1  UNL1       -0.0688
     22 C          -0.5261    0.3664   -0.3435 C.ar    1  UNL1        0.0034
     23 C           0.3805    1.3666   -0.2352 C.ar    1  UNL1       -0.0523
     24 C          -0.0200    2.6996   -0.1081 C.ar    1  UNL1       -0.0611
     25 C          -1.3542    3.0170   -0.0912 C.ar    1  UNL1       -0.0598
     26 C          -2.2799    1.9890   -0.2026 C.ar    1  UNL1       -0.0376
     27 C          -1.8711    0.6642   -0.3288 C.ar    1  UNL1        0.0493
     28 H          -7.6779   -1.4733    2.0049 H       1  UNL1        0.2951
     29 H          -4.1729    0.0633    1.5756 H       1  UNL1        0.0395
     30 H          -4.1191   -1.7377    1.3045 H       1  UNL1        0.0395
     31 H          -4.4647    0.3139   -0.9603 H       1  UNL1        0.0497
     32 H          -4.2545   -1.5185   -1.0268 H       1  UNL1        0.0497
     33 H          -1.9804   -2.5341   -0.6490 H       1  UNL1        0.0812
     34 H           0.6080   -2.6832    0.2263 H       1  UNL1        0.0383
     35 H           0.7500   -2.4735   -1.5105 H       1  UNL1        0.0383
     36 H           7.5420    1.1577   -0.5615 H       1  UNL1        0.0676
     37 H           1.4124    1.1395   -0.2482 H       1  UNL1        0.0624
     38 H           0.7225    3.5021   -0.0213 H       1  UNL1        0.0618
     39 H          -1.6734    4.0458    0.0067 H       1  UNL1        0.0618
     40 H          -3.3279    2.1914   -0.1939 H       1  UNL1        0.0638
@<TRIPOS>BOND
     1     1     2    2
     2     2     3    1
     3     2     4    1
     4     4     5    1
     5     5     6    1
     6     6     7   ar
     7     7     8   ar
     8     8     9    1
     9     9    10    1
    10    10    11   ar
    11    11    12   ar
    12    12    13   ar
    13    13    14    1
    14    13    15   ar
    15    15    16    1
    16    15    17   ar
    17    17    18   ar
    18    18    19    1
    19    18    20   ar
    20    20    21   ar
    21     8    22   ar
    22    22    23   ar
    23    23    24   ar
    24    24    25   ar
    25    25    26   ar
    26    26    27   ar
    27    27     6   ar
    28    21    10   ar
    29    27    22   ar
    30    20    12   ar
    31     3    28    1
    32     4    29    1
    33     4    30    1
    34     5    31    1
    35     5    32    1
    36     7    33    1
    37     9    34    1
    38     9    35    1
    39    17    36    1
    40    23    37    1
    41    24    38    1
    42    25    39    1
    43    26    40    1
