
     RDKit          3D

 40 43  0  0  0  0  0  0  0  0999 V2000
   -6.6438   -0.7838   -0.1846 O   0  0  0  0  0  0  0  0  0  0  0  0
   -6.0155   -0.8588    0.9020 C   0  0  0  0  0  0  0  0  0  0  0  0
   -6.7550   -1.0343    2.0638 O   0  0  0  0  0  0  0  0  0  0  0  0
   -4.5276   -0.7628    0.9409 C   0  0  0  0  0  0  0  0  0  0  0  0
   -4.0279   -0.5823   -0.4764 C   0  0  0  0  0  0  0  0  0  0  0  0
   -2.5609   -0.4851   -0.4512 N   0  0  0  0  0  0  0  0  0  0  0  0
   -1.6843   -1.4866   -0.5413 C   0  0  0  0  0  0  0  0  0  0  0  0
   -0.3758   -0.9780   -0.4758 C   0  0  0  0  0  0  0  0  0  0  0  0
    0.7724   -1.8746   -0.5471 C   0  0  0  0  0  0  0  0  0  0  0  0
    2.0936   -1.2930   -0.3367 C   0  0  0  0  0  0  0  0  0  0  0  0
    2.9306   -1.0040    0.4696 N   0  0  0  0  0  0  0  0  0  0  0  0
    4.1032   -0.4666    0.3189 C   0  0  0  0  0  0  0  0  0  0  0  0
    5.0621   -0.1397    1.2960 C   0  0  0  0  0  0  0  0  0  0  0  0
    4.8125   -0.3886    2.6294 F   0  0  0  0  0  0  0  0  0  0  0  0
    6.2567    0.4283    0.9548 C   0  0  0  0  0  0  0  0  0  0  0  0
    7.1383    0.7161    1.9794 F   0  0  0  0  0  0  0  0  0  0  0  0
    6.6045    0.7170   -0.3405 C   0  0  0  0  0  0  0  0  0  0  0  0
    5.6841    0.4082   -1.3274 C   0  0  0  0  0  0  0  0  0  0  0  0
    5.9217    0.6491   -2.6358 F   0  0  0  0  0  0  0  0  0  0  0  0
    4.4744   -0.1678   -0.9732 C   0  0  0  0  0  0  0  0  0  0  0  0
    3.0433   -0.7087   -1.9020 S   0  0  0  0  0  0  0  0  0  0  0  0
   -0.5261    0.3664   -0.3435 C   0  0  0  0  0  0  0  0  0  0  0  0
    0.3805    1.3666   -0.2352 C   0  0  0  0  0  0  0  0  0  0  0  0
   -0.0200    2.6996   -0.1081 C   0  0  0  0  0  0  0  0  0  0  0  0
   -1.3542    3.0170   -0.0912 C   0  0  0  0  0  0  0  0  0  0  0  0
   -2.2799    1.9890   -0.2026 C   0  0  0  0  0  0  0  0  0  0  0  0
   -1.8711    0.6642   -0.3288 C   0  0  0  0  0  0  0  0  0  0  0  0
   -7.6779   -1.4733    2.0049 H   0  0  0  0  0  0  0  0  0  0  0  0
   -4.1729    0.0633    1.5756 H   0  0  0  0  0  0  0  0  0  0  0  0
   -4.1191   -1.7377    1.3045 H   0  0  0  0  0  0  0  0  0  0  0  0
   -4.4647    0.3139   -0.9603 H   0  0  0  0  0  0  0  0  0  0  0  0
   -4.2545   -1.5185   -1.0268 H   0  0  0  0  0  0  0  0  0  0  0  0
   -1.9804   -2.5341   -0.6490 H   0  0  0  0  0  0  0  0  0  0  0  0
    0.6080   -2.6832    0.2263 H   0  0  0  0  0  0  0  0  0  0  0  0
    0.7500   -2.4735   -1.5105 H   0  0  0  0  0  0  0  0  0  0  0  0
    7.5420    1.1577   -0.5615 H   0  0  0  0  0  0  0  0  0  0  0  0
    1.4124    1.1395   -0.2482 H   0  0  0  0  0  0  0  0  0  0  0  0
    0.7225    3.5021   -0.0213 H   0  0  0  0  0  0  0  0  0  0  0  0
   -1.6734    4.0458    0.0067 H   0  0  0  0  0  0  0  0  0  0  0  0
   -3.3279    2.1914   -0.1939 H   0  0  0  0  0  0  0  0  0  0  0  0
  1  2  2  0
  2  3  1  0
  2  4  1  0
  4  5  1  0
  5  6  1  0
  6  7  1  0
  7  8  2  0
  8  9  1  0
  9 10  1  0
 10 11  2  0
 11 12  1  0
 12 13  2  0
 13 14  1  0
 13 15  1  0
 15 16  1  0
 15 17  2  0
 17 18  1  0
 18 19  1  0
 18 20  2  0
 20 21  1  0
  8 22  1  0
 22 23  2  0
 23 24  1  0
 24 25  2  0
 25 26  1  0
 26 27  2  0
 27  6  1  0
 21 10  1  0
 27 22  1  0
 20 12  1  0
  3 28  1  0
  4 29  1  0
  4 30  1  0
  5 31  1  0
  5 32  1  0
  7 33  1  0
  9 34  1  0
  9 35  1  0
 17 36  1  0
 23 37  1  0
 24 38  1  0
 25 39  1  0
 26 40  1  0
M  END
$$$$
