@<TRIPOS>MOLECULE
*****
 71 78 0 0 0
SMALL
GASTEIGER

@<TRIPOS>ATOM
      1 O           4.0795   -2.8731    0.5881 O.2     1  UNL1       -0.2465
      2 C           5.2259   -2.3152    0.5064 C.ar    1  UNL1        0.3278
      3 N           6.4211   -2.9225    0.5284 N.ar    1  UNL1       -0.3059
      4 C           7.4207   -2.0035    0.4191 C.ar    1  UNL1        0.0670
      5 C           8.7926   -2.1018    0.3925 C.ar    1  UNL1       -0.0362
      6 C           9.5796   -0.9905    0.2738 C.ar    1  UNL1       -0.0597
      7 C           8.9735    0.2511    0.1795 C.ar    1  UNL1       -0.0597
      8 C           7.5911    0.3230    0.2086 C.ar    1  UNL1       -0.0360
      9 C           6.7817   -0.7860    0.3274 C.ar    1  UNL1        0.0700
     10 N           5.4437   -0.9985    0.3823 N.ar    1  UNL1       -0.2891
     11 C           4.5072    0.1061    0.3087 C.3     1  UNL1        0.0417
     12 C           3.1111   -0.2295    0.6421 C.3     1  UNL1       -0.0191
     13 C           2.1979   -0.5555   -0.4924 C.3     1  UNL1        0.0011
     14 N           2.2186    0.5566   -1.4104 N.3     1  UNL1       -0.2980
     15 C           1.5648    1.7381   -0.9698 C.3     1  UNL1        0.0240
     16 C           0.1262    1.4881   -0.7186 C.ar    1  UNL1       -0.0333
     17 C          -0.7885    1.6206   -1.7696 C.ar    1  UNL1       -0.0567
     18 C          -2.1395    1.4101   -1.6020 C.ar    1  UNL1       -0.0522
     19 C          -2.6423    1.0559   -0.3713 C.ar    1  UNL1        0.0025
     20 C          -4.0645    0.8253   -0.1639 C.ar    1  UNL1        0.0976
     21 N          -4.9789    1.7929   -0.3853 N.ar    1  UNL1       -0.2429
     22 C          -6.2915    1.5734   -0.1945 C.ar    1  UNL1        0.0920
     23 C          -7.2389    2.5677   -0.4219 C.ar    1  UNL1       -0.0087
     24 C          -8.5850    2.3421   -0.2266 C.ar    1  UNL1        0.0682
     25 N          -9.7035    3.0877   -0.3596 N.ar    1  UNL1       -0.3443
     26 C         -10.7645    2.3594   -0.0315 C.ar    1  UNL1        0.0944
     27 N         -10.3109    1.1395    0.3127 N.ar    1  UNL1       -0.2359
     28 C          -8.9665    1.0891    0.2049 C.ar    1  UNL1        0.0909
     29 C          -8.0204    0.0970    0.4318 C.ar    1  UNL1       -0.0067
     30 C          -6.6735    0.3213    0.2368 C.ar    1  UNL1        0.0920
     31 N          -5.7548   -0.6516    0.4595 N.ar    1  UNL1       -0.2429
     32 C          -4.4413   -0.4322    0.2686 C.ar    1  UNL1        0.0976
     33 C          -3.4434   -1.4679    0.5051 C.ar    1  UNL1        0.0025
     34 C          -3.3119   -2.0037    1.7716 C.ar    1  UNL1       -0.0525
     35 C          -2.3844   -2.9869    2.0578 C.ar    1  UNL1       -0.0611
     36 C          -1.5562   -3.4608    1.0644 C.ar    1  UNL1       -0.0617
     37 C          -1.6825   -2.9295   -0.2035 C.ar    1  UNL1       -0.0611
     38 C          -2.6055   -1.9555   -0.4750 C.ar    1  UNL1       -0.0525
     39 C          -1.7550    0.9218    0.6722 C.ar    1  UNL1       -0.0522
     40 C          -0.3835    1.1338    0.5093 C.ar    1  UNL1       -0.0567
     41 C           3.5420    0.7824   -1.9426 C.3     1  UNL1        0.0011
     42 C           4.6228    0.9012   -0.9355 C.3     1  UNL1       -0.0191
     43 H           6.5721   -3.9502    0.6162 H       1  UNL1        0.1704
     44 H           9.2423   -3.0713    0.4669 H       1  UNL1        0.0639
     45 H          10.6795   -1.0453    0.2501 H       1  UNL1        0.0618
     46 H           9.6117    1.1149    0.0865 H       1  UNL1        0.0618
     47 H           7.1596    1.2990    0.1364 H       1  UNL1        0.0639
     48 H           4.8678    0.8000    1.1432 H       1  UNL1        0.0530
     49 H           2.6505    0.6859    1.1304 H       1  UNL1        0.0298
     50 H           3.0274   -0.9890    1.4798 H       1  UNL1        0.0298
     51 H           1.1676   -0.6575   -0.0997 H       1  UNL1        0.0427
     52 H           2.4928   -1.4437   -1.0906 H       1  UNL1        0.0427
     53 H           2.0181    2.2099   -0.0672 H       1  UNL1        0.0476
     54 H           1.6727    2.4973   -1.7781 H       1  UNL1        0.0476
     55 H          -0.3754    1.8998   -2.7306 H       1  UNL1        0.0621
     56 H          -2.8095    1.5252   -2.4483 H       1  UNL1        0.0624
     57 H          -6.9283    3.5386   -0.7575 H       1  UNL1        0.0661
     58 H          -9.7118    4.0869   -0.6750 H       1  UNL1        0.1668
     59 H         -11.8037    2.7108   -0.0470 H       1  UNL1        0.1027
     60 H          -8.3259   -0.8868    0.7712 H       1  UNL1        0.0661
     61 H          -3.9287   -1.6765    2.5909 H       1  UNL1        0.0624
     62 H          -2.2809   -3.4051    3.0435 H       1  UNL1        0.0618
     63 H          -0.8263   -4.2249    1.2599 H       1  UNL1        0.0618
     64 H          -1.0604   -3.2574   -1.0370 H       1  UNL1        0.0618
     65 H          -2.6947   -1.5471   -1.4724 H       1  UNL1        0.0624
     66 H          -2.0893    0.6462    1.6608 H       1  UNL1        0.0624
     67 H           0.2915    1.0208    1.3586 H       1  UNL1        0.0621
     68 H           3.7444    0.0148   -2.7194 H       1  UNL1        0.0427
     69 H           3.4853    1.7572   -2.5106 H       1  UNL1        0.0427
     70 H           4.8720    1.9905   -0.7463 H       1  UNL1        0.0298
     71 H           5.5663    0.5373   -1.4567 H       1  UNL1        0.0298
@<TRIPOS>BOND
     1     1     2    2
     2     2     3   ar
     3     3     4   ar
     4     4     5   ar
     5     5     6   ar
     6     6     7   ar
     7     7     8   ar
     8     8     9   ar
     9     9    10   ar
    10    10    11    1
    11    11    12    1
    12    12    13    1
    13    13    14    1
    14    14    15    1
    15    15    16    1
    16    16    17   ar
    17    17    18   ar
    18    18    19   ar
    19    19    20    1
    20    20    21   ar
    21    21    22   ar
    22    22    23   ar
    23    23    24   ar
    24    24    25   ar
    25    25    26   ar
    26    26    27   ar
    27    27    28   ar
    28    28    29   ar
    29    29    30   ar
    30    30    31   ar
    31    31    32   ar
    32    32    33    1
    33    33    34   ar
    34    34    35   ar
    35    35    36   ar
    36    36    37   ar
    37    37    38   ar
    38    19    39   ar
    39    39    40   ar
    40    14    41    1
    41    41    42    1
    42    10     2   ar
    43    42    11    1
    44     9     4   ar
    45    40    16   ar
    46    32    20   ar
    47    38    33   ar
    48    30    22   ar
    49    28    24   ar
    50     3    43    1
    51     5    44    1
    52     6    45    1
    53     7    46    1
    54     8    47    1
    55    11    48    1
    56    12    49    1
    57    12    50    1
    58    13    51    1
    59    13    52    1
    60    15    53    1
    61    15    54    1
    62    17    55    1
    63    18    56    1
    64    23    57    1
    65    25    58    1
    66    26    59    1
    67    29    60    1
    68    34    61    1
    69    35    62    1
    70    36    63    1
    71    37    64    1
    72    38    65    1
    73    39    66    1
    74    40    67    1
    75    41    68    1
    76    41    69    1
    77    42    70    1
    78    42    71    1
