
     RDKit          3D

 71 78  0  0  0  0  0  0  0  0999 V2000
    4.0795   -2.8731    0.5881 O   0  0  0  0  0  0  0  0  0  0  0  0
    5.2259   -2.3152    0.5064 C   0  0  0  0  0  0  0  0  0  0  0  0
    6.4211   -2.9225    0.5284 N   0  0  0  0  0  0  0  0  0  0  0  0
    7.4207   -2.0035    0.4191 C   0  0  0  0  0  0  0  0  0  0  0  0
    8.7926   -2.1018    0.3925 C   0  0  0  0  0  0  0  0  0  0  0  0
    9.5796   -0.9905    0.2738 C   0  0  0  0  0  0  0  0  0  0  0  0
    8.9735    0.2511    0.1795 C   0  0  0  0  0  0  0  0  0  0  0  0
    7.5911    0.3230    0.2086 C   0  0  0  0  0  0  0  0  0  0  0  0
    6.7817   -0.7860    0.3274 C   0  0  0  0  0  0  0  0  0  0  0  0
    5.4437   -0.9985    0.3823 N   0  0  0  0  0  0  0  0  0  0  0  0
    4.5072    0.1061    0.3087 C   0  0  0  0  0  0  0  0  0  0  0  0
    3.1111   -0.2295    0.6421 C   0  0  0  0  0  0  0  0  0  0  0  0
    2.1979   -0.5555   -0.4924 C   0  0  0  0  0  0  0  0  0  0  0  0
    2.2186    0.5566   -1.4104 N   0  0  0  0  0  0  0  0  0  0  0  0
    1.5648    1.7381   -0.9698 C   0  0  0  0  0  0  0  0  0  0  0  0
    0.1262    1.4881   -0.7186 C   0  0  0  0  0  0  0  0  0  0  0  0
   -0.7885    1.6206   -1.7696 C   0  0  0  0  0  0  0  0  0  0  0  0
   -2.1395    1.4101   -1.6020 C   0  0  0  0  0  0  0  0  0  0  0  0
   -2.6423    1.0559   -0.3713 C   0  0  0  0  0  0  0  0  0  0  0  0
   -4.0645    0.8253   -0.1639 C   0  0  0  0  0  0  0  0  0  0  0  0
   -4.9789    1.7929   -0.3853 N   0  0  0  0  0  0  0  0  0  0  0  0
   -6.2915    1.5734   -0.1945 C   0  0  0  0  0  0  0  0  0  0  0  0
   -7.2389    2.5677   -0.4219 C   0  0  0  0  0  0  0  0  0  0  0  0
   -8.5850    2.3421   -0.2266 C   0  0  0  0  0  0  0  0  0  0  0  0
   -9.7035    3.0877   -0.3596 N   0  0  0  0  0  0  0  0  0  0  0  0
  -10.7645    2.3594   -0.0315 C   0  0  0  0  0  0  0  0  0  0  0  0
  -10.3109    1.1395    0.3127 N   0  0  0  0  0  0  0  0  0  0  0  0
   -8.9665    1.0891    0.2049 C   0  0  0  0  0  0  0  0  0  0  0  0
   -8.0204    0.0970    0.4318 C   0  0  0  0  0  0  0  0  0  0  0  0
   -6.6735    0.3213    0.2368 C   0  0  0  0  0  0  0  0  0  0  0  0
   -5.7548   -0.6516    0.4595 N   0  0  0  0  0  0  0  0  0  0  0  0
   -4.4413   -0.4322    0.2686 C   0  0  0  0  0  0  0  0  0  0  0  0
   -3.4434   -1.4679    0.5051 C   0  0  0  0  0  0  0  0  0  0  0  0
   -3.3119   -2.0037    1.7716 C   0  0  0  0  0  0  0  0  0  0  0  0
   -2.3844   -2.9869    2.0578 C   0  0  0  0  0  0  0  0  0  0  0  0
   -1.5562   -3.4608    1.0644 C   0  0  0  0  0  0  0  0  0  0  0  0
   -1.6825   -2.9295   -0.2035 C   0  0  0  0  0  0  0  0  0  0  0  0
   -2.6055   -1.9555   -0.4750 C   0  0  0  0  0  0  0  0  0  0  0  0
   -1.7550    0.9218    0.6722 C   0  0  0  0  0  0  0  0  0  0  0  0
   -0.3835    1.1338    0.5093 C   0  0  0  0  0  0  0  0  0  0  0  0
    3.5420    0.7824   -1.9426 C   0  0  0  0  0  0  0  0  0  0  0  0
    4.6228    0.9012   -0.9355 C   0  0  0  0  0  0  0  0  0  0  0  0
    6.5721   -3.9502    0.6162 H   0  0  0  0  0  0  0  0  0  0  0  0
    9.2423   -3.0713    0.4669 H   0  0  0  0  0  0  0  0  0  0  0  0
   10.6795   -1.0453    0.2501 H   0  0  0  0  0  0  0  0  0  0  0  0
    9.6117    1.1149    0.0865 H   0  0  0  0  0  0  0  0  0  0  0  0
    7.1596    1.2990    0.1364 H   0  0  0  0  0  0  0  0  0  0  0  0
    4.8678    0.8000    1.1432 H   0  0  0  0  0  0  0  0  0  0  0  0
    2.6505    0.6859    1.1304 H   0  0  0  0  0  0  0  0  0  0  0  0
    3.0274   -0.9890    1.4798 H   0  0  0  0  0  0  0  0  0  0  0  0
    1.1676   -0.6575   -0.0997 H   0  0  0  0  0  0  0  0  0  0  0  0
    2.4928   -1.4437   -1.0906 H   0  0  0  0  0  0  0  0  0  0  0  0
    2.0181    2.2099   -0.0672 H   0  0  0  0  0  0  0  0  0  0  0  0
    1.6727    2.4973   -1.7781 H   0  0  0  0  0  0  0  0  0  0  0  0
   -0.3754    1.8998   -2.7306 H   0  0  0  0  0  0  0  0  0  0  0  0
   -2.8095    1.5252   -2.4483 H   0  0  0  0  0  0  0  0  0  0  0  0
   -6.9283    3.5386   -0.7575 H   0  0  0  0  0  0  0  0  0  0  0  0
   -9.7118    4.0869   -0.6750 H   0  0  0  0  0  0  0  0  0  0  0  0
  -11.8037    2.7108   -0.0470 H   0  0  0  0  0  0  0  0  0  0  0  0
   -8.3259   -0.8868    0.7712 H   0  0  0  0  0  0  0  0  0  0  0  0
   -3.9287   -1.6765    2.5909 H   0  0  0  0  0  0  0  0  0  0  0  0
   -2.2809   -3.4051    3.0435 H   0  0  0  0  0  0  0  0  0  0  0  0
   -0.8263   -4.2249    1.2599 H   0  0  0  0  0  0  0  0  0  0  0  0
   -1.0604   -3.2574   -1.0370 H   0  0  0  0  0  0  0  0  0  0  0  0
   -2.6947   -1.5471   -1.4724 H   0  0  0  0  0  0  0  0  0  0  0  0
   -2.0893    0.6462    1.6608 H   0  0  0  0  0  0  0  0  0  0  0  0
    0.2915    1.0208    1.3586 H   0  0  0  0  0  0  0  0  0  0  0  0
    3.7444    0.0148   -2.7194 H   0  0  0  0  0  0  0  0  0  0  0  0
    3.4853    1.7572   -2.5106 H   0  0  0  0  0  0  0  0  0  0  0  0
    4.8720    1.9905   -0.7463 H   0  0  0  0  0  0  0  0  0  0  0  0
    5.5663    0.5373   -1.4567 H   0  0  0  0  0  0  0  0  0  0  0  0
  1  2  2  0
  2  3  1  0
  3  4  1  0
  4  5  2  0
  5  6  1  0
  6  7  2  0
  7  8  1  0
  8  9  2  0
  9 10  1  0
 10 11  1  0
 11 12  1  0
 12 13  1  0
 13 14  1  0
 14 15  1  0
 15 16  1  0
 16 17  2  0
 17 18  1  0
 18 19  2  0
 19 20  1  0
 20 21  2  0
 21 22  1  0
 22 23  2  0
 23 24  1  0
 24 25  1  0
 25 26  1  0
 26 27  2  0
 27 28  1  0
 28 29  1  0
 29 30  2  0
 30 31  1  0
 31 32  2  0
 32 33  1  0
 33 34  2  0
 34 35  1  0
 35 36  2  0
 36 37  1  0
 37 38  2  0
 19 39  1  0
 39 40  2  0
 14 41  1  0
 41 42  1  0
 10  2  1  0
 42 11  1  0
  9  4  1  0
 40 16  1  0
 32 20  1  0
 38 33  1  0
 30 22  1  0
 28 24  2  0
  3 43  1  0
  5 44  1  0
  6 45  1  0
  7 46  1  0
  8 47  1  0
 11 48  1  0
 12 49  1  0
 12 50  1  0
 13 51  1  0
 13 52  1  0
 15 53  1  0
 15 54  1  0
 17 55  1  0
 18 56  1  0
 23 57  1  0
 25 58  1  0
 26 59  1  0
 29 60  1  0
 34 61  1  0
 35 62  1  0
 36 63  1  0
 37 64  1  0
 38 65  1  0
 39 66  1  0
 40 67  1  0
 41 68  1  0
 41 69  1  0
 42 70  1  0
 42 71  1  0
M  END
$$$$
