@<TRIPOS>MOLECULE
*****
 26 26 0 0 0
SMALL
GASTEIGER

@<TRIPOS>ATOM
      1 O          -1.9397   -1.4372   -0.4520 O.3     1  UNL1       -0.3659
      2 C          -0.8519   -0.5837   -0.1542 C.3     1  UNL1        0.2849
      3 C           0.4564   -1.2766   -0.3670 C.3     1  UNL1        0.0760
      4 N           1.6233   -0.4989   -0.0932 N.ar    1  UNL1       -0.3328
      5 C           2.3049   -0.3653    1.0618 C.ar    1  UNL1        0.0241
      6 C           3.3834    0.4971    0.8692 C.ar    1  UNL1        0.0454
      7 N           3.3316    0.8755   -0.4248 N.ar    1  UNL1       -0.2441
      8 C           2.2577    0.2650   -1.0034 C.ar    1  UNL1        0.0960
      9 P          -1.0897   -0.1148    1.5835 P.3     1  UNL1        0.3728
     10 O          -0.1710    1.2277    2.0192 O.3     1  UNL1       -0.3217
     11 O          -2.7197    0.2195    1.8933 O.3     1  UNL1       -0.3217
     12 O          -0.7092   -1.3245    2.4368 O.2     1  UNL1       -0.2551
     13 P          -1.0831    0.8722   -1.1735 P.3     1  UNL1        0.3728
     14 O          -1.2514    0.3907   -2.7999 O.3     1  UNL1       -0.3217
     15 O          -2.5934    1.5453   -0.7287 O.3     1  UNL1       -0.3217
     16 O          -0.0251    1.9157   -1.0021 O.2     1  UNL1       -0.2551
     17 H          -1.7582   -1.8411   -1.3317 H       1  UNL1        0.2117
     18 H           0.4365   -2.2142    0.2273 H       1  UNL1        0.0533
     19 H           0.4376   -1.6538   -1.4298 H       1  UNL1        0.0533
     20 H           2.0508   -0.8587    2.0085 H       1  UNL1        0.0825
     21 H           4.0614    0.7414    1.6723 H       1  UNL1        0.0845
     22 H           2.0679    0.4617   -2.0513 H       1  UNL1        0.1029
     23 H           0.0845    1.2381    2.9569 H       1  UNL1        0.2198
     24 H          -3.2895   -0.4044    1.3586 H       1  UNL1        0.2198
     25 H          -1.6927    1.1019   -3.3539 H       1  UNL1        0.2198
     26 H          -3.3214    1.2215   -1.3153 H       1  UNL1        0.2198
@<TRIPOS>BOND
     1     1     2    1
     2     2     3    1
     3     3     4    1
     4     4     5   ar
     5     5     6   ar
     6     6     7   ar
     7     7     8   ar
     8     2     9    1
     9     9    10    1
    10     9    11    1
    11     9    12    2
    12     2    13    1
    13    13    14    1
    14    13    15    1
    15    13    16    2
    16     8     4   ar
    17     1    17    1
    18     3    18    1
    19     3    19    1
    20     5    20    1
    21     6    21    1
    22     8    22    1
    23    10    23    1
    24    11    24    1
    25    14    25    1
    26    15    26    1
