
     RDKit          3D

 41 43  0  0  0  0  0  0  0  0999 V2000
   -0.4815   -3.6740    2.4019 C   0  0  0  0  0  0  0  0  0  0  0  0
   -0.9457   -2.5049    1.7550 O   0  0  0  0  0  0  0  0  0  0  0  0
   -0.0706   -1.6560    1.1340 C   0  0  0  0  0  0  0  0  0  0  0  0
   -0.5232   -0.5101    0.4997 C   0  0  0  0  0  0  0  0  0  0  0  0
   -1.8911   -0.2831    0.5336 O   0  0  0  0  0  0  0  0  0  0  0  0
   -2.5601    0.7997   -0.0356 C   0  0  0  0  0  0  0  0  0  0  0  0
   -3.4162    1.5117    1.0163 C   0  0  0  0  0  0  0  0  0  0  0  0
   -4.4514    2.1871    0.1274 C   0  0  0  0  0  0  0  0  0  0  0  0
   -4.8937    0.9796   -0.7057 C   0  0  0  0  0  0  0  0  0  0  0  0
   -3.6249    0.2194   -0.9742 C   0  0  0  0  0  0  0  0  0  0  0  0
    0.4409    0.2759   -0.0946 C   0  0  0  0  0  0  0  0  0  0  0  0
    1.7759   -0.0716   -0.0517 C   0  0  0  0  0  0  0  0  0  0  0  0
    2.2220   -1.2133    0.5809 C   0  0  0  0  0  0  0  0  0  0  0  0
    1.2506   -1.9956    1.1738 C   0  0  0  0  0  0  0  0  0  0  0  0
    2.7584    0.8214   -0.7127 C   0  0  0  0  0  0  0  0  0  0  0  0
    3.8043    1.2720    0.2752 C   0  0  0  0  0  0  0  0  0  0  0  0
    5.0055    1.3931   -0.4902 N   0  0  0  0  0  0  0  0  0  0  0  0
    4.8957    0.8052   -1.6388 C   0  0  0  0  0  0  0  0  0  0  0  0
    5.9795    0.8260   -2.5166 O   0  0  0  0  0  0  0  0  0  0  0  0
    3.5372    0.1798   -1.8050 C   0  0  0  0  0  0  0  0  0  0  0  0
   -1.3882   -4.2960    2.5964 H   0  0  0  0  0  0  0  0  0  0  0  0
   -0.0139   -3.4443    3.3809 H   0  0  0  0  0  0  0  0  0  0  0  0
    0.1692   -4.3093    1.7700 H   0  0  0  0  0  0  0  0  0  0  0  0
   -1.9256    1.5274   -0.5534 H   0  0  0  0  0  0  0  0  0  0  0  0
   -2.8132    2.2365    1.5935 H   0  0  0  0  0  0  0  0  0  0  0  0
   -3.9224    0.7492    1.6345 H   0  0  0  0  0  0  0  0  0  0  0  0
   -5.2695    2.6224    0.7007 H   0  0  0  0  0  0  0  0  0  0  0  0
   -3.9024    2.9110   -0.5241 H   0  0  0  0  0  0  0  0  0  0  0  0
   -5.4686    1.2583   -1.5886 H   0  0  0  0  0  0  0  0  0  0  0  0
   -5.5430    0.3927    0.0067 H   0  0  0  0  0  0  0  0  0  0  0  0
   -3.3573    0.4044   -2.0314 H   0  0  0  0  0  0  0  0  0  0  0  0
   -3.7750   -0.8591   -0.7921 H   0  0  0  0  0  0  0  0  0  0  0  0
    0.0792    1.1665   -0.5863 H   0  0  0  0  0  0  0  0  0  0  0  0
    3.2808   -1.4120    0.5684 H   0  0  0  0  0  0  0  0  0  0  0  0
    1.6373   -2.8954    1.6679 H   0  0  0  0  0  0  0  0  0  0  0  0
    2.1868    1.6669   -1.1505 H   0  0  0  0  0  0  0  0  0  0  0  0
    3.8931    0.4932    1.0484 H   0  0  0  0  0  0  0  0  0  0  0  0
    3.5233    2.2679    0.6626 H   0  0  0  0  0  0  0  0  0  0  0  0
    6.9359    0.7091   -2.2101 H   0  0  0  0  0  0  0  0  0  0  0  0
    3.1707    0.3612   -2.8297 H   0  0  0  0  0  0  0  0  0  0  0  0
    3.6913   -0.9129   -1.7060 H   0  0  0  0  0  0  0  0  0  0  0  0
  1  2  1  0
  2  3  1  0
  3  4  2  0
  4  5  1  0
  5  6  1  0
  6  7  1  0
  7  8  1  0
  8  9  1  0
  9 10  1  0
  4 11  1  0
 11 12  2  0
 12 13  1  0
 13 14  2  0
 12 15  1  0
 15 16  1  0
 16 17  1  0
 17 18  2  0
 18 19  1  0
 18 20  1  0
 14  3  1  0
 20 15  1  0
 10  6  1  0
  1 21  1  0
  1 22  1  0
  1 23  1  0
  6 24  1  0
  7 25  1  0
  7 26  1  0
  8 27  1  0
  8 28  1  0
  9 29  1  0
  9 30  1  0
 10 31  1  0
 10 32  1  0
 11 33  1  0
 13 34  1  0
 14 35  1  0
 15 36  1  0
 16 37  1  0
 16 38  1  0
 19 39  1  0
 20 40  1  0
 20 41  1  0
M  END
$$$$
