@<TRIPOS>MOLECULE
*****
 41 43 0 0 0
SMALL
GASTEIGER

@<TRIPOS>ATOM
      1 C          -0.4815   -3.6740    2.4019 C.3     1  UNL1        0.0790
      2 O          -0.9457   -2.5049    1.7550 O.3     1  UNL1       -0.4915
      3 C          -0.0706   -1.6560    1.1340 C.ar    1  UNL1        0.1615
      4 C          -0.5232   -0.5101    0.4997 C.ar    1  UNL1        0.1626
      5 O          -1.8911   -0.2831    0.5336 O.3     1  UNL1       -0.4852
      6 C          -2.5601    0.7997   -0.0356 C.3     1  UNL1        0.1004
      7 C          -3.4162    1.5117    1.0163 C.3     1  UNL1       -0.0158
      8 C          -4.4514    2.1871    0.1274 C.3     1  UNL1       -0.0496
      9 C          -4.8937    0.9796   -0.7057 C.3     1  UNL1       -0.0496
     10 C          -3.6249    0.2194   -0.9742 C.3     1  UNL1       -0.0158
     11 C           0.4409    0.2759   -0.0946 C.ar    1  UNL1       -0.0128
     12 C           1.7759   -0.0716   -0.0517 C.ar    1  UNL1       -0.0384
     13 C           2.2220   -1.2133    0.5809 C.ar    1  UNL1       -0.0546
     14 C           1.2506   -1.9956    1.1738 C.ar    1  UNL1       -0.0160
     15 C           2.7584    0.8214   -0.7127 C.3     1  UNL1        0.0122
     16 C           3.8043    1.2720    0.2752 C.3     1  UNL1        0.0503
     17 N           5.0055    1.3931   -0.4902 N.2     1  UNL1       -0.2542
     18 C           4.8957    0.8052   -1.6388 C.2     1  UNL1        0.1831
     19 O           5.9795    0.8260   -2.5166 O.2     1  UNL1       -0.4956
     20 C           3.5372    0.1798   -1.8050 C.3     1  UNL1        0.0315
     21 H          -1.3882   -4.2960    2.5964 H       1  UNL1        0.0660
     22 H          -0.0139   -3.4443    3.3809 H       1  UNL1        0.0660
     23 H           0.1692   -4.3093    1.7700 H       1  UNL1        0.0660
     24 H          -1.9256    1.5274   -0.5534 H       1  UNL1        0.0733
     25 H          -2.8132    2.2365    1.5935 H       1  UNL1        0.0301
     26 H          -3.9224    0.7492    1.6345 H       1  UNL1        0.0301
     27 H          -5.2695    2.6224    0.7007 H       1  UNL1        0.0266
     28 H          -3.9024    2.9110   -0.5241 H       1  UNL1        0.0266
     29 H          -5.4686    1.2583   -1.5886 H       1  UNL1        0.0266
     30 H          -5.5430    0.3927    0.0067 H       1  UNL1        0.0266
     31 H          -3.3573    0.4044   -2.0314 H       1  UNL1        0.0301
     32 H          -3.7750   -0.8591   -0.7921 H       1  UNL1        0.0301
     33 H           0.0792    1.1665   -0.5863 H       1  UNL1        0.0658
     34 H           3.2808   -1.4120    0.5684 H       1  UNL1        0.0622
     35 H           1.6373   -2.8954    1.6679 H       1  UNL1        0.0655
     36 H           2.1868    1.6669   -1.1505 H       1  UNL1        0.0371
     37 H           3.8931    0.4932    1.0484 H       1  UNL1        0.0515
     38 H           3.5233    2.2679    0.6626 H       1  UNL1        0.0515
     39 H           6.9359    0.7091   -2.2101 H       1  UNL1        0.2934
     40 H           3.1707    0.3612   -2.8297 H       1  UNL1        0.0366
     41 H           3.6913   -0.9129   -1.7060 H       1  UNL1        0.0366
@<TRIPOS>BOND
     1     1     2    1
     2     2     3    1
     3     3     4   ar
     4     4     5    1
     5     5     6    1
     6     6     7    1
     7     7     8    1
     8     8     9    1
     9     9    10    1
    10     4    11   ar
    11    11    12   ar
    12    12    13   ar
    13    13    14   ar
    14    12    15    1
    15    15    16    1
    16    16    17    1
    17    17    18    2
    18    18    19    1
    19    18    20    1
    20    14     3   ar
    21    20    15    1
    22    10     6    1
    23     1    21    1
    24     1    22    1
    25     1    23    1
    26     6    24    1
    27     7    25    1
    28     7    26    1
    29     8    27    1
    30     8    28    1
    31     9    29    1
    32     9    30    1
    33    10    31    1
    34    10    32    1
    35    11    33    1
    36    13    34    1
    37    14    35    1
    38    15    36    1
    39    16    37    1
    40    16    38    1
    41    19    39    1
    42    20    40    1
    43    20    41    1
