
     RDKit          3D

 25 25  0  0  0  0  0  0  0  0999 V2000
   -2.7433    1.3816    2.1612 O   0  0  0  0  0  0  0  0  0  0  0  0
   -2.6841    0.5234    1.0586 C   0  0  0  0  0  0  0  0  0  0  0  0
   -1.2771    0.4124    0.5146 C   0  0  1  0  0  0  0  0  0  0  0  0
   -0.3816   -0.0721    1.4318 O   0  0  0  0  0  0  0  0  0  0  0  0
    0.6236   -0.6183    0.6307 C   0  0  2  0  0  0  0  0  0  0  0  0
    1.1657    0.3864   -0.1248 O   0  0  0  0  0  0  0  0  0  0  0  0
    2.8257    0.5416    0.0144 P   0  0  0  0  0  0  0  0  0  0  0  0
    3.6002   -0.8256    0.6052 O   0  0  0  0  0  0  0  0  0  0  0  0
    3.1475    1.8131    1.0897 O   0  0  0  0  0  0  0  0  0  0  0  0
    3.3831    0.9759   -1.3425 O   0  0  0  0  0  0  0  0  0  0  0  0
   -0.2335   -1.5586   -0.2239 C   0  0  2  0  0  0  0  0  0  0  0  0
    0.4183   -1.9429   -1.3885 O   0  0  0  0  0  0  0  0  0  0  0  0
   -1.3415   -0.6040   -0.6106 C   0  0  2  0  0  0  0  0  0  0  0  0
   -1.0581    0.0720   -1.7914 O   0  0  0  0  0  0  0  0  0  0  0  0
   -3.4519    2.0578    2.0638 H   0  0  0  0  0  0  0  0  0  0  0  0
   -3.3349    0.9668    0.2771 H   0  0  0  0  0  0  0  0  0  0  0  0
   -3.1216   -0.4630    1.2892 H   0  0  0  0  0  0  0  0  0  0  0  0
   -0.9271    1.4020    0.1617 H   0  0  0  0  0  0  0  0  0  0  0  0
    1.3676   -1.1805    1.2234 H   0  0  0  0  0  0  0  0  0  0  0  0
    3.3763   -1.6506    0.1183 H   0  0  0  0  0  0  0  0  0  0  0  0
    4.0909    2.1168    0.9777 H   0  0  0  0  0  0  0  0  0  0  0  0
   -0.5641   -2.4060    0.3756 H   0  0  0  0  0  0  0  0  0  0  0  0
    0.7623   -1.1571   -1.8575 H   0  0  0  0  0  0  0  0  0  0  0  0
   -2.2706   -1.1748   -0.6438 H   0  0  0  0  0  0  0  0  0  0  0  0
   -1.3719    1.0036   -1.6956 H   0  0  0  0  0  0  0  0  0  0  0  0
  1  2  1  0
  2  3  1  0
  3  4  1  0
  4  5  1  0
  5  6  1  0
  6  7  1  0
  7  8  1  0
  7  9  1  0
  7 10  2  0
  5 11  1  0
 11 12  1  0
 11 13  1  0
 13 14  1  0
 13  3  1  0
  1 15  1  0
  2 16  1  0
  2 17  1  0
  3 18  1  6
  5 19  1  1
  8 20  1  0
  9 21  1  0
 11 22  1  1
 12 23  1  0
 13 24  1  6
 14 25  1  0
M  END
$$$$
