@<TRIPOS>MOLECULE
*****
 25 25 0 0 0
SMALL
GASTEIGER

@<TRIPOS>ATOM
      1 O          -2.7433    1.3816    2.1612 O.3     1  UNL1       -0.3924
      2 C          -2.6841    0.5234    1.0586 C.3     1  UNL1        0.0730
      3 C          -1.2771    0.4124    0.5146 C.3     1  UNL1        0.1131
      4 O          -0.3816   -0.0721    1.4318 O.3     1  UNL1       -0.3400
      5 C           0.6236   -0.6183    0.6307 C.3     1  UNL1        0.1988
      6 O           1.1657    0.3864   -0.1248 O.3     1  UNL1       -0.2540
      7 P           2.8257    0.5416    0.0144 P.3     1  UNL1        0.4747
      8 O           3.6002   -0.8256    0.6052 O.3     1  UNL1       -0.3025
      9 O           3.1475    1.8131    1.0897 O.3     1  UNL1       -0.3025
     10 O           3.3831    0.9759   -1.3425 O.2     1  UNL1       -0.2274
     11 C          -0.2335   -1.5586   -0.2239 C.3     1  UNL1        0.1346
     12 O           0.4183   -1.9429   -1.3885 O.3     1  UNL1       -0.3841
     13 C          -1.3415   -0.6040   -0.6106 C.3     1  UNL1        0.1141
     14 O          -1.0581    0.0720   -1.7914 O.3     1  UNL1       -0.3864
     15 H          -3.4519    2.0578    2.0638 H       1  UNL1        0.2095
     16 H          -3.3349    0.9668    0.2771 H       1  UNL1        0.0584
     17 H          -3.1216   -0.4630    1.2892 H       1  UNL1        0.0584
     18 H          -0.9271    1.4020    0.1617 H       1  UNL1        0.0647
     19 H           1.3676   -1.1805    1.2234 H       1  UNL1        0.0943
     20 H           3.3763   -1.6506    0.1183 H       1  UNL1        0.2220
     21 H           4.0909    2.1168    0.9777 H       1  UNL1        0.2220
     22 H          -0.5641   -2.4060    0.3756 H       1  UNL1        0.0671
     23 H           0.7623   -1.1571   -1.8575 H       1  UNL1        0.2101
     24 H          -2.2706   -1.1748   -0.6438 H       1  UNL1        0.0648
     25 H          -1.3719    1.0036   -1.6956 H       1  UNL1        0.2100
@<TRIPOS>BOND
     1     1     2    1
     2     2     3    1
     3     3     4    1
     4     4     5    1
     5     5     6    1
     6     6     7    1
     7     7     8    1
     8     7     9    1
     9     7    10    2
    10     5    11    1
    11    11    12    1
    12    11    13    1
    13    13    14    1
    14    13     3    1
    15     1    15    1
    16     2    16    1
    17     2    17    1
    18     3    18    1
    19     5    19    1
    20     8    20    1
    21     9    21    1
    22    11    22    1
    23    12    23    1
    24    13    24    1
    25    14    25    1
