
     RDKit          3D

 63 67  0  0  0  0  0  0  0  0999 V2000
   -5.2773   -1.6258    1.9046 C   0  0  0  0  0  0  0  0  0  0  0  0
   -4.2453   -1.5819    0.7973 C   0  0  2  0  0  0  0  0  0  0  0  0
   -3.7062   -0.3300    0.6576 O   0  0  0  0  0  0  0  0  0  0  0  0
   -2.6008   -0.2833   -0.1876 C   0  0  2  0  0  0  0  0  0  0  0  0
   -2.4717   -1.5552   -0.9921 C   0  0  0  0  0  0  0  0  0  0  0  0
   -3.7738   -2.0157   -1.5531 C   0  0  2  0  0  0  0  0  0  0  0  0
   -4.2911   -1.0364   -2.4898 N   0  0  0  0  0  0  0  0  0  0  0  0
   -4.7206   -2.2764   -0.4171 C   0  0  2  0  0  0  0  0  0  0  0  0
   -5.9777   -1.8315   -0.8490 O   0  0  0  0  0  0  0  0  0  0  0  0
   -1.5108   -0.1940    0.6425 O   0  0  0  0  0  0  0  0  0  0  0  0
   -0.7513    0.9145    0.5397 C   0  0  1  0  0  0  0  0  0  0  0  0
   -0.7162    1.7788    1.7863 C   0  0  0  0  0  0  0  0  0  0  0  0
    0.0698    3.0468    1.5297 C   0  0  1  0  0  0  0  0  0  0  0  0
    1.0712    3.2406    2.4871 O   0  0  0  0  0  0  0  0  0  0  0  0
    0.7569    3.0659    0.1815 C   0  0  0  0  0  0  0  0  0  0  0  0
    1.3956    1.7165    0.0152 C   0  0  0  0  0  0  0  0  0  0  0  0
    0.6367    0.5490    0.2000 C   0  0  0  0  0  0  0  0  0  0  0  0
    1.3152   -0.6225    0.0338 C   0  0  0  0  0  0  0  0  0  0  0  0
    0.4942   -1.7216    0.2359 O   0  0  0  0  0  0  0  0  0  0  0  0
    2.6325   -0.6680   -0.2887 C   0  0  0  0  0  0  0  0  0  0  0  0
    3.2186   -1.9908   -0.4329 C   0  0  0  0  0  0  0  0  0  0  0  0
    2.5530   -3.0409   -0.2703 O   0  0  0  0  0  0  0  0  0  0  0  0
    4.6252   -2.1864   -0.7774 C   0  0  0  0  0  0  0  0  0  0  0  0
    5.1722   -3.4308   -0.9119 C   0  0  0  0  0  0  0  0  0  0  0  0
    6.4921   -3.6053   -1.2352 C   0  0  0  0  0  0  0  0  0  0  0  0
    7.2430   -2.4610   -1.4186 C   0  0  0  0  0  0  0  0  0  0  0  0
    6.7343   -1.1783   -1.2934 C   0  0  0  0  0  0  0  0  0  0  0  0
    5.3851   -1.0401   -0.9630 C   0  0  0  0  0  0  0  0  0  0  0  0
    4.7941    0.2755   -0.8176 C   0  0  0  0  0  0  0  0  0  0  0  0
    5.4653    1.3301   -0.9816 O   0  0  0  0  0  0  0  0  0  0  0  0
    3.4012    0.4511   -0.4765 C   0  0  0  0  0  0  0  0  0  0  0  0
    2.7512    1.6514   -0.3167 C   0  0  0  0  0  0  0  0  0  0  0  0
    3.5208    2.8075   -0.5044 O   0  0  0  0  0  0  0  0  0  0  0  0
   -0.7971    4.2577    1.6029 C   0  0  0  0  0  0  0  0  0  0  0  0
   -2.0029    4.6099    0.8327 C   0  0  0  0  0  0  0  0  0  0  0  0
   -0.4222    5.0593    2.4386 O   0  0  0  0  0  0  0  0  0  0  0  0
   -6.2576   -1.4246    1.4229 H   0  0  0  0  0  0  0  0  0  0  0  0
   -5.0369   -0.9285    2.7310 H   0  0  0  0  0  0  0  0  0  0  0  0
   -5.3154   -2.6521    2.3233 H   0  0  0  0  0  0  0  0  0  0  0  0
   -3.3974   -2.2122    1.2047 H   0  0  0  0  0  0  0  0  0  0  0  0
   -2.7579    0.5548   -0.8782 H   0  0  0  0  0  0  0  0  0  0  0  0
   -2.0783   -2.4076   -0.3843 H   0  0  0  0  0  0  0  0  0  0  0  0
   -1.7565   -1.4148   -1.8269 H   0  0  0  0  0  0  0  0  0  0  0  0
   -3.6002   -2.9982   -2.0557 H   0  0  0  0  0  0  0  0  0  0  0  0
   -5.0106   -1.5246   -3.0875 H   0  0  0  0  0  0  0  0  0  0  0  0
   -4.7454   -0.2667   -1.9775 H   0  0  0  0  0  0  0  0  0  0  0  0
   -4.7656   -3.3771   -0.1667 H   0  0  0  0  0  0  0  0  0  0  0  0
   -6.0866   -0.8835   -0.5610 H   0  0  0  0  0  0  0  0  0  0  0  0
   -1.1145    1.6216   -0.2654 H   0  0  0  0  0  0  0  0  0  0  0  0
   -0.2261    1.2540    2.6248 H   0  0  0  0  0  0  0  0  0  0  0  0
   -1.7631    2.0859    1.9892 H   0  0  0  0  0  0  0  0  0  0  0  0
    1.3339    4.1763    2.5495 H   0  0  0  0  0  0  0  0  0  0  0  0
    0.0878    3.2076   -0.6687 H   0  0  0  0  0  0  0  0  0  0  0  0
    1.5500    3.8231    0.2431 H   0  0  0  0  0  0  0  0  0  0  0  0
    0.4428   -2.2432    1.0851 H   0  0  0  0  0  0  0  0  0  0  0  0
    4.5536   -4.3009   -0.7608 H   0  0  0  0  0  0  0  0  0  0  0  0
    6.9200   -4.5996   -1.3405 H   0  0  0  0  0  0  0  0  0  0  0  0
    8.3023   -2.5657   -1.6780 H   0  0  0  0  0  0  0  0  0  0  0  0
    7.3372   -0.2996   -1.4407 H   0  0  0  0  0  0  0  0  0  0  0  0
    4.0261    3.1360    0.3129 H   0  0  0  0  0  0  0  0  0  0  0  0
   -2.3204    3.8199    0.1279 H   0  0  0  0  0  0  0  0  0  0  0  0
   -2.8928    4.7892    1.5041 H   0  0  0  0  0  0  0  0  0  0  0  0
   -1.8920    5.5520    0.2647 H   0  0  0  0  0  0  0  0  0  0  0  0
  1  2  1  0
  2  3  1  0
  3  4  1  0
  4  5  1  0
  5  6  1  0
  6  7  1  0
  6  8  1  0
  8  9  1  0
  4 10  1  0
 10 11  1  0
 11 12  1  0
 12 13  1  0
 13 14  1  1
 13 15  1  0
 15 16  1  0
 16 17  2  0
 17 18  1  0
 18 19  1  0
 18 20  2  0
 20 21  1  0
 21 22  2  0
 21 23  1  0
 23 24  2  0
 24 25  1  0
 25 26  2  0
 26 27  1  0
 27 28  2  0
 28 29  1  0
 29 30  2  0
 29 31  1  0
 31 32  2  0
 32 33  1  0
 13 34  1  0
 34 35  1  0
 34 36  2  0
  8  2  1  0
 17 11  1  0
 31 20  1  0
 32 16  1  0
 28 23  1  0
  1 37  1  0
  1 38  1  0
  1 39  1  0
  2 40  1  1
  4 41  1  6
  5 42  1  0
  5 43  1  0
  6 44  1  6
  7 45  1  0
  7 46  1  0
  8 47  1  1
  9 48  1  0
 11 49  1  6
 12 50  1  0
 12 51  1  0
 14 52  1  0
 15 53  1  0
 15 54  1  0
 19 55  1  0
 24 56  1  0
 25 57  1  0
 26 58  1  0
 27 59  1  0
 33 60  1  0
 35 61  1  0
 35 62  1  0
 35 63  1  0
M  END
$$$$
