@<TRIPOS>MOLECULE
*****
 67 69 0 0 0
SMALL
GASTEIGER

@<TRIPOS>ATOM
      1 C          -5.1994    1.0061    1.1053 C.3     1  UNL1        0.1130
      2 C          -4.8789    0.9119    2.5841 C.3     1  UNL1        0.0730
      3 O          -3.9577   -0.0991    2.8464 O.3     1  UNL1       -0.3924
      4 O          -4.1029    1.2748    0.3353 O.3     1  UNL1       -0.3405
      5 C          -3.5267    0.2003   -0.2968 C.3     1  UNL1        0.1884
      6 O          -2.5024    0.7006   -1.0995 O.3     1  UNL1       -0.3401
      7 C          -1.2425    0.2413   -0.7361 C.3     1  UNL1        0.1184
      8 C          -0.3656    1.4422   -0.4774 C.3     1  UNL1        0.1134
      9 C          -0.4339    1.8512    0.9780 C.3     1  UNL1        0.0730
     10 O           0.2243    3.0527    1.2043 O.3     1  UNL1       -0.3924
     11 O           0.9344    1.2693   -0.9288 O.3     1  UNL1       -0.3405
     12 C           1.4563    0.0389   -0.6795 C.3     1  UNL1        0.1885
     13 O           2.7695   -0.0295   -1.1090 O.3     1  UNL1       -0.3383
     14 C           3.6740   -0.2453   -0.1049 C.3     1  UNL1        0.1370
     15 CA          4.7995    0.7498   -0.0556 C.3     1  UNL1        0.1934
     16 C           4.3362    2.1671    0.1145 C.3     1  UNL1        0.0913
     17 O           3.6087    2.6700   -0.9415 O.3     1  UNL1       -0.3906
     18 N           5.5833    0.4671    1.1829 N.2     1  UNL1       -0.0727
     19 C           5.8260   -0.8094    1.3753 C.2     1  UNL1        0.3498
     20 N           6.5682   -1.0733    2.5498 N.3     1  UNL1       -0.1309
     21 O           7.2344   -0.1265    3.2704 O.3     1  UNL1       -0.2095
     22 C           5.4326   -1.9578    0.5361 C.3     1  UNL1        0.1900
     23 O           6.5734   -2.2706   -0.2364 O.3     1  UNL1       -0.3775
     24 C           4.2516   -1.6607   -0.3110 C.3     1  UNL1        0.1229
     25 O           3.2185   -2.5518    0.0268 O.3     1  UNL1       -0.3859
     26 C           0.6921   -1.0864   -1.3439 C.3     1  UNL1        0.1341
     27 O           1.4030   -1.7405   -2.3330 O.3     1  UNL1       -0.3841
     28 C          -0.6238   -0.5245   -1.8826 C.3     1  UNL1        0.1144
     29 O          -1.4429   -1.5537   -2.3428 O.3     1  UNL1       -0.3864
     30 C          -4.4373   -0.5993   -1.1505 C.3     1  UNL1        0.1341
     31 O          -4.2597   -0.3271   -2.5272 O.3     1  UNL1       -0.3841
     32 C          -5.8944   -0.3332   -0.7913 C.3     1  UNL1        0.1141
     33 O          -6.6465   -1.4013   -1.2487 O.3     1  UNL1       -0.3864
     34 C          -5.9302   -0.2546    0.7186 C.3     1  UNL1        0.1119
     35 O          -7.2674   -0.1704    1.1226 O.3     1  UNL1       -0.3865
     36 H          -5.9143    1.8418    0.9810 H       1  UNL1        0.0647
     37 H          -4.4577    1.8474    3.0088 H       1  UNL1        0.0584
     38 H          -5.7867    0.7050    3.1863 H       1  UNL1        0.0584
     39 H          -4.3603   -0.9796    3.0235 H       1  UNL1        0.2095
     40 H          -3.0201   -0.4872    0.4423 H       1  UNL1        0.0938
     41 H          -1.2713   -0.4441    0.1333 H       1  UNL1        0.0651
     42 H          -0.7785    2.2847   -1.0693 H       1  UNL1        0.0647
     43 H           0.0371    1.0909    1.6405 H       1  UNL1        0.0584
     44 H          -1.5052    2.0038    1.2222 H       1  UNL1        0.0584
     45 H          -0.3162    3.8544    0.9823 H       1  UNL1        0.2095
     46 H           1.4634   -0.1059    0.4343 H       1  UNL1        0.0938
     47 H           3.1943   -0.2521    0.9179 H       1  UNL1        0.0669
     48 HA          5.4460    0.6786   -0.9523 H       1  UNL1        0.0878
     49 H1          5.2670    2.7861    0.2120 H       1  UNL1        0.0602
     50 H2          3.7993    2.2702    1.0870 H       1  UNL1        0.0602
     51 H           3.9206    2.1923   -1.7698 H       1  UNL1        0.2096
     52 H           6.6934   -2.0125    2.9996 H       1  UNL1        0.3480
     53 H           6.9659    0.7935    3.0124 H       1  UNL1        0.2712
     54 H           5.1960   -2.8007    1.2217 H       1  UNL1        0.0750
     55 H           7.3770   -2.3105    0.3084 H       1  UNL1        0.2107
     56 H           4.5079   -1.8567   -1.3577 H       1  UNL1        0.0653
     57 H           3.0013   -2.4015    0.9820 H       1  UNL1        0.2100
     58 H           0.4207   -1.8329   -0.5725 H       1  UNL1        0.0671
     59 H           1.1890   -1.4352   -3.2494 H       1  UNL1        0.2101
     60 H          -0.4236    0.2288   -2.6800 H       1  UNL1        0.0648
     61 H          -1.4026   -1.5448   -3.3319 H       1  UNL1        0.2100
     62 H          -4.2841   -1.6934   -1.0399 H       1  UNL1        0.0671
     63 H          -3.9076    0.6157   -2.5528 H       1  UNL1        0.2101
     64 H          -6.2349    0.6263   -1.2342 H       1  UNL1        0.0648
     65 H          -7.4000   -1.0706   -1.8143 H       1  UNL1        0.2100
     66 H          -5.4654   -1.1424    1.1607 H       1  UNL1        0.0647
     67 H          -7.8240   -0.6777    0.4637 H       1  UNL1        0.2100
@<TRIPOS>BOND
     1     1     2    1
     2     2     3    1
     3     1     4    1
     4     4     5    1
     5     5     6    1
     6     6     7    1
     7     7     8    1
     8     8     9    1
     9     9    10    1
    10     8    11    1
    11    11    12    1
    12    12    13    1
    13    13    14    1
    14    14    15    1
    15    15    16    1
    16    16    17    1
    17    15    18    1
    18    18    19    2
    19    19    20    1
    20    20    21    1
    21    19    22    1
    22    22    23    1
    23    22    24    1
    24    24    25    1
    25    12    26    1
    26    26    27    1
    27    26    28    1
    28    28    29    1
    29     5    30    1
    30    30    31    1
    31    30    32    1
    32    32    33    1
    33    32    34    1
    34    34    35    1
    35    34     1    1
    36    28     7    1
    37    24    14    1
    38     1    36    1
    39     2    37    1
    40     2    38    1
    41     3    39    1
    42     5    40    1
    43     7    41    1
    44     8    42    1
    45     9    43    1
    46     9    44    1
    47    10    45    1
    48    12    46    1
    49    14    47    1
    50    15    48    1
    51    16    49    1
    52    16    50    1
    53    17    51    1
    54    20    52    1
    55    21    53    1
    56    22    54    1
    57    23    55    1
    58    24    56    1
    59    25    57    1
    60    26    58    1
    61    27    59    1
    62    28    60    1
    63    29    61    1
    64    30    62    1
    65    31    63    1
    66    32    64    1
    67    33    65    1
    68    34    66    1
    69    35    67    1
