@<TRIPOS>MOLECULE
*****
 31 32 0 0 0
SMALL
GASTEIGER

@<TRIPOS>ATOM
      1 N          -5.6937   -3.8331   -0.1337 N.1     1  UNL1       -0.1909
      2 C          -5.1173   -2.9462   -0.5885 C.1     1  UNL1        0.0992
      3 C          -4.3745   -1.8232   -1.1551 C.ar    1  UNL1        0.0523
      4 C          -4.9031   -1.0795   -2.1838 C.ar    1  UNL1       -0.0443
      5 C          -4.1821   -0.0289   -2.6973 C.ar    1  UNL1       -0.0600
      6 C          -2.9435    0.3136   -2.2221 C.ar    1  UNL1       -0.0545
      7 C          -2.4131   -0.4470   -1.1765 C.ar    1  UNL1       -0.0237
      8 C          -1.0988   -0.0663   -0.6882 C.2     1  UNL1       -0.0496
      9 C          -0.5212   -0.7198    0.2881 C.2     1  UNL1        0.0010
     10 C           0.8048   -0.3746    0.8167 C.2     1  UNL1        0.2411
     11 O           1.2819   -1.0559    1.7546 O.2     1  UNL1       -0.2705
     12 N           1.5691    0.6992    0.3096 N.am    1  UNL1       -0.2819
     13 C           2.8385    0.9392    0.8997 C.ar    1  UNL1        0.0350
     14 C           3.9744    0.3322    0.4113 C.ar    1  UNL1       -0.0404
     15 C           5.1814    0.6059    1.0285 C.ar    1  UNL1       -0.0586
     16 C           5.2686    1.4618    2.1074 C.ar    1  UNL1       -0.0433
     17 C           4.1182    2.0462    2.5645 C.ar    1  UNL1        0.0427
     18 CL          4.1956    3.1307    3.9239 Cl      1  UNL1       -0.0835
     19 C           2.8968    1.7981    1.9755 C.ar    1  UNL1       -0.0221
     20 C          -3.1299   -1.4899   -0.6675 C.ar    1  UNL1       -0.0372
     21 H          -5.8892   -1.3551   -2.5595 H       1  UNL1        0.0630
     22 H          -4.6611    0.5207   -3.5141 H       1  UNL1        0.0618
     23 H          -2.4078    1.1360   -2.6424 H       1  UNL1        0.0623
     24 H          -0.5781    0.7950   -1.1543 H       1  UNL1        0.0625
     25 H          -1.0312   -1.5529    0.7348 H       1  UNL1        0.0670
     26 H           1.2209    1.3152   -0.4851 H       1  UNL1        0.1551
     27 H           3.9689   -0.3457   -0.4286 H       1  UNL1        0.0636
     28 H           6.1223    0.1633    0.6984 H       1  UNL1        0.0619
     29 H           6.2297    1.6606    2.5752 H       1  UNL1        0.0632
     30 H           2.0315    2.2946    2.3898 H       1  UNL1        0.0651
     31 H          -2.7581   -2.0944    0.1316 H       1  UNL1        0.0636
@<TRIPOS>BOND
     1     1     2    3
     2     2     3    1
     3     3     4   ar
     4     4     5   ar
     5     5     6   ar
     6     6     7   ar
     7     7     8    1
     8     8     9    2
     9     9    10    1
    10    10    11    2
    11    10    12   am
    12    12    13    1
    13    13    14   ar
    14    14    15   ar
    15    15    16   ar
    16    16    17   ar
    17    17    18    1
    18    17    19   ar
    19     7    20   ar
    20    20     3   ar
    21    19    13   ar
    22     4    21    1
    23     5    22    1
    24     6    23    1
    25     8    24    1
    26     9    25    1
    27    12    26    1
    28    14    27    1
    29    15    28    1
    30    16    29    1
    31    19    30    1
    32    20    31    1
