
     RDKit          3D

 31 32  0  0  0  0  0  0  0  0999 V2000
   -5.6937   -3.8331   -0.1337 N   0  0  0  0  0  0  0  0  0  0  0  0
   -5.1173   -2.9462   -0.5885 C   0  0  0  0  0  0  0  0  0  0  0  0
   -4.3745   -1.8232   -1.1551 C   0  0  0  0  0  0  0  0  0  0  0  0
   -4.9031   -1.0795   -2.1838 C   0  0  0  0  0  0  0  0  0  0  0  0
   -4.1821   -0.0289   -2.6973 C   0  0  0  0  0  0  0  0  0  0  0  0
   -2.9435    0.3136   -2.2221 C   0  0  0  0  0  0  0  0  0  0  0  0
   -2.4131   -0.4470   -1.1765 C   0  0  0  0  0  0  0  0  0  0  0  0
   -1.0988   -0.0663   -0.6882 C   0  0  0  0  0  0  0  0  0  0  0  0
   -0.5212   -0.7198    0.2881 C   0  0  0  0  0  0  0  0  0  0  0  0
    0.8048   -0.3746    0.8167 C   0  0  0  0  0  0  0  0  0  0  0  0
    1.2819   -1.0559    1.7546 O   0  0  0  0  0  0  0  0  0  0  0  0
    1.5691    0.6992    0.3096 N   0  0  0  0  0  0  0  0  0  0  0  0
    2.8385    0.9392    0.8997 C   0  0  0  0  0  0  0  0  0  0  0  0
    3.9744    0.3322    0.4113 C   0  0  0  0  0  0  0  0  0  0  0  0
    5.1814    0.6059    1.0285 C   0  0  0  0  0  0  0  0  0  0  0  0
    5.2686    1.4618    2.1074 C   0  0  0  0  0  0  0  0  0  0  0  0
    4.1182    2.0462    2.5645 C   0  0  0  0  0  0  0  0  0  0  0  0
    4.1956    3.1307    3.9239 Cl  0  0  0  0  0  0  0  0  0  0  0  0
    2.8968    1.7981    1.9755 C   0  0  0  0  0  0  0  0  0  0  0  0
   -3.1299   -1.4899   -0.6675 C   0  0  0  0  0  0  0  0  0  0  0  0
   -5.8892   -1.3551   -2.5595 H   0  0  0  0  0  0  0  0  0  0  0  0
   -4.6611    0.5207   -3.5141 H   0  0  0  0  0  0  0  0  0  0  0  0
   -2.4078    1.1360   -2.6424 H   0  0  0  0  0  0  0  0  0  0  0  0
   -0.5781    0.7950   -1.1543 H   0  0  0  0  0  0  0  0  0  0  0  0
   -1.0312   -1.5529    0.7348 H   0  0  0  0  0  0  0  0  0  0  0  0
    1.2209    1.3152   -0.4851 H   0  0  0  0  0  0  0  0  0  0  0  0
    3.9689   -0.3457   -0.4286 H   0  0  0  0  0  0  0  0  0  0  0  0
    6.1223    0.1633    0.6984 H   0  0  0  0  0  0  0  0  0  0  0  0
    6.2297    1.6606    2.5752 H   0  0  0  0  0  0  0  0  0  0  0  0
    2.0315    2.2946    2.3898 H   0  0  0  0  0  0  0  0  0  0  0  0
   -2.7581   -2.0944    0.1316 H   0  0  0  0  0  0  0  0  0  0  0  0
  1  2  3  0
  2  3  1  0
  3  4  2  0
  4  5  1  0
  5  6  2  0
  6  7  1  0
  7  8  1  0
  8  9  2  0
  9 10  1  0
 10 11  2  0
 10 12  1  0
 12 13  1  0
 13 14  2  0
 14 15  1  0
 15 16  2  0
 16 17  1  0
 17 18  1  0
 17 19  2  0
  7 20  2  0
 20  3  1  0
 19 13  1  0
  4 21  1  0
  5 22  1  0
  6 23  1  0
  8 24  1  0
  9 25  1  0
 12 26  1  0
 14 27  1  0
 15 28  1  0
 16 29  1  0
 19 30  1  0
 20 31  1  0
M  END
$$$$
