@<TRIPOS>MOLECULE
*****
 35 38 0 0 0
SMALL
GASTEIGER

@<TRIPOS>ATOM
      1 C          -0.9586    0.2861    0.3988 C.3     1  UNL1        0.1040
      2 C          -1.6825   -0.8761   -0.2631 C.3     1  UNL1        0.0011
      3 C          -3.1451   -0.6734   -0.1558 C.ar    1  UNL1       -0.0239
      4 C          -3.7774    0.5436   -0.0096 C.ar    1  UNL1        0.0367
      5 N          -2.9388    1.7078    0.0421 N.am    1  UNL1       -0.2837
      6 C          -1.5262    1.5936   -0.0543 C.2     1  UNL1        0.2379
      7 O          -0.9236    2.6051   -0.5089 O.2     1  UNL1       -0.2734
      8 C          -5.1561    0.5981    0.0794 C.ar    1  UNL1       -0.0402
      9 C          -5.9372   -0.5379    0.0267 C.ar    1  UNL1       -0.0600
     10 C          -5.3381   -1.7680   -0.1187 C.ar    1  UNL1       -0.0614
     11 C          -3.9517   -1.8065   -0.2067 C.ar    1  UNL1       -0.0567
     12 N           0.4528    0.2694    0.0710 N.am    1  UNL1       -0.2985
     13 C           1.4083    0.1824    1.1165 C.2     1  UNL1        0.2610
     14 O           0.9252    0.1243    2.2980 O.2     1  UNL1       -0.2686
     15 C           2.8414    0.1638    0.8099 C.ar    1  UNL1        0.1032
     16 C           3.4807    0.2202   -0.4102 C.ar    1  UNL1       -0.0236
     17 C           4.8427    0.1731   -0.2071 C.ar    1  UNL1        0.0092
     18 C           4.9541    0.0894    1.1481 C.ar    1  UNL1        0.0867
     19 N           3.7569    0.0819    1.7890 N.ar    1  UNL1       -0.3451
     20 S           6.7463    0.0238    1.4756 S.2     1  UNL1       -0.0591
     21 C           7.1867    0.1238   -0.3917 C.ar    1  UNL1        0.0805
     22 CL          8.8226    0.1102   -0.8680 Cl      1  UNL1       -0.0757
     23 C           5.9623    0.1892   -0.9601 C.ar    1  UNL1       -0.0269
     24 H          -1.1286    0.2254    1.4872 H       1  UNL1        0.0598
     25 H          -1.3752   -0.9574   -1.3356 H       1  UNL1        0.0336
     26 H          -1.4489   -1.7985    0.3087 H       1  UNL1        0.0336
     27 H          -3.4661    2.6037    0.1535 H       1  UNL1        0.1549
     28 H          -5.6248    1.5490    0.1921 H       1  UNL1        0.0636
     29 H          -7.0171   -0.4499    0.1004 H       1  UNL1        0.0618
     30 H          -5.8905   -2.6883   -0.1663 H       1  UNL1        0.0618
     31 H          -3.4779   -2.7914   -0.3228 H       1  UNL1        0.0621
     32 H           0.7148    0.3228   -0.9374 H       1  UNL1        0.1498
     33 H           2.8985    0.2894   -1.3196 H       1  UNL1        0.0646
     34 H           3.7249    0.0202    2.8382 H       1  UNL1        0.1665
     35 H           6.0462    0.2512   -2.0355 H       1  UNL1        0.0644
@<TRIPOS>BOND
     1     1     2    1
     2     2     3    1
     3     3     4   ar
     4     4     5    1
     5     5     6   am
     6     6     7    2
     7     4     8   ar
     8     8     9   ar
     9     9    10   ar
    10    10    11   ar
    11     1    12    1
    12    12    13   am
    13    13    14    2
    14    13    15    1
    15    15    16   ar
    16    16    17   ar
    17    17    18   ar
    18    18    19   ar
    19    18    20   ar
    20    20    21   ar
    21    21    22    1
    22    21    23   ar
    23     6     1    1
    24    19    15   ar
    25    11     3   ar
    26    23    17   ar
    27     1    24    1
    28     2    25    1
    29     2    26    1
    30     5    27    1
    31     8    28    1
    32     9    29    1
    33    10    30    1
    34    11    31    1
    35    12    32    1
    36    16    33    1
    37    19    34    1
    38    23    35    1
