@<TRIPOS>MOLECULE
*****
 33 33 0 0 0
SMALL
GASTEIGER

@<TRIPOS>ATOM
      1 C           1.4414   -2.8963   -0.2448 C.3     1  UNL1       -0.0597
      2 C           0.3006   -1.9495   -0.1634 C.3     1  UNL1       -0.0096
      3 C           0.6553   -0.5471    0.0137 C.2     1  UNL1        0.0868
      4 N           1.8443   -0.0766    0.1028 N.2     1  UNL1       -0.0751
      5 N           3.0123   -0.7880    0.0503 N.pl3   1  UNL1        0.0444
      6 C           4.1210   -0.1169   -0.1278 C.cat   1  UNL1        0.4041
      7 N           5.3055   -0.9086   -0.1743 N.pl3   1  UNL1       -0.2874
      8 N           4.1717    1.2775   -0.2661 N.pl3   1  UNL1       -0.2874
      9 C          -0.4401    0.4302    0.0999 C.ar    1  UNL1        0.0001
     10 C          -0.2077    1.7736    0.2665 C.ar    1  UNL1       -0.0527
     11 C          -1.2643    2.6490    0.3417 C.ar    1  UNL1       -0.0603
     12 C          -2.5782    2.2420    0.2568 C.ar    1  UNL1       -0.0469
     13 C          -2.8249    0.9027    0.0902 C.ar    1  UNL1        0.0653
     14 C          -4.1855    0.4002   -0.0073 C.2     1  UNL1        0.3081
     15 N          -4.5307   -0.7766    0.3862 N.2     1  UNL1       -0.0994
     16 N          -5.1871    1.2352   -0.5594 N.pl3   1  UNL1       -0.2466
     17 C          -1.7667    0.0249    0.0148 C.ar    1  UNL1       -0.0379
     18 H           1.9864   -2.9494    0.7122 H       1  UNL1        0.0233
     19 H           1.0405   -3.9127   -0.4429 H       1  UNL1        0.0233
     20 H           2.0868   -2.6483   -1.1099 H       1  UNL1        0.0233
     21 H          -0.3864   -2.0950   -1.0438 H       1  UNL1        0.0327
     22 H          -0.3282   -2.2564    0.7209 H       1  UNL1        0.0327
     23 H           5.8583   -1.0167    0.7081 H       1  UNL1        0.2547
     24 H           5.5515   -1.3315   -1.0783 H       1  UNL1        0.2547
     25 H           4.9626    1.6803   -0.8263 H       1  UNL1        0.2547
     26 H           3.4912    1.9569    0.1394 H       1  UNL1        0.2547
     27 H           0.8327    2.1019    0.3344 H       1  UNL1        0.0624
     28 H          -1.0194    3.6975    0.4735 H       1  UNL1        0.0618
     29 H          -3.3703    2.9839    0.3233 H       1  UNL1        0.0626
     30 H          -5.4790   -1.1554    0.3296 H       1  UNL1        0.3633
     31 H          -5.3836    2.1776   -0.1644 H       1  UNL1        0.2884
     32 H          -5.7448    0.9202   -1.3712 H       1  UNL1        0.2884
     33 H          -1.9652   -1.0289   -0.1163 H       1  UNL1        0.0632
@<TRIPOS>BOND
     1     1     2    1
     2     2     3    1
     3     3     4    2
     4     4     5    1
     5     5     6    2
     6     6     7    1
     7     6     8    1
     8     3     9    1
     9     9    10   ar
    10    10    11   ar
    11    11    12   ar
    12    12    13   ar
    13    13    14    1
    14    14    15    2
    15    14    16    1
    16    13    17   ar
    17    17     9   ar
    18     1    18    1
    19     1    19    1
    20     1    20    1
    21     2    21    1
    22     2    22    1
    23     7    23    1
    24     7    24    1
    25     8    25    1
    26     8    26    1
    27    10    27    1
    28    11    28    1
    29    12    29    1
    30    15    30    1
    31    16    31    1
    32    16    32    1
    33    17    33    1
