
     RDKit          3D

 33 33  0  0  0  0  0  0  0  0999 V2000
    1.4414   -2.8963   -0.2448 C   0  0  0  0  0  0  0  0  0  0  0  0
    0.3006   -1.9495   -0.1634 C   0  0  0  0  0  0  0  0  0  0  0  0
    0.6553   -0.5471    0.0137 C   0  0  0  0  0  0  0  0  0  0  0  0
    1.8443   -0.0766    0.1028 N   0  0  0  0  0  0  0  0  0  0  0  0
    3.0123   -0.7880    0.0503 N   0  0  0  0  0  0  0  0  0  0  0  0
    4.1210   -0.1169   -0.1278 C   0  0  0  0  0  0  0  0  0  0  0  0
    5.3055   -0.9086   -0.1743 N   0  0  0  0  0  0  0  0  0  0  0  0
    4.1717    1.2775   -0.2661 N   0  0  0  0  0  0  0  0  0  0  0  0
   -0.4401    0.4302    0.0999 C   0  0  0  0  0  0  0  0  0  0  0  0
   -0.2077    1.7736    0.2665 C   0  0  0  0  0  0  0  0  0  0  0  0
   -1.2643    2.6490    0.3417 C   0  0  0  0  0  0  0  0  0  0  0  0
   -2.5782    2.2420    0.2568 C   0  0  0  0  0  0  0  0  0  0  0  0
   -2.8249    0.9027    0.0902 C   0  0  0  0  0  0  0  0  0  0  0  0
   -4.1855    0.4002   -0.0073 C   0  0  0  0  0  0  0  0  0  0  0  0
   -4.5307   -0.7766    0.3862 N   0  0  0  0  0  0  0  0  0  0  0  0
   -5.1871    1.2352   -0.5594 N   0  0  0  0  0  0  0  0  0  0  0  0
   -1.7667    0.0249    0.0148 C   0  0  0  0  0  0  0  0  0  0  0  0
    1.9864   -2.9494    0.7122 H   0  0  0  0  0  0  0  0  0  0  0  0
    1.0405   -3.9127   -0.4429 H   0  0  0  0  0  0  0  0  0  0  0  0
    2.0868   -2.6483   -1.1099 H   0  0  0  0  0  0  0  0  0  0  0  0
   -0.3864   -2.0950   -1.0438 H   0  0  0  0  0  0  0  0  0  0  0  0
   -0.3282   -2.2564    0.7209 H   0  0  0  0  0  0  0  0  0  0  0  0
    5.8583   -1.0167    0.7081 H   0  0  0  0  0  0  0  0  0  0  0  0
    5.5515   -1.3315   -1.0783 H   0  0  0  0  0  0  0  0  0  0  0  0
    4.9626    1.6803   -0.8263 H   0  0  0  0  0  0  0  0  0  0  0  0
    3.4912    1.9569    0.1394 H   0  0  0  0  0  0  0  0  0  0  0  0
    0.8327    2.1019    0.3344 H   0  0  0  0  0  0  0  0  0  0  0  0
   -1.0194    3.6975    0.4735 H   0  0  0  0  0  0  0  0  0  0  0  0
   -3.3703    2.9839    0.3233 H   0  0  0  0  0  0  0  0  0  0  0  0
   -5.4790   -1.1554    0.3296 H   0  0  0  0  0  0  0  0  0  0  0  0
   -5.3836    2.1776   -0.1644 H   0  0  0  0  0  0  0  0  0  0  0  0
   -5.7448    0.9202   -1.3712 H   0  0  0  0  0  0  0  0  0  0  0  0
   -1.9652   -1.0289   -0.1163 H   0  0  0  0  0  0  0  0  0  0  0  0
  1  2  1  0
  2  3  1  0
  3  4  2  3
  4  5  1  0
  5  6  2  3
  6  7  1  0
  6  8  1  0
  3  9  1  0
  9 10  2  0
 10 11  1  0
 11 12  2  0
 12 13  1  0
 13 14  1  0
 14 15  2  3
 14 16  1  0
 13 17  2  0
 17  9  1  0
  1 18  1  0
  1 19  1  0
  1 20  1  0
  2 21  1  0
  2 22  1  0
  7 23  1  0
  7 24  1  0
  8 25  1  0
  8 26  1  0
 10 27  1  0
 11 28  1  0
 12 29  1  0
 15 30  1  0
 16 31  1  0
 16 32  1  0
 17 33  1  0
M  END
$$$$
