@<TRIPOS>MOLECULE
*****
 57 62 0 0 0
SMALL
GASTEIGER

@<TRIPOS>ATOM
      1 C          -6.2024   -1.0640    1.7958 C.3     1  UNL1        0.0805
      2 O          -5.0790   -0.9717    0.9531 O.3     1  UNL1       -0.4782
      3 C          -4.5438   -2.0989    0.3535 C.ar    1  UNL1        0.2408
      4 N          -5.1026   -3.2879    0.5793 N.ar    1  UNL1       -0.2195
      5 C          -4.6389   -4.4294    0.0319 C.ar    1  UNL1        0.0315
      6 C          -3.5368   -4.3765   -0.8012 C.ar    1  UNL1       -0.0413
      7 C          -2.9320   -3.1538   -1.0566 C.ar    1  UNL1       -0.0296
      8 C          -3.4342   -2.0099   -0.4793 C.ar    1  UNL1        0.1275
      9 N          -2.8646   -0.7314   -0.6983 N.ar    1  UNL1       -0.2219
     10 N          -3.4442    0.4011   -1.0434 N.ar    1  UNL1       -0.1704
     11 C          -2.5799    1.3915   -1.1538 C.ar    1  UNL1        0.0664
     12 C          -2.8182    2.8062   -1.5173 C.3     1  UNL1       -0.0202
     13 C          -1.3062    0.8744   -0.8554 C.ar    1  UNL1        0.0309
     14 C          -1.5342   -0.4451   -0.5796 C.ar    1  UNL1        0.1353
     15 C          -0.2450   -1.0438   -0.2661 C.2     1  UNL1        0.2715
     16 O          -0.0836   -2.2677    0.0410 O.2     1  UNL1       -0.2679
     17 N           0.7557   -0.0374   -0.3656 N.am    1  UNL1       -0.2389
     18 C           2.1280   -0.3296   -0.1354 C.ar    1  UNL1        0.1313
     19 C           2.6471   -0.2430    1.1259 C.ar    1  UNL1       -0.0161
     20 C           4.0021   -0.5356    1.3082 C.ar    1  UNL1       -0.0164
     21 C           4.5994   -0.4508    2.6701 C.3     1  UNL1       -0.0374
     22 C           4.8025   -0.9039    0.2447 C.ar    1  UNL1        0.1345
     23 N           6.1218   -1.2353    0.1434 N.ar    1  UNL1       -0.1276
     24 N           6.3386   -1.5008   -1.1377 N.ar    1  UNL1       -0.0635
     25 N           5.2110   -1.3481   -1.8339 N.ar    1  UNL1       -0.2297
     26 C           5.0834   -1.5551   -3.2565 C.3     1  UNL1        0.0341
     27 C           4.2211   -0.9729   -0.9996 C.ar    1  UNL1        0.1803
     28 N           2.8975   -0.6859   -1.1712 N.ar    1  UNL1       -0.2108
     29 C           0.1144    1.1759   -0.7222 C.3     1  UNL1        0.0867
     30 C           0.3902    2.3259    0.1599 C.ar    1  UNL1       -0.0220
     31 C           0.7150    3.5425   -0.4232 C.ar    1  UNL1       -0.0551
     32 C           0.9861    4.6815    0.3068 C.ar    1  UNL1       -0.0431
     33 C           0.9352    4.6220    1.6859 C.ar    1  UNL1        0.0410
     34 CL          1.2758    6.0560    2.6271 Cl      1  UNL1       -0.0835
     35 C           0.6140    3.4227    2.2937 C.ar    1  UNL1       -0.0431
     36 C           0.3469    2.2944    1.5169 C.ar    1  UNL1       -0.0551
     37 H          -5.9302   -1.4327    2.8094 H       1  UNL1        0.0660
     38 H          -6.9385   -1.7405    1.2869 H       1  UNL1        0.0660
     39 H          -6.7070   -0.0638    1.8368 H       1  UNL1        0.0660
     40 H          -5.1307   -5.3808    0.2467 H       1  UNL1        0.0831
     41 H          -3.1248   -5.2568   -1.2650 H       1  UNL1        0.0633
     42 H          -2.0679   -3.0445   -1.6983 H       1  UNL1        0.0641
     43 H          -3.9051    2.9701   -1.5431 H       1  UNL1        0.0293
     44 H          -2.3523    3.0967   -2.4768 H       1  UNL1        0.0293
     45 H          -2.4366    3.4446   -0.6706 H       1  UNL1        0.0293
     46 H           2.0761    0.0357    1.9958 H       1  UNL1        0.0655
     47 H           5.0770    0.5630    2.7766 H       1  UNL1        0.0278
     48 H           5.4099   -1.1775    2.7673 H       1  UNL1        0.0278
     49 H           3.8493   -0.5764    3.4720 H       1  UNL1        0.0278
     50 H           4.2857   -0.8991   -3.6449 H       1  UNL1        0.0474
     51 H           6.0557   -1.2922   -3.7229 H       1  UNL1        0.0474
     52 H           4.8337   -2.6313   -3.4203 H       1  UNL1        0.0474
     53 H           0.4779    1.4244   -1.7674 H       1  UNL1        0.0606
     54 H           0.7658    3.6309   -1.5126 H       1  UNL1        0.0621
     55 H           1.2389    5.6246   -0.1859 H       1  UNL1        0.0632
     56 H           0.5815    3.4036    3.3597 H       1  UNL1        0.0632
     57 H           0.1013    1.3864    2.0155 H       1  UNL1        0.0621
@<TRIPOS>BOND
     1     1     2    1
     2     2     3    1
     3     3     4   ar
     4     4     5   ar
     5     5     6   ar
     6     6     7   ar
     7     7     8   ar
     8     8     9    1
     9     9    10   ar
    10    10    11   ar
    11    11    12    1
    12    11    13   ar
    13    13    14   ar
    14    14    15    1
    15    15    16    2
    16    15    17   am
    17    17    18    1
    18    18    19   ar
    19    19    20   ar
    20    20    21    1
    21    20    22   ar
    22    22    23   ar
    23    23    24   ar
    24    24    25   ar
    25    25    26    1
    26    25    27   ar
    27    27    28   ar
    28    17    29    1
    29    29    30    1
    30    30    31   ar
    31    31    32   ar
    32    32    33   ar
    33    33    34    1
    34    33    35   ar
    35    35    36   ar
    36     8     3   ar
    37    14     9   ar
    38    28    18   ar
    39    36    30   ar
    40    29    13    1
    41    27    22   ar
    42     1    37    1
    43     1    38    1
    44     1    39    1
    45     5    40    1
    46     6    41    1
    47     7    42    1
    48    12    43    1
    49    12    44    1
    50    12    45    1
    51    19    46    1
    52    21    47    1
    53    21    48    1
    54    21    49    1
    55    26    50    1
    56    26    51    1
    57    26    52    1
    58    29    53    1
    59    31    54    1
    60    32    55    1
    61    35    56    1
    62    36    57    1
