
     RDKit          3D

 49 52  0  0  0  0  0  0  0  0999 V2000
   -1.2982    0.1660    2.7411 N   0  0  0  0  0  0  0  0  0  0  0  0
   -1.4043    0.8525    1.4499 C   0  0  1  0  0  0  0  0  0  0  0  0
   -0.0064    1.0572    0.8550 C   0  0  0  0  0  0  0  0  0  0  0  0
   -0.0052    0.2938   -0.3582 N   0  0  0  0  0  0  0  0  0  0  0  0
    1.1110   -0.2897   -0.9832 C   0  0  0  0  0  0  0  0  0  0  0  0
    1.0057   -1.0019   -2.1434 N   0  0  0  0  0  0  0  0  0  0  0  0
    2.1092   -1.5370   -2.6948 C   0  0  0  0  0  0  0  0  0  0  0  0
    3.3306   -1.4097   -2.1616 N   0  0  0  0  0  0  0  0  0  0  0  0
    3.4578   -0.7086   -1.0131 C   0  0  0  0  0  0  0  0  0  0  0  0
    4.7143   -0.5263   -0.3829 N   0  0  0  0  0  0  0  0  0  0  0  0
    5.9709   -1.0473   -0.8706 C   0  0  0  0  0  0  0  0  0  0  0  0
    6.9523   -0.0092   -0.3106 C   0  0  0  0  0  0  0  0  0  0  0  0
    6.4266    0.1259    1.1078 C   0  0  0  0  0  0  0  0  0  0  0  0
    6.8811    1.2776    1.7146 F   0  0  0  0  0  0  0  0  0  0  0  0
    6.7215   -1.0117    1.8021 F   0  0  0  0  0  0  0  0  0  0  0  0
    4.9176    0.2099    0.8422 C   0  0  0  0  0  0  0  0  0  0  0  0
    2.3479   -0.1780   -0.4705 N   0  0  0  0  0  0  0  0  0  0  0  0
   -1.3660    0.2389   -0.8147 C   0  0  0  0  0  0  0  0  0  0  0  0
   -2.0864   -0.0977    0.4948 C   0  0  2  0  0  0  0  0  0  0  0  0
   -3.4934    0.0717    0.4097 N   0  0  0  0  0  0  0  0  0  0  0  0
   -4.1268    1.3285    0.0740 C   0  0  0  0  0  0  0  0  0  0  0  0
   -5.4761    1.1161   -0.5575 C   0  0  0  0  0  0  0  0  0  0  0  0
   -6.0376    2.3610   -0.7705 F   0  0  0  0  0  0  0  0  0  0  0  0
   -5.3119    0.4873   -1.7902 F   0  0  0  0  0  0  0  0  0  0  0  0
   -6.4176    0.3170    0.2844 C   0  0  0  0  0  0  0  0  0  0  0  0
   -5.8050   -0.8377    0.9883 C   0  0  0  0  0  0  0  0  0  0  0  0
   -4.3570   -1.0295    0.6609 C   0  0  0  0  0  0  0  0  0  0  0  0
   -3.8458   -2.1969    0.5960 O   0  0  0  0  0  0  0  0  0  0  0  0
   -0.6129   -0.6304    2.5760 H   0  0  0  0  0  0  0  0  0  0  0  0
   -2.2318   -0.3114    2.8785 H   0  0  0  0  0  0  0  0  0  0  0  0
   -1.8801    1.8288    1.5257 H   0  0  0  0  0  0  0  0  0  0  0  0
    0.7328    0.7070    1.5989 H   0  0  0  0  0  0  0  0  0  0  0  0
    0.1436    2.1307    0.5788 H   0  0  0  0  0  0  0  0  0  0  0  0
    2.0577   -2.1171   -3.6307 H   0  0  0  0  0  0  0  0  0  0  0  0
    6.0284   -1.1234   -1.9583 H   0  0  0  0  0  0  0  0  0  0  0  0
    6.2140   -1.9914   -0.3365 H   0  0  0  0  0  0  0  0  0  0  0  0
    6.7681    0.9682   -0.8325 H   0  0  0  0  0  0  0  0  0  0  0  0
    7.9872   -0.3435   -0.3628 H   0  0  0  0  0  0  0  0  0  0  0  0
    4.3382   -0.1848    1.6940 H   0  0  0  0  0  0  0  0  0  0  0  0
    4.6590    1.2814    0.7521 H   0  0  0  0  0  0  0  0  0  0  0  0
   -1.5495   -0.5246   -1.5904 H   0  0  0  0  0  0  0  0  0  0  0  0
   -1.6435    1.2673   -1.1560 H   0  0  0  0  0  0  0  0  0  0  0  0
   -1.7644   -1.1176    0.7613 H   0  0  0  0  0  0  0  0  0  0  0  0
   -4.2914    1.8876    1.0217 H   0  0  0  0  0  0  0  0  0  0  0  0
   -3.5215    1.9187   -0.6500 H   0  0  0  0  0  0  0  0  0  0  0  0
   -7.2174   -0.0943   -0.3993 H   0  0  0  0  0  0  0  0  0  0  0  0
   -6.9749    0.9381    1.0201 H   0  0  0  0  0  0  0  0  0  0  0  0
   -6.2958   -1.8092    0.7749 H   0  0  0  0  0  0  0  0  0  0  0  0
   -5.8547   -0.7021    2.0862 H   0  0  0  0  0  0  0  0  0  0  0  0
  1  2  1  0
  2  3  1  0
  3  4  1  0
  4  5  1  0
  5  6  2  0
  6  7  1  0
  7  8  2  0
  8  9  1  0
  9 10  1  0
 10 11  1  0
 11 12  1  0
 12 13  1  0
 13 14  1  0
 13 15  1  0
 13 16  1  0
  9 17  2  0
  4 18  1  0
 18 19  1  0
 19 20  1  0
 20 21  1  0
 21 22  1  0
 22 23  1  0
 22 24  1  0
 22 25  1  0
 25 26  1  0
 26 27  1  0
 27 28  2  0
 19  2  1  0
 27 20  1  0
 17  5  1  0
 16 10  1  0
  1 29  1  0
  1 30  1  0
  2 31  1  1
  3 32  1  0
  3 33  1  0
  7 34  1  0
 11 35  1  0
 11 36  1  0
 12 37  1  0
 12 38  1  0
 16 39  1  0
 16 40  1  0
 18 41  1  0
 18 42  1  0
 19 43  1  1
 21 44  1  0
 21 45  1  0
 25 46  1  0
 25 47  1  0
 26 48  1  0
 26 49  1  0
M  END
$$$$
