@<TRIPOS>MOLECULE
*****
 49 52 0 0 0
SMALL
GASTEIGER

@<TRIPOS>ATOM
      1 N          -1.2982    0.1660    2.7411 N.3     1  UNL1       -0.3244
      2 C          -1.4043    0.8525    1.4499 C.3     1  UNL1        0.0411
      3 C          -0.0064    1.0572    0.8550 C.3     1  UNL1        0.0319
      4 N          -0.0052    0.2938   -0.3582 N.pl3   1  UNL1       -0.2962
      5 C           1.1110   -0.2897   -0.9832 C.ar    1  UNL1        0.2222
      6 N           1.0057   -1.0019   -2.1434 N.ar    1  UNL1       -0.2028
      7 C           2.1092   -1.5370   -2.6948 C.ar    1  UNL1        0.1232
      8 N           3.3306   -1.4097   -2.1616 N.ar    1  UNL1       -0.2028
      9 C           3.4578   -0.7086   -1.0131 C.ar    1  UNL1        0.2223
     10 N           4.7143   -0.5263   -0.3829 N.pl3   1  UNL1       -0.2937
     11 C           5.9709   -1.0473   -0.8706 C.3     1  UNL1        0.0206
     12 C           6.9523   -0.0092   -0.3106 C.3     1  UNL1        0.0281
     13 C           6.4266    0.1259    1.1078 C.3     1  UNL1        0.2657
     14 F           6.8811    1.2776    1.7146 F       1  UNL1       -0.2039
     15 F           6.7215   -1.0117    1.8021 F       1  UNL1       -0.2039
     16 C           4.9176    0.2099    0.8422 C.3     1  UNL1        0.0783
     17 N           2.3479   -0.1780   -0.4705 N.ar    1  UNL1       -0.1808
     18 C          -1.3660    0.2389   -0.8147 C.3     1  UNL1        0.0351
     19 C          -2.0864   -0.0977    0.4948 C.3     1  UNL1        0.0585
     20 N          -3.4934    0.0717    0.4097 N.am    1  UNL1       -0.2897
     21 C          -4.1268    1.3285    0.0740 C.3     1  UNL1        0.0785
     22 C          -5.4761    1.1161   -0.5575 C.3     1  UNL1        0.2647
     23 F          -6.0376    2.3610   -0.7705 F       1  UNL1       -0.2039
     24 F          -5.3119    0.4873   -1.7902 F       1  UNL1       -0.2039
     25 C          -6.4176    0.3170    0.2844 C.3     1  UNL1        0.0206
     26 C          -5.8050   -0.8377    0.9883 C.3     1  UNL1        0.0296
     27 C          -4.3570   -1.0295    0.6609 C.2     1  UNL1        0.2162
     28 O          -3.8458   -2.1969    0.5960 O.2     1  UNL1       -0.2756
     29 H          -0.6129   -0.6304    2.5760 H       1  UNL1        0.1186
     30 H          -2.2318   -0.3114    2.8785 H       1  UNL1        0.1186
     31 H          -1.8801    1.8288    1.5257 H       1  UNL1        0.0493
     32 H           0.7328    0.7070    1.5989 H       1  UNL1        0.0480
     33 H           0.1436    2.1307    0.5788 H       1  UNL1        0.0480
     34 H           2.0577   -2.1171   -3.6307 H       1  UNL1        0.1049
     35 H           6.0284   -1.1234   -1.9583 H       1  UNL1        0.0466
     36 H           6.2140   -1.9914   -0.3365 H       1  UNL1        0.0466
     37 H           6.7681    0.9682   -0.8325 H       1  UNL1        0.0338
     38 H           7.9872   -0.3435   -0.3628 H       1  UNL1        0.0338
     39 H           4.3382   -0.1848    1.6940 H       1  UNL1        0.0523
     40 H           4.6590    1.2814    0.7521 H       1  UNL1        0.0523
     41 H          -1.5495   -0.5246   -1.5904 H       1  UNL1        0.0483
     42 H          -1.6435    1.2673   -1.1560 H       1  UNL1        0.0483
     43 H          -1.7644   -1.1176    0.7613 H       1  UNL1        0.0532
     44 H          -4.2914    1.8876    1.0217 H       1  UNL1        0.0523
     45 H          -3.5215    1.9187   -0.6500 H       1  UNL1        0.0523
     46 H          -7.2174   -0.0943   -0.3993 H       1  UNL1        0.0328
     47 H          -6.9749    0.9381    1.0201 H       1  UNL1        0.0328
     48 H          -6.2958   -1.8092    0.7749 H       1  UNL1        0.0360
     49 H          -5.8547   -0.7021    2.0862 H       1  UNL1        0.0360
@<TRIPOS>BOND
     1     1     2    1
     2     2     3    1
     3     3     4    1
     4     4     5    1
     5     5     6   ar
     6     6     7   ar
     7     7     8   ar
     8     8     9   ar
     9     9    10    1
    10    10    11    1
    11    11    12    1
    12    12    13    1
    13    13    14    1
    14    13    15    1
    15    13    16    1
    16     9    17   ar
    17     4    18    1
    18    18    19    1
    19    19    20    1
    20    20    21    1
    21    21    22    1
    22    22    23    1
    23    22    24    1
    24    22    25    1
    25    25    26    1
    26    26    27    1
    27    27    28    2
    28    19     2    1
    29    27    20   am
    30    17     5   ar
    31    16    10    1
    32     1    29    1
    33     1    30    1
    34     2    31    1
    35     3    32    1
    36     3    33    1
    37     7    34    1
    38    11    35    1
    39    11    36    1
    40    12    37    1
    41    12    38    1
    42    16    39    1
    43    16    40    1
    44    18    41    1
    45    18    42    1
    46    19    43    1
    47    21    44    1
    48    21    45    1
    49    25    46    1
    50    25    47    1
    51    26    48    1
    52    26    49    1
