@<TRIPOS>MOLECULE
*****
 73 78 0 0 0
SMALL
GASTEIGER

@<TRIPOS>ATOM
      1 C           8.5742   -3.1367   -0.9498 C.3     1  UNL1       -0.0151
      2 N           7.4070   -2.5181   -0.4137 N.3     1  UNL1       -0.3089
      3 C           6.6137   -1.8174   -1.3942 C.3     1  UNL1        0.0820
      4 C           6.1158   -2.7156   -2.4918 C.3     1  UNL1       -0.0411
      5 C           5.4416   -1.1625   -0.7577 C.2     1  UNL1        0.2350
      6 O           5.2452   -1.2613    0.4821 O.2     1  UNL1       -0.2737
      7 N           4.5162   -0.4107   -1.5317 N.am    1  UNL1       -0.2691
      8 C           3.3833    0.2277   -0.9482 C.ar    1  UNL1        0.1263
      9 C           3.5075    1.5284   -0.4887 C.ar    1  UNL1       -0.0208
     10 C           2.4337    2.2006    0.0910 C.ar    1  UNL1       -0.0466
     11 C           1.2167    1.5612    0.2129 C.ar    1  UNL1        0.0349
     12 C           0.0367    2.1884    0.8091 C.ar    1  UNL1        0.0837
     13 C          -0.9715    2.7913    0.0796 C.ar    1  UNL1        0.1006
     14 C          -1.0590    2.9232   -1.3626 C.ar    1  UNL1        0.0387
     15 C          -2.1028    2.3506   -2.0486 C.ar    1  UNL1        0.0403
     16 N          -2.1522    2.4967   -3.4093 N.ar    1  UNL1       -0.2399
     17 C          -1.2235    3.1732   -4.0818 C.ar    1  UNL1        0.1259
     18 C          -1.2482    3.3508   -5.5630 C.3     1  UNL1       -0.0046
     19 N          -0.1894    3.7433   -3.4269 N.ar    1  UNL1       -0.2399
     20 C          -0.1165    3.6151   -2.0867 C.ar    1  UNL1        0.0403
     21 N          -1.8696    3.2398    1.0040 N.ar    1  UNL1       -0.2271
     22 C          -1.4630    2.9433    2.2473 C.ar    1  UNL1        0.1390
     23 C          -1.9612    3.1488    3.5189 C.ar    1  UNL1       -0.0158
     24 C          -1.3113    2.7220    4.6567 C.ar    1  UNL1       -0.0456
     25 C          -1.8620    2.9510    6.0262 C.3     1  UNL1       -0.0395
     26 C          -0.1129    2.0647    4.4711 C.ar    1  UNL1       -0.0421
     27 C           0.3801    1.8617    3.2042 C.ar    1  UNL1        0.0120
     28 N          -0.2849    2.2944    2.1119 N.ar    1  UNL1       -0.2986
     29 C           1.1176    0.2664   -0.2516 C.ar    1  UNL1        0.1250
     30 C          -0.1525   -0.4026   -0.1214 C.1     1  UNL1       -0.0404
     31 C          -1.2176   -0.9659   -0.0310 C.1     1  UNL1       -0.0595
     32 C          -2.4999   -1.6389    0.1027 C.ar    1  UNL1        0.0259
     33 C          -2.7276   -2.8629   -0.5019 C.ar    1  UNL1       -0.0457
     34 C          -3.9326   -3.5295   -0.3939 C.ar    1  UNL1       -0.0512
     35 C          -4.9555   -2.9699    0.3380 C.ar    1  UNL1        0.0032
     36 C          -6.1688   -3.6191    0.4592 C.ar    1  UNL1        0.0459
     37 C          -6.3868   -4.9430   -0.2078 C.3     1  UNL1       -0.0218
     38 N          -7.1614   -3.0658    1.1755 N.ar    1  UNL1       -0.2595
     39 C          -6.9591   -1.8888    1.7636 C.ar    1  UNL1        0.0285
     40 C          -5.7640   -1.2036    1.6702 C.ar    1  UNL1       -0.0358
     41 C          -4.7332   -1.7527    0.9409 C.ar    1  UNL1       -0.0136
     42 C          -3.5225   -1.0826    0.8327 C.ar    1  UNL1       -0.0385
     43 N           2.1896   -0.3647   -0.8153 N.ar    1  UNL1       -0.2229
     44 H           8.9863   -3.8067   -0.1390 H       1  UNL1        0.0388
     45 H           9.3540   -2.3489   -1.1064 H       1  UNL1        0.0388
     46 H           8.4056   -3.7775   -1.8108 H       1  UNL1        0.0388
     47 H           7.5488   -1.9956    0.4535 H       1  UNL1        0.1223
     48 H           7.2695   -1.0566   -1.8639 H       1  UNL1        0.0554
     49 H           6.9413   -3.1541   -3.0875 H       1  UNL1        0.0249
     50 H           5.5276   -2.0910   -3.1922 H       1  UNL1        0.0249
     51 H           5.4103   -3.4943   -2.1177 H       1  UNL1        0.0249
     52 H           4.6935   -0.3379   -2.5612 H       1  UNL1        0.1563
     53 H           4.4774    2.0229   -0.5921 H       1  UNL1        0.0652
     54 H           2.5305    3.2137    0.4487 H       1  UNL1        0.0626
     55 H          -2.8813    1.7970   -1.5848 H       1  UNL1        0.0837
     56 H          -0.3935    2.8120   -6.0511 H       1  UNL1        0.0308
     57 H          -1.1532    4.4303   -5.8489 H       1  UNL1        0.0308
     58 H          -2.1832    2.9217   -5.9806 H       1  UNL1        0.0308
     59 H           0.7188    4.0773   -1.5648 H       1  UNL1        0.0837
     60 H          -2.8946    3.6620    3.6322 H       1  UNL1        0.0657
     61 H          -1.3775    2.2431    6.7009 H       1  UNL1        0.0278
     62 H          -1.6150    3.9996    6.2873 H       1  UNL1        0.0278
     63 H          -2.9782    2.8198    6.0054 H       1  UNL1        0.0278
     64 H           0.4149    1.7204    5.3679 H       1  UNL1        0.0635
     65 H           1.3187    1.3447    3.0882 H       1  UNL1        0.0813
     66 H          -1.9222   -3.3069   -1.0808 H       1  UNL1        0.0630
     67 H          -4.1140   -4.4812   -0.8633 H       1  UNL1        0.0625
     68 H          -6.2765   -4.7478   -1.3077 H       1  UNL1        0.0293
     69 H          -5.6647   -5.6961    0.1224 H       1  UNL1        0.0293
     70 H          -7.4445   -5.2460   -0.0723 H       1  UNL1        0.0293
     71 H          -7.7843   -1.4651    2.3385 H       1  UNL1        0.0830
     72 H          -5.6427   -0.2603    2.1581 H       1  UNL1        0.0639
     73 H          -3.3410   -0.1290    1.3018 H       1  UNL1        0.0636
@<TRIPOS>BOND
     1     1     2    1
     2     2     3    1
     3     3     4    1
     4     3     5    1
     5     5     6    2
     6     5     7   am
     7     7     8    1
     8     8     9   ar
     9     9    10   ar
    10    10    11   ar
    11    11    12    1
    12    12    13   ar
    13    13    14    1
    14    14    15   ar
    15    15    16   ar
    16    16    17   ar
    17    17    18    1
    18    17    19   ar
    19    19    20   ar
    20    13    21   ar
    21    21    22   ar
    22    22    23   ar
    23    23    24   ar
    24    24    25    1
    25    24    26   ar
    26    26    27   ar
    27    27    28   ar
    28    11    29   ar
    29    29    30    1
    30    30    31    3
    31    31    32    1
    32    32    33   ar
    33    33    34   ar
    34    34    35   ar
    35    35    36   ar
    36    36    37    1
    37    36    38   ar
    38    38    39   ar
    39    39    40   ar
    40    40    41   ar
    41    41    42   ar
    42    29    43   ar
    43    43     8   ar
    44    28    12   ar
    45    42    32   ar
    46    20    14   ar
    47    28    22   ar
    48    41    35   ar
    49     1    44    1
    50     1    45    1
    51     1    46    1
    52     2    47    1
    53     3    48    1
    54     4    49    1
    55     4    50    1
    56     4    51    1
    57     7    52    1
    58     9    53    1
    59    10    54    1
    60    15    55    1
    61    18    56    1
    62    18    57    1
    63    18    58    1
    64    20    59    1
    65    23    60    1
    66    25    61    1
    67    25    62    1
    68    25    63    1
    69    26    64    1
    70    27    65    1
    71    33    66    1
    72    34    67    1
    73    37    68    1
    74    37    69    1
    75    37    70    1
    76    39    71    1
    77    40    72    1
    78    42    73    1
