@<TRIPOS>MOLECULE
*****
 41 43 0 0 0
SMALL
GASTEIGER

@<TRIPOS>ATOM
      1 C          -5.6324   -1.0569    0.2651 C.3     1  UNL1        0.0788
      2 O          -4.6997   -1.9437    0.8386 O.3     1  UNL1       -0.4951
      3 C          -3.3528   -1.7040    0.7156 C.ar    1  UNL1        0.1208
      4 C          -2.4221   -2.5419    1.2584 C.ar    1  UNL1       -0.0180
      5 C          -1.0537   -2.2715    1.1164 C.ar    1  UNL1       -0.0337
      6 C          -0.6035   -1.1655    0.4335 C.ar    1  UNL1        0.0574
      7 C          -1.5700   -0.3457   -0.0986 C.ar    1  UNL1        0.0077
      8 C          -2.9235   -0.5957    0.0308 C.ar    1  UNL1       -0.0105
      9 C          -0.9275    0.6872   -0.7308 C.ar    1  UNL1       -0.0080
     10 C          -1.6038    1.7930   -1.4365 C.3     1  UNL1        0.0721
     11 C          -2.1841    2.7863   -0.5109 C.2     1  UNL1        0.3091
     12 O          -2.0613    2.6228    0.7161 O.2     1  UNL1       -0.2507
     13 O          -2.8553    3.8832   -1.0267 O.3     1  UNL1       -0.4804
     14 C           0.4289    0.4477   -0.5539 C.ar    1  UNL1        0.0284
     15 C           1.4321    1.3418   -1.1823 C.3     1  UNL1       -0.0235
     16 N           0.6435   -0.6675    0.1502 N.ar    1  UNL1       -0.2801
     17 C           1.8329   -1.2550    0.6387 C.2     1  UNL1        0.2631
     18 O           1.7770   -2.4604    1.1190 O.2     1  UNL1       -0.2667
     19 C           3.1578   -0.7026    0.6919 C.ar    1  UNL1        0.0399
     20 C           4.2541   -1.5075    0.4126 C.ar    1  UNL1       -0.0480
     21 C           5.5526   -1.0573    0.5295 C.ar    1  UNL1       -0.0427
     22 C           5.7768    0.2491    0.9418 C.ar    1  UNL1        0.0410
     23 CL          7.4082    0.8754    1.1066 Cl      1  UNL1       -0.0835
     24 C           4.6910    1.0307    1.2145 C.ar    1  UNL1       -0.0427
     25 C           3.3834    0.5780    1.0977 C.ar    1  UNL1       -0.0480
     26 H          -6.6698   -1.4911    0.2782 H       1  UNL1        0.0660
     27 H          -5.5834   -0.0776    0.7805 H       1  UNL1        0.0660
     28 H          -5.4095   -0.8937   -0.8306 H       1  UNL1        0.0660
     29 H          -2.7376   -3.4082    1.7943 H       1  UNL1        0.0655
     30 H          -0.3312   -2.9515    1.5582 H       1  UNL1        0.0640
     31 H          -3.6631    0.0625   -0.3959 H       1  UNL1        0.0661
     32 H          -2.4425    1.3192   -2.0297 H       1  UNL1        0.0427
     33 H          -0.9570    2.2604   -2.2099 H       1  UNL1        0.0427
     34 H          -3.6582    4.2354   -0.5040 H       1  UNL1        0.2951
     35 H           1.0106    1.7386   -2.1729 H       1  UNL1        0.0292
     36 H           1.7111    2.2171   -0.5699 H       1  UNL1        0.0292
     37 H           2.3503    0.8236   -1.4885 H       1  UNL1        0.0292
     38 H           4.1316   -2.5326    0.0881 H       1  UNL1        0.0626
     39 H           6.4170   -1.6608    0.3192 H       1  UNL1        0.0632
     40 H           4.8185    2.0697    1.5438 H       1  UNL1        0.0632
     41 H           2.5648    1.2692    1.3711 H       1  UNL1        0.0626
@<TRIPOS>BOND
     1     1     2    1
     2     2     3    1
     3     3     4   ar
     4     4     5   ar
     5     5     6   ar
     6     6     7   ar
     7     7     8   ar
     8     7     9   ar
     9     9    10    1
    10    10    11    1
    11    11    12    2
    12    11    13    1
    13     9    14   ar
    14    14    15    1
    15    14    16   ar
    16    16    17   am
    17    17    18    2
    18    17    19    1
    19    19    20   ar
    20    20    21   ar
    21    21    22   ar
    22    22    23    1
    23    22    24   ar
    24    24    25   ar
    25     8     3   ar
    26    25    19   ar
    27    16     6   ar
    28     1    26    1
    29     1    27    1
    30     1    28    1
    31     4    29    1
    32     5    30    1
    33     8    31    1
    34    10    32    1
    35    10    33    1
    36    13    34    1
    37    15    35    1
    38    15    36    1
    39    15    37    1
    40    20    38    1
    41    21    39    1
    42    24    40    1
    43    25    41    1
