
     RDKit          3D

 41 43  0  0  0  0  0  0  0  0999 V2000
   -5.6324   -1.0569    0.2651 C   0  0  0  0  0  0  0  0  0  0  0  0
   -4.6997   -1.9437    0.8386 O   0  0  0  0  0  0  0  0  0  0  0  0
   -3.3528   -1.7040    0.7156 C   0  0  0  0  0  0  0  0  0  0  0  0
   -2.4221   -2.5419    1.2584 C   0  0  0  0  0  0  0  0  0  0  0  0
   -1.0537   -2.2715    1.1164 C   0  0  0  0  0  0  0  0  0  0  0  0
   -0.6035   -1.1655    0.4335 C   0  0  0  0  0  0  0  0  0  0  0  0
   -1.5700   -0.3457   -0.0986 C   0  0  0  0  0  0  0  0  0  0  0  0
   -2.9235   -0.5957    0.0308 C   0  0  0  0  0  0  0  0  0  0  0  0
   -0.9275    0.6872   -0.7308 C   0  0  0  0  0  0  0  0  0  0  0  0
   -1.6038    1.7930   -1.4365 C   0  0  0  0  0  0  0  0  0  0  0  0
   -2.1841    2.7863   -0.5109 C   0  0  0  0  0  0  0  0  0  0  0  0
   -2.0613    2.6228    0.7161 O   0  0  0  0  0  0  0  0  0  0  0  0
   -2.8553    3.8832   -1.0267 O   0  0  0  0  0  0  0  0  0  0  0  0
    0.4289    0.4477   -0.5539 C   0  0  0  0  0  0  0  0  0  0  0  0
    1.4321    1.3418   -1.1823 C   0  0  0  0  0  0  0  0  0  0  0  0
    0.6435   -0.6675    0.1502 N   0  0  0  0  0  0  0  0  0  0  0  0
    1.8329   -1.2550    0.6387 C   0  0  0  0  0  0  0  0  0  0  0  0
    1.7770   -2.4604    1.1190 O   0  0  0  0  0  0  0  0  0  0  0  0
    3.1578   -0.7026    0.6919 C   0  0  0  0  0  0  0  0  0  0  0  0
    4.2541   -1.5075    0.4126 C   0  0  0  0  0  0  0  0  0  0  0  0
    5.5526   -1.0573    0.5295 C   0  0  0  0  0  0  0  0  0  0  0  0
    5.7768    0.2491    0.9418 C   0  0  0  0  0  0  0  0  0  0  0  0
    7.4082    0.8754    1.1066 Cl  0  0  0  0  0  0  0  0  0  0  0  0
    4.6910    1.0307    1.2145 C   0  0  0  0  0  0  0  0  0  0  0  0
    3.3834    0.5780    1.0977 C   0  0  0  0  0  0  0  0  0  0  0  0
   -6.6698   -1.4911    0.2782 H   0  0  0  0  0  0  0  0  0  0  0  0
   -5.5834   -0.0776    0.7805 H   0  0  0  0  0  0  0  0  0  0  0  0
   -5.4095   -0.8937   -0.8306 H   0  0  0  0  0  0  0  0  0  0  0  0
   -2.7376   -3.4082    1.7943 H   0  0  0  0  0  0  0  0  0  0  0  0
   -0.3312   -2.9515    1.5582 H   0  0  0  0  0  0  0  0  0  0  0  0
   -3.6631    0.0625   -0.3959 H   0  0  0  0  0  0  0  0  0  0  0  0
   -2.4425    1.3192   -2.0297 H   0  0  0  0  0  0  0  0  0  0  0  0
   -0.9570    2.2604   -2.2099 H   0  0  0  0  0  0  0  0  0  0  0  0
   -3.6582    4.2354   -0.5040 H   0  0  0  0  0  0  0  0  0  0  0  0
    1.0106    1.7386   -2.1729 H   0  0  0  0  0  0  0  0  0  0  0  0
    1.7111    2.2171   -0.5699 H   0  0  0  0  0  0  0  0  0  0  0  0
    2.3503    0.8236   -1.4885 H   0  0  0  0  0  0  0  0  0  0  0  0
    4.1316   -2.5326    0.0881 H   0  0  0  0  0  0  0  0  0  0  0  0
    6.4170   -1.6608    0.3192 H   0  0  0  0  0  0  0  0  0  0  0  0
    4.8185    2.0697    1.5438 H   0  0  0  0  0  0  0  0  0  0  0  0
    2.5648    1.2692    1.3711 H   0  0  0  0  0  0  0  0  0  0  0  0
  1  2  1  0
  2  3  1  0
  3  4  2  0
  4  5  1  0
  5  6  2  0
  6  7  1  0
  7  8  2  0
  7  9  1  0
  9 10  1  0
 10 11  1  0
 11 12  2  0
 11 13  1  0
  9 14  2  0
 14 15  1  0
 14 16  1  0
 16 17  1  0
 17 18  2  0
 17 19  1  0
 19 20  2  0
 20 21  1  0
 21 22  2  0
 22 23  1  0
 22 24  1  0
 24 25  2  0
  8  3  1  0
 25 19  1  0
 16  6  1  0
  1 26  1  0
  1 27  1  0
  1 28  1  0
  4 29  1  0
  5 30  1  0
  8 31  1  0
 10 32  1  0
 10 33  1  0
 13 34  1  0
 15 35  1  0
 15 36  1  0
 15 37  1  0
 20 38  1  0
 21 39  1  0
 24 40  1  0
 25 41  1  0
M  END
$$$$
