
     RDKit          3D

 48 52  0  0  0  0  0  0  0  0999 V2000
   -2.8449    0.4197   -1.6448 C   0  0  0  0  0  0  0  0  0  0  0  0
   -2.3868    0.5443   -0.1880 C   0  0  2  0  0  0  0  0  0  0  0  0
   -0.9221    0.6913   -0.2507 C   0  0  0  0  0  0  0  0  0  0  0  0
   -0.2433    1.7725   -0.7407 N   0  0  0  0  0  0  0  0  0  0  0  0
    1.0102    1.4552   -0.6641 N   0  0  0  0  0  0  0  0  0  0  0  0
    1.1843    0.1999   -0.1399 C   0  0  0  0  0  0  0  0  0  0  0  0
    2.4966   -0.4804    0.0227 C   0  0  0  0  0  0  0  0  0  0  0  0
    2.5806   -1.8297    0.1882 C   0  0  0  0  0  0  0  0  0  0  0  0
    4.3507   -2.1028    0.2718 S   0  0  0  0  0  0  0  0  0  0  0  0
    4.7225   -0.2762    0.0615 C   0  0  0  0  0  0  0  0  0  0  0  0
    6.1767    0.1256    0.0212 C   0  0  0  0  0  0  0  0  0  0  0  0
    7.1764   -0.8070    0.0615 C   0  0  0  0  0  0  0  0  0  0  0  0
    8.5171   -0.4072    0.0186 C   0  0  0  0  0  0  0  0  0  0  0  0
    8.7781    0.9642   -0.0651 C   0  0  0  0  0  0  0  0  0  0  0  0
    7.7503    1.8941   -0.1039 C   0  0  0  0  0  0  0  0  0  0  0  0
    6.4539    1.4774   -0.0612 C   0  0  0  0  0  0  0  0  0  0  0  0
    3.6513    0.1470   -0.0188 N   0  0  0  0  0  0  0  0  0  0  0  0
   -0.0410   -0.2452    0.1099 N   0  0  0  0  0  0  0  0  0  0  0  0
   -0.4917   -1.4986    0.6992 C   0  0  0  0  0  0  0  0  0  0  0  0
   -1.8319   -1.3649    1.3237 C   0  0  0  0  0  0  0  0  0  0  0  0
   -2.7675   -0.5847    0.5833 N   0  0  0  0  0  0  0  0  0  0  0  0
   -4.1483   -0.9788    0.6388 C   0  0  0  0  0  0  0  0  0  0  0  0
   -4.4509   -1.9827    1.3044 O   0  0  0  0  0  0  0  0  0  0  0  0
   -5.1692   -0.2514   -0.0467 C   0  0  0  0  0  0  0  0  0  0  0  0
   -5.5564    1.0134    0.3576 C   0  0  0  0  0  0  0  0  0  0  0  0
   -6.5670    1.7410   -0.2692 C   0  0  0  0  0  0  0  0  0  0  0  0
   -7.2327    1.2002   -1.3508 C   0  0  0  0  0  0  0  0  0  0  0  0
   -8.2192    1.9128   -1.9629 F   0  0  0  0  0  0  0  0  0  0  0  0
   -6.8646   -0.0562   -1.7723 C   0  0  0  0  0  0  0  0  0  0  0  0
   -5.8653   -0.7727   -1.1496 C   0  0  0  0  0  0  0  0  0  0  0  0
   -2.8670   -0.6109   -1.9915 H   0  0  0  0  0  0  0  0  0  0  0  0
   -3.7565    0.9716   -1.8679 H   0  0  0  0  0  0  0  0  0  0  0  0
   -2.0480    0.9344   -2.2606 H   0  0  0  0  0  0  0  0  0  0  0  0
   -2.8963    1.4526    0.1906 H   0  0  0  0  0  0  0  0  0  0  0  0
    1.8968   -2.6581    0.2647 H   0  0  0  0  0  0  0  0  0  0  0  0
    6.9274   -1.8652    0.1279 H   0  0  0  0  0  0  0  0  0  0  0  0
    9.2841   -1.1422    0.0509 H   0  0  0  0  0  0  0  0  0  0  0  0
    9.8074    1.2527   -0.1032 H   0  0  0  0  0  0  0  0  0  0  0  0
    8.0005    2.9464   -0.1682 H   0  0  0  0  0  0  0  0  0  0  0  0
    5.6360    2.1902   -0.0908 H   0  0  0  0  0  0  0  0  0  0  0  0
   -0.5306   -2.2503   -0.1040 H   0  0  0  0  0  0  0  0  0  0  0  0
    0.1966   -1.7909    1.5545 H   0  0  0  0  0  0  0  0  0  0  0  0
   -1.7626   -0.9158    2.3641 H   0  0  0  0  0  0  0  0  0  0  0  0
   -2.2606   -2.3964    1.5427 H   0  0  0  0  0  0  0  0  0  0  0  0
   -5.0513    1.4661    1.2121 H   0  0  0  0  0  0  0  0  0  0  0  0
   -6.8648    2.7265    0.0512 H   0  0  0  0  0  0  0  0  0  0  0  0
   -7.3843   -0.4761   -2.6171 H   0  0  0  0  0  0  0  0  0  0  0  0
   -5.5732   -1.7545   -1.4765 H   0  0  0  0  0  0  0  0  0  0  0  0
  1  2  1  0
  2  3  1  0
  3  4  2  0
  4  5  1  0
  5  6  2  0
  6  7  1  0
  7  8  2  0
  8  9  1  0
  9 10  1  0
 10 11  1  0
 11 12  2  0
 12 13  1  0
 13 14  2  0
 14 15  1  0
 15 16  2  0
 10 17  2  0
  6 18  1  0
 18 19  1  0
 19 20  1  0
 20 21  1  0
 21 22  1  0
 22 23  2  0
 22 24  1  0
 24 25  2  0
 25 26  1  0
 26 27  2  0
 27 28  1  0
 27 29  1  0
 29 30  2  0
 21  2  1  0
 30 24  1  0
 18  3  1  0
 17  7  1  0
 16 11  1  0
  1 31  1  0
  1 32  1  0
  1 33  1  0
  2 34  1  1
  8 35  1  0
 12 36  1  0
 13 37  1  0
 14 38  1  0
 15 39  1  0
 16 40  1  0
 19 41  1  0
 19 42  1  0
 20 43  1  0
 20 44  1  0
 25 45  1  0
 26 46  1  0
 29 47  1  0
 30 48  1  0
M  END
$$$$
