@<TRIPOS>MOLECULE
*****
 48 52 0 0 0
SMALL
GASTEIGER

@<TRIPOS>ATOM
      1 C          -2.8449    0.4197   -1.6448 C.3     1  UNL1       -0.0393
      2 C          -2.3868    0.5443   -0.1880 C.3     1  UNL1        0.0834
      3 C          -0.9221    0.6913   -0.2507 C.ar    1  UNL1        0.1542
      4 N          -0.2433    1.7725   -0.7407 N.ar    1  UNL1       -0.1320
      5 N           1.0102    1.4552   -0.6641 N.ar    1  UNL1       -0.1275
      6 C           1.1843    0.1999   -0.1399 C.ar    1  UNL1        0.1833
      7 C           2.4966   -0.4804    0.0227 C.ar    1  UNL1        0.1158
      8 C           2.5806   -1.8297    0.1882 C.ar    1  UNL1        0.0067
      9 S           4.3507   -2.1028    0.2718 S.2     1  UNL1       -0.0749
     10 C           4.7225   -0.2762    0.0615 C.ar    1  UNL1        0.1090
     11 C           6.1767    0.1256    0.0212 C.ar    1  UNL1        0.0071
     12 C           7.1764   -0.8070    0.0615 C.ar    1  UNL1       -0.0521
     13 C           8.5171   -0.4072    0.0186 C.ar    1  UNL1       -0.0611
     14 C           8.7781    0.9642   -0.0651 C.ar    1  UNL1       -0.0617
     15 C           7.7503    1.8941   -0.1039 C.ar    1  UNL1       -0.0611
     16 C           6.4539    1.4774   -0.0612 C.ar    1  UNL1       -0.0521
     17 N           3.6513    0.1470   -0.0188 N.ar    1  UNL1       -0.2359
     18 N          -0.0410   -0.2452    0.1099 N.ar    1  UNL1       -0.3066
     19 C          -0.4917   -1.4986    0.6992 C.3     1  UNL1        0.0423
     20 C          -1.8319   -1.3649    1.3237 C.3     1  UNL1        0.0338
     21 N          -2.7675   -0.5847    0.5833 N.am    1  UNL1       -0.2860
     22 C          -4.1483   -0.9788    0.6388 C.2     1  UNL1        0.2472
     23 O          -4.4509   -1.9827    1.3044 O.2     1  UNL1       -0.2700
     24 C          -5.1692   -0.2514   -0.0467 C.ar    1  UNL1        0.0371
     25 C          -5.5564    1.0134    0.3576 C.ar    1  UNL1       -0.0469
     26 C          -6.5670    1.7410   -0.2692 C.ar    1  UNL1       -0.0257
     27 C          -7.2327    1.2002   -1.3508 C.ar    1  UNL1        0.1234
     28 F          -8.2192    1.9128   -1.9629 F       1  UNL1       -0.2055
     29 C          -6.8646   -0.0562   -1.7723 C.ar    1  UNL1       -0.0257
     30 C          -5.8653   -0.7727   -1.1496 C.ar    1  UNL1       -0.0469
     31 H          -2.8670   -0.6109   -1.9915 H       1  UNL1        0.0252
     32 H          -3.7565    0.9716   -1.8679 H       1  UNL1        0.0252
     33 H          -2.0480    0.9344   -2.2606 H       1  UNL1        0.0252
     34 H          -2.8963    1.4526    0.1906 H       1  UNL1        0.0579
     35 H           1.8968   -2.6581    0.2647 H       1  UNL1        0.0716
     36 H           6.9274   -1.8652    0.1279 H       1  UNL1        0.0624
     37 H           9.2841   -1.1422    0.0509 H       1  UNL1        0.0618
     38 H           9.8074    1.2527   -0.1032 H       1  UNL1        0.0618
     39 H           8.0005    2.9464   -0.1682 H       1  UNL1        0.0618
     40 H           5.6360    2.1902   -0.0908 H       1  UNL1        0.0624
     41 H          -0.5306   -2.2503   -0.1040 H       1  UNL1        0.0508
     42 H           0.1966   -1.7909    1.5545 H       1  UNL1        0.0508
     43 H          -1.7626   -0.9158    2.3641 H       1  UNL1        0.0482
     44 H          -2.2606   -2.3964    1.5427 H       1  UNL1        0.0482
     45 H          -5.0513    1.4661    1.2121 H       1  UNL1        0.0626
     46 H          -6.8648    2.7265    0.0512 H       1  UNL1        0.0646
     47 H          -7.3843   -0.4761   -2.6171 H       1  UNL1        0.0646
     48 H          -5.5732   -1.7545   -1.4765 H       1  UNL1        0.0626
@<TRIPOS>BOND
     1     1     2    1
     2     2     3    1
     3     3     4   ar
     4     4     5   ar
     5     5     6   ar
     6     6     7    1
     7     7     8   ar
     8     8     9   ar
     9     9    10   ar
    10    10    11    1
    11    11    12   ar
    12    12    13   ar
    13    13    14   ar
    14    14    15   ar
    15    15    16   ar
    16    10    17   ar
    17     6    18   ar
    18    18    19    1
    19    19    20    1
    20    20    21    1
    21    21    22   am
    22    22    23    2
    23    22    24    1
    24    24    25   ar
    25    25    26   ar
    26    26    27   ar
    27    27    28    1
    28    27    29   ar
    29    29    30   ar
    30    21     2    1
    31    30    24   ar
    32    18     3   ar
    33    17     7   ar
    34    16    11   ar
    35     1    31    1
    36     1    32    1
    37     1    33    1
    38     2    34    1
    39     8    35    1
    40    12    36    1
    41    13    37    1
    42    14    38    1
    43    15    39    1
    44    16    40    1
    45    19    41    1
    46    19    42    1
    47    20    43    1
    48    20    44    1
    49    25    45    1
    50    26    46    1
    51    29    47    1
    52    30    48    1
