
     RDKit          3D

 61 66  0  0  0  0  0  0  0  0999 V2000
    1.4615   -3.3143    1.6768 C   0  0  0  0  0  0  0  0  0  0  0  0
    2.7288   -2.8129    2.3711 C   0  0  0  0  0  0  0  0  0  0  0  0
    3.3321   -1.7645    1.5140 C   0  0  0  0  0  0  0  0  0  0  0  0
    4.2353   -2.0520    0.5296 N   0  0  0  0  0  0  0  0  0  0  0  0
    4.6084   -0.9293   -0.0619 C   0  0  0  0  0  0  0  0  0  0  0  0
    5.4746   -0.5981   -1.0974 C   0  0  0  0  0  0  0  0  0  0  0  0
    6.2226   -1.6558   -1.7862 C   0  0  0  0  0  0  0  0  0  0  0  0
    5.5794    0.7353   -1.4160 C   0  0  0  0  0  0  0  0  0  0  0  0
    4.8796    1.7311   -0.7683 C   0  0  0  0  0  0  0  0  0  0  0  0
    5.0440    3.1701   -1.1726 C   0  0  0  0  0  0  0  0  0  0  0  0
    4.0513    1.3733    0.2281 N   0  0  0  0  0  0  0  0  0  0  0  0
    3.9165    0.0794    0.5752 C   0  0  0  0  0  0  0  0  0  0  0  0
    3.1210   -0.4450    1.5586 N   0  0  0  0  0  0  0  0  0  0  0  0
    2.2768    0.2831    2.4409 C   0  0  0  0  0  0  0  0  0  0  0  0
    0.9033    0.5280    1.9905 C   0  0  0  0  0  0  0  0  0  0  0  0
   -0.1105   -0.3188    2.3793 C   0  0  0  0  0  0  0  0  0  0  0  0
   -1.4433   -0.1442    1.9877 C   0  0  0  0  0  0  0  0  0  0  0  0
   -1.7840    0.9065    1.1820 C   0  0  0  0  0  0  0  0  0  0  0  0
   -0.7905    1.7669    0.7801 C   0  0  0  0  0  0  0  0  0  0  0  0
   -1.3897    2.7250   -0.0012 C   0  0  0  0  0  0  0  0  0  0  0  0
   -2.7334    2.4111   -0.0473 C   0  0  0  0  0  0  0  0  0  0  0  0
   -2.9807    1.3171    0.6617 N   0  0  0  0  0  0  0  0  0  0  0  0
   -4.2271    0.6219    0.8715 C   0  0  0  0  0  0  0  0  0  0  0  0
   -4.5331   -0.3557   -0.2078 C   0  0  0  0  0  0  0  0  0  0  0  0
   -4.1043   -1.6789   -0.0367 C   0  0  0  0  0  0  0  0  0  0  0  0
   -4.2906   -2.5747   -1.0518 C   0  0  0  0  0  0  0  0  0  0  0  0
   -4.8857   -2.2315   -2.2429 C   0  0  0  0  0  0  0  0  0  0  0  0
   -5.2996   -0.9462   -2.3970 C   0  0  0  0  0  0  0  0  0  0  0  0
   -5.1352    0.0261   -1.3805 C   0  0  0  0  0  0  0  0  0  0  0  0
   -5.7080    1.3437   -1.6128 C   0  0  0  0  0  0  0  0  0  0  0  0
   -5.9387    2.3172   -0.7504 N   0  0  0  0  0  0  0  0  0  0  0  0
   -6.5282    3.3486   -1.3475 N   0  0  0  0  0  0  0  0  0  0  0  0
   -6.6661    3.0043   -2.6124 N   0  0  0  0  0  0  0  0  0  0  0  0
   -6.1705    1.7828   -2.7926 N   0  0  0  0  0  0  0  0  0  0  0  0
    0.5411    1.5831    1.1779 C   0  0  0  0  0  0  0  0  0  0  0  0
    1.0687   -2.5468    0.9812 H   0  0  0  0  0  0  0  0  0  0  0  0
    0.7091   -3.6863    2.4062 H   0  0  0  0  0  0  0  0  0  0  0  0
    1.7738   -4.1761    1.0128 H   0  0  0  0  0  0  0  0  0  0  0  0
    3.3834   -3.6817    2.5068 H   0  0  0  0  0  0  0  0  0  0  0  0
    2.4877   -2.3934    3.3702 H   0  0  0  0  0  0  0  0  0  0  0  0
    6.0476   -1.6789   -2.8941 H   0  0  0  0  0  0  0  0  0  0  0  0
    6.0680   -2.6463   -1.3260 H   0  0  0  0  0  0  0  0  0  0  0  0
    7.3144   -1.4287   -1.6405 H   0  0  0  0  0  0  0  0  0  0  0  0
    6.2435    1.0335   -2.2168 H   0  0  0  0  0  0  0  0  0  0  0  0
    4.9885    3.2525   -2.2986 H   0  0  0  0  0  0  0  0  0  0  0  0
    4.1835    3.7300   -0.7875 H   0  0  0  0  0  0  0  0  0  0  0  0
    6.0163    3.5703   -0.8839 H   0  0  0  0  0  0  0  0  0  0  0  0
    2.1928   -0.2039    3.4593 H   0  0  0  0  0  0  0  0  0  0  0  0
    2.6992    1.3016    2.6999 H   0  0  0  0  0  0  0  0  0  0  0  0
    0.1122   -1.1532    3.0137 H   0  0  0  0  0  0  0  0  0  0  0  0
   -2.2022   -0.8242    2.3229 H   0  0  0  0  0  0  0  0  0  0  0  0
   -0.8827    3.5430   -0.4684 H   0  0  0  0  0  0  0  0  0  0  0  0
   -3.4071    3.0556   -0.6243 H   0  0  0  0  0  0  0  0  0  0  0  0
   -5.0435    1.3141    1.0176 H   0  0  0  0  0  0  0  0  0  0  0  0
   -4.1461   -0.0040    1.8255 H   0  0  0  0  0  0  0  0  0  0  0  0
   -3.6407   -1.9661    0.8961 H   0  0  0  0  0  0  0  0  0  0  0  0
   -3.9594   -3.6076   -0.9280 H   0  0  0  0  0  0  0  0  0  0  0  0
   -5.0296   -2.9511   -3.0484 H   0  0  0  0  0  0  0  0  0  0  0  0
   -5.7773   -0.6384   -3.3302 H   0  0  0  0  0  0  0  0  0  0  0  0
   -6.1716    1.2968   -3.7371 H   0  0  0  0  0  0  0  0  0  0  0  0
    1.3143    2.2568    0.8616 H   0  0  0  0  0  0  0  0  0  0  0  0
  1  2  1  0
  2  3  1  0
  3  4  2  0
  4  5  1  0
  5  6  2  0
  6  7  1  0
  6  8  1  0
  8  9  2  0
  9 10  1  0
  9 11  1  0
 11 12  2  0
 12 13  1  0
 13 14  1  0
 14 15  1  0
 15 16  2  0
 16 17  1  0
 17 18  2  0
 18 19  1  0
 19 20  1  0
 20 21  2  0
 21 22  1  0
 22 23  1  0
 23 24  1  0
 24 25  2  0
 25 26  1  0
 26 27  2  0
 27 28  1  0
 28 29  2  0
 29 30  1  0
 30 31  2  0
 31 32  1  0
 32 33  2  0
 33 34  1  0
 19 35  2  0
 13  3  1  0
 35 15  1  0
 12  5  1  0
 22 18  1  0
 29 24  1  0
 34 30  1  0
  1 36  1  0
  1 37  1  0
  1 38  1  0
  2 39  1  0
  2 40  1  0
  7 41  1  0
  7 42  1  0
  7 43  1  0
  8 44  1  0
 10 45  1  0
 10 46  1  0
 10 47  1  0
 14 48  1  0
 14 49  1  0
 16 50  1  0
 17 51  1  0
 20 52  1  0
 21 53  1  0
 23 54  1  0
 23 55  1  0
 25 56  1  0
 26 57  1  0
 27 58  1  0
 28 59  1  0
 34 60  1  0
 35 61  1  0
M  END
$$$$
