@<TRIPOS>MOLECULE
*****
 61 66 0 0 0
SMALL
GASTEIGER

@<TRIPOS>ATOM
      1 C           1.4615   -3.3143    1.6768 C.3     1  UNL1       -0.0584
      2 C           2.7288   -2.8129    2.3711 C.3     1  UNL1        0.0028
      3 C           3.3321   -1.7645    1.5140 C.ar    1  UNL1        0.1119
      4 N           4.2353   -2.0520    0.5296 N.ar    1  UNL1       -0.2304
      5 C           4.6084   -0.9293   -0.0619 C.ar    1  UNL1        0.1111
      6 C           5.4746   -0.5981   -1.0974 C.ar    1  UNL1       -0.0198
      7 C           6.2226   -1.6558   -1.7862 C.3     1  UNL1       -0.0375
      8 C           5.5794    0.7353   -1.4160 C.ar    1  UNL1       -0.0356
      9 C           4.8796    1.7311   -0.7683 C.ar    1  UNL1        0.0409
     10 C           5.0440    3.1701   -1.1726 C.3     1  UNL1       -0.0223
     11 N           4.0513    1.3733    0.2281 N.ar    1  UNL1       -0.2326
     12 C           3.9165    0.0794    0.5752 C.ar    1  UNL1        0.1612
     13 N           3.1210   -0.4450    1.5586 N.ar    1  UNL1       -0.3081
     14 C           2.2768    0.2831    2.4409 C.3     1  UNL1        0.0513
     15 C           0.9033    0.5280    1.9905 C.ar    1  UNL1       -0.0270
     16 C          -0.1105   -0.3188    2.3793 C.ar    1  UNL1       -0.0549
     17 C          -1.4433   -0.1442    1.9877 C.ar    1  UNL1       -0.0373
     18 C          -1.7840    0.9065    1.1820 C.ar    1  UNL1        0.0494
     19 C          -0.7905    1.7669    0.7801 C.ar    1  UNL1        0.0002
     20 C          -1.3897    2.7250   -0.0012 C.ar    1  UNL1       -0.0364
     21 C          -2.7334    2.4111   -0.0473 C.ar    1  UNL1        0.0061
     22 N          -2.9807    1.3171    0.6617 N.ar    1  UNL1       -0.3423
     23 C          -4.2271    0.6219    0.8715 C.3     1  UNL1        0.0490
     24 C          -4.5331   -0.3557   -0.2078 C.ar    1  UNL1       -0.0171
     25 C          -4.1043   -1.6789   -0.0367 C.ar    1  UNL1       -0.0562
     26 C          -4.2906   -2.5747   -1.0518 C.ar    1  UNL1       -0.0614
     27 C          -4.8857   -2.2315   -2.2429 C.ar    1  UNL1       -0.0611
     28 C          -5.2996   -0.9462   -2.3970 C.ar    1  UNL1       -0.0507
     29 C          -5.1352    0.0261   -1.3805 C.ar    1  UNL1        0.0253
     30 C          -5.7080    1.3437   -1.6128 C.ar    1  UNL1        0.1797
     31 N          -5.9387    2.3172   -0.7504 N.ar    1  UNL1       -0.1084
     32 N          -6.5282    3.3486   -1.3475 N.ar    1  UNL1       -0.0229
     33 N          -6.6661    3.0043   -2.6124 N.ar    1  UNL1       -0.0464
     34 N          -6.1705    1.7828   -2.7926 N.ar    1  UNL1       -0.2388
     35 C           0.5411    1.5831    1.1779 C.ar    1  UNL1       -0.0477
     36 H           1.0687   -2.5468    0.9812 H       1  UNL1        0.0234
     37 H           0.7091   -3.6863    2.4062 H       1  UNL1        0.0234
     38 H           1.7738   -4.1761    1.0128 H       1  UNL1        0.0234
     39 H           3.3834   -3.6817    2.5068 H       1  UNL1        0.0340
     40 H           2.4877   -2.3934    3.3702 H       1  UNL1        0.0340
     41 H           6.0476   -1.6789   -2.8941 H       1  UNL1        0.0278
     42 H           6.0680   -2.6463   -1.3260 H       1  UNL1        0.0278
     43 H           7.3144   -1.4287   -1.6405 H       1  UNL1        0.0278
     44 H           6.2435    1.0335   -2.2168 H       1  UNL1        0.0639
     45 H           4.9885    3.2525   -2.2986 H       1  UNL1        0.0292
     46 H           4.1835    3.7300   -0.7875 H       1  UNL1        0.0292
     47 H           6.0163    3.5703   -0.8839 H       1  UNL1        0.0292
     48 H           2.1928   -0.2039    3.4593 H       1  UNL1        0.0542
     49 H           2.6992    1.3016    2.6999 H       1  UNL1        0.0542
     50 H           0.1122   -1.1532    3.0137 H       1  UNL1        0.0621
     51 H          -2.2022   -0.8242    2.3229 H       1  UNL1        0.0638
     52 H          -0.8827    3.5430   -0.4684 H       1  UNL1        0.0639
     53 H          -3.4071    3.0556   -0.6243 H       1  UNL1        0.0809
     54 H          -5.0435    1.3141    1.0176 H       1  UNL1        0.0541
     55 H          -4.1461   -0.0040    1.8255 H       1  UNL1        0.0541
     56 H          -3.6407   -1.9661    0.8961 H       1  UNL1        0.0621
     57 H          -3.9594   -3.6076   -0.9280 H       1  UNL1        0.0618
     58 H          -5.0296   -2.9511   -3.0484 H       1  UNL1        0.0618
     59 H          -5.7773   -0.6384   -3.3302 H       1  UNL1        0.0625
     60 H          -6.1716    1.2968   -3.7371 H       1  UNL1        0.1923
     61 H           1.3143    2.2568    0.8616 H       1  UNL1        0.0627
@<TRIPOS>BOND
     1     1     2    1
     2     2     3    1
     3     3     4   ar
     4     4     5   ar
     5     5     6   ar
     6     6     7    1
     7     6     8   ar
     8     8     9   ar
     9     9    10    1
    10     9    11   ar
    11    11    12   ar
    12    12    13   ar
    13    13    14    1
    14    14    15    1
    15    15    16   ar
    16    16    17   ar
    17    17    18   ar
    18    18    19   ar
    19    19    20   ar
    20    20    21   ar
    21    21    22   ar
    22    22    23    1
    23    23    24    1
    24    24    25   ar
    25    25    26   ar
    26    26    27   ar
    27    27    28   ar
    28    28    29   ar
    29    29    30    1
    30    30    31   ar
    31    31    32   ar
    32    32    33   ar
    33    33    34   ar
    34    19    35   ar
    35    13     3   ar
    36    35    15   ar
    37    12     5   ar
    38    22    18   ar
    39    29    24   ar
    40    34    30   ar
    41     1    36    1
    42     1    37    1
    43     1    38    1
    44     2    39    1
    45     2    40    1
    46     7    41    1
    47     7    42    1
    48     7    43    1
    49     8    44    1
    50    10    45    1
    51    10    46    1
    52    10    47    1
    53    14    48    1
    54    14    49    1
    55    16    50    1
    56    17    51    1
    57    20    52    1
    58    21    53    1
    59    23    54    1
    60    23    55    1
    61    25    56    1
    62    26    57    1
    63    27    58    1
    64    28    59    1
    65    34    60    1
    66    35    61    1
