
     RDKit          3D

 38 39  0  0  0  0  0  0  0  0999 V2000
   -2.3950    1.8022    2.1401 N   0  0  0  0  0  0  0  0  0  0  0  0
   -2.5395    1.1713    1.1487 C   0  0  0  0  0  0  0  0  0  0  0  0
   -2.7396    0.3831   -0.0677 C   0  0  2  0  0  0  0  0  0  0  0  0
   -4.2078   -0.0867   -0.1376 C   0  0  0  0  0  0  0  0  0  0  0  0
   -4.1646   -1.5847    0.0348 C   0  0  0  0  0  0  0  0  0  0  0  0
   -2.8784   -1.7888    0.8016 C   0  0  0  0  0  0  0  0  0  0  0  0
   -2.0063   -0.8437    0.0781 N   0  0  0  0  0  0  0  0  0  0  0  0
   -0.7121   -1.1582   -0.3548 C   0  0  0  0  0  0  0  0  0  0  0  0
   -0.3209   -2.3635   -0.0772 O   0  0  0  0  0  0  0  0  0  0  0  0
    0.2120   -0.2631   -1.0759 C   0  0  1  0  0  0  0  0  0  0  0  0
   -0.2355    1.0605   -1.3063 N   0  0  0  0  0  0  0  0  0  0  0  0
    1.6175   -0.2724   -0.4792 C   0  0  0  0  0  0  0  0  0  0  0  0
    2.4738    0.6538   -1.2865 C   0  0  0  0  0  0  0  0  0  0  0  0
    3.8225    0.9227   -0.7295 C   0  0  0  0  0  0  0  0  0  0  0  0
    3.9761    0.3589    0.6824 C   0  0  0  0  0  0  0  0  0  0  0  0
    2.7490    0.9102    1.4196 C   0  0  0  0  0  0  0  0  0  0  0  0
    1.6108    0.0097    0.9859 C   0  0  0  0  0  0  0  0  0  0  0  0
   -2.4944    0.9733   -0.9579 H   0  0  0  0  0  0  0  0  0  0  0  0
   -4.6251    0.1686   -1.1344 H   0  0  0  0  0  0  0  0  0  0  0  0
   -4.7814    0.3396    0.7046 H   0  0  0  0  0  0  0  0  0  0  0  0
   -5.0465   -1.9747    0.5967 H   0  0  0  0  0  0  0  0  0  0  0  0
   -4.0706   -2.0846   -0.9648 H   0  0  0  0  0  0  0  0  0  0  0  0
   -2.4741   -2.7987    0.7617 H   0  0  0  0  0  0  0  0  0  0  0  0
   -3.0148   -1.3781    1.8296 H   0  0  0  0  0  0  0  0  0  0  0  0
    0.3485   -0.7402   -2.0926 H   0  0  0  0  0  0  0  0  0  0  0  0
    0.0919    1.4335   -2.2306 H   0  0  0  0  0  0  0  0  0  0  0  0
    0.0606    1.7200   -0.5529 H   0  0  0  0  0  0  0  0  0  0  0  0
    2.0002   -1.3007   -0.6297 H   0  0  0  0  0  0  0  0  0  0  0  0
    2.6004    0.2594   -2.3303 H   0  0  0  0  0  0  0  0  0  0  0  0
    1.9542    1.6298   -1.4090 H   0  0  0  0  0  0  0  0  0  0  0  0
    4.6104    0.4426   -1.3456 H   0  0  0  0  0  0  0  0  0  0  0  0
    4.0407    2.0118   -0.6478 H   0  0  0  0  0  0  0  0  0  0  0  0
    3.8898   -0.7332    0.6591 H   0  0  0  0  0  0  0  0  0  0  0  0
    4.9066    0.7285    1.1329 H   0  0  0  0  0  0  0  0  0  0  0  0
    2.8472    0.8734    2.5008 H   0  0  0  0  0  0  0  0  0  0  0  0
    2.5219    1.9458    1.0394 H   0  0  0  0  0  0  0  0  0  0  0  0
    0.6822    0.5037    1.3284 H   0  0  0  0  0  0  0  0  0  0  0  0
    1.6904   -0.9308    1.5742 H   0  0  0  0  0  0  0  0  0  0  0  0
  1  2  3  0
  2  3  1  0
  3  4  1  0
  4  5  1  0
  5  6  1  0
  6  7  1  0
  7  8  1  0
  8  9  2  0
  8 10  1  0
 10 11  1  0
 10 12  1  0
 12 13  1  0
 13 14  1  0
 14 15  1  0
 15 16  1  0
 16 17  1  0
  7  3  1  0
 17 12  1  0
  3 18  1  6
  4 19  1  0
  4 20  1  0
  5 21  1  0
  5 22  1  0
  6 23  1  0
  6 24  1  0
 10 25  1  6
 11 26  1  0
 11 27  1  0
 12 28  1  0
 13 29  1  0
 13 30  1  0
 14 31  1  0
 14 32  1  0
 15 33  1  0
 15 34  1  0
 16 35  1  0
 16 36  1  0
 17 37  1  0
 17 38  1  0
M  END
$$$$
