@<TRIPOS>MOLECULE
*****
 38 39 0 0 0
SMALL
GASTEIGER

@<TRIPOS>ATOM
      1 N          -2.3950    1.8022    2.1401 N.1     1  UNL1       -0.1946
      2 C          -2.5395    1.1713    1.1487 C.1     1  UNL1        0.0851
      3 C          -2.7396    0.3831   -0.0677 C.3     1  UNL1        0.1129
      4 C          -4.2078   -0.0867   -0.1376 C.3     1  UNL1       -0.0196
      5 C          -4.1646   -1.5847    0.0348 C.3     1  UNL1       -0.0345
      6 C          -2.8784   -1.7888    0.8016 C.3     1  UNL1        0.0161
      7 N          -2.0063   -0.8437    0.0781 N.am    1  UNL1       -0.2844
      8 C          -0.7121   -1.1582   -0.3548 C.2     1  UNL1        0.2336
      9 O          -0.3209   -2.3635   -0.0772 O.2     1  UNL1       -0.2738
     10 C           0.2120   -0.2631   -1.0759 C.3     1  UNL1        0.0853
     11 N          -0.2355    1.0605   -1.3063 N.3     1  UNL1       -0.3197
     12 C           1.6175   -0.2724   -0.4792 C.3     1  UNL1       -0.0173
     13 C           2.4738    0.6538   -1.2865 C.3     1  UNL1       -0.0483
     14 C           3.8225    0.9227   -0.7295 C.3     1  UNL1       -0.0527
     15 C           3.9761    0.3589    0.6824 C.3     1  UNL1       -0.0530
     16 C           2.7490    0.9102    1.4196 C.3     1  UNL1       -0.0527
     17 C           1.6108    0.0097    0.9859 C.3     1  UNL1       -0.0483
     18 H          -2.4944    0.9733   -0.9579 H       1  UNL1        0.0659
     19 H          -4.6251    0.1686   -1.1344 H       1  UNL1        0.0294
     20 H          -4.7814    0.3396    0.7046 H       1  UNL1        0.0294
     21 H          -5.0465   -1.9747    0.5967 H       1  UNL1        0.0281
     22 H          -4.0706   -2.0846   -0.9648 H       1  UNL1        0.0281
     23 H          -2.4741   -2.7987    0.7617 H       1  UNL1        0.0465
     24 H          -3.0148   -1.3781    1.8296 H       1  UNL1        0.0465
     25 H           0.3485   -0.7402   -2.0926 H       1  UNL1        0.0557
     26 H           0.0919    1.4335   -2.2306 H       1  UNL1        0.1189
     27 H           0.0606    1.7200   -0.5529 H       1  UNL1        0.1189
     28 H           2.0002   -1.3007   -0.6297 H       1  UNL1        0.0320
     29 H           2.6004    0.2594   -2.3303 H       1  UNL1        0.0269
     30 H           1.9542    1.6298   -1.4090 H       1  UNL1        0.0269
     31 H           4.6104    0.4426   -1.3456 H       1  UNL1        0.0265
     32 H           4.0407    2.0118   -0.6478 H       1  UNL1        0.0265
     33 H           3.8898   -0.7332    0.6591 H       1  UNL1        0.0265
     34 H           4.9066    0.7285    1.1329 H       1  UNL1        0.0265
     35 H           2.8472    0.8734    2.5008 H       1  UNL1        0.0265
     36 H           2.5219    1.9458    1.0394 H       1  UNL1        0.0265
     37 H           0.6822    0.5037    1.3284 H       1  UNL1        0.0269
     38 H           1.6904   -0.9308    1.5742 H       1  UNL1        0.0269
@<TRIPOS>BOND
     1     1     2    3
     2     2     3    1
     3     3     4    1
     4     4     5    1
     5     5     6    1
     6     6     7    1
     7     7     8   am
     8     8     9    2
     9     8    10    1
    10    10    11    1
    11    10    12    1
    12    12    13    1
    13    13    14    1
    14    14    15    1
    15    15    16    1
    16    16    17    1
    17     7     3    1
    18    17    12    1
    19     3    18    1
    20     4    19    1
    21     4    20    1
    22     5    21    1
    23     5    22    1
    24     6    23    1
    25     6    24    1
    26    10    25    1
    27    11    26    1
    28    11    27    1
    29    12    28    1
    30    13    29    1
    31    13    30    1
    32    14    31    1
    33    14    32    1
    34    15    33    1
    35    15    34    1
    36    16    35    1
    37    16    36    1
    38    17    37    1
    39    17    38    1
