@<TRIPOS>MOLECULE
*****
 39 40 0 0 0
SMALL
GASTEIGER

@<TRIPOS>ATOM
      1 C          -4.0523    2.7041    0.1554 C.3     1  UNL1        0.1072
      2 O          -3.1437    1.6462    0.3802 O.2     1  UNL1       -0.3965
      3 N          -3.6643    0.3729    0.5529 N.2     1  UNL1       -0.0790
      4 C          -2.9507   -0.6694    0.6350 C.2     1  UNL1        0.1776
      5 C          -1.5020   -0.5606    0.5473 C.2     1  UNL1        0.2672
      6 O          -0.9215    0.5507    0.3900 O.2     1  UNL1       -0.2684
      7 N          -0.6575   -1.6837    0.6318 N.am    1  UNL1       -0.2978
      8 C           0.7525   -1.6877    0.5578 C.3     1  UNL1        0.1250
      9 P           1.5030   -1.0840   -0.9321 P.3     1  UNL1        0.3960
     10 O           1.5570   -2.1668   -2.0165 O.2     1  UNL1       -0.2426
     11 O           0.8677    0.3411   -1.5143 O.3     1  UNL1       -0.3141
     12 O           3.1726   -0.7839   -0.5628 O.3     1  UNL1       -0.4229
     13 C           3.7016    0.4888   -0.5412 C.ar    1  UNL1        0.1327
     14 C           4.1972    0.9841   -1.7388 C.ar    1  UNL1       -0.0181
     15 C           4.7444    2.2596   -1.7881 C.ar    1  UNL1       -0.0381
     16 C           4.8131    3.0630   -0.6696 C.ar    1  UNL1        0.0871
     17 C           5.3857    4.3990   -0.7190 C.1     1  UNL1        0.1020
     18 N           5.8526    5.4454   -0.7477 N.1     1  UNL1       -0.1908
     19 C           4.3182    2.5616    0.5149 C.ar    1  UNL1        0.1442
     20 F           4.3595    3.3153    1.6604 F       1  UNL1       -0.2040
     21 C           3.7725    1.2898    0.5639 C.ar    1  UNL1        0.0170
     22 C          -3.5134   -2.0183    0.8186 C.ar    1  UNL1        0.0458
     23 C          -4.3032   -2.7599    0.0627 C.ar    1  UNL1       -0.0452
     24 C          -4.6915   -3.9922    0.4545 C.ar    1  UNL1       -0.0541
     25 C          -4.2142   -4.4209    1.6827 C.ar    1  UNL1       -0.0237
     26 S          -3.2172   -2.9958    2.2066 S.2     1  UNL1       -0.0949
     27 H          -5.0513    2.3390   -0.1544 H       1  UNL1        0.0687
     28 H          -4.2168    3.3287    1.0556 H       1  UNL1        0.0687
     29 H          -3.6313    3.4059   -0.6201 H       1  UNL1        0.0687
     30 H          -1.1481   -2.6187    0.7650 H       1  UNL1        0.1497
     31 H           1.1774   -2.6866    0.7839 H       1  UNL1        0.0599
     32 H           1.1254   -1.0401    1.4083 H       1  UNL1        0.0599
     33 H           1.2929    1.1596   -1.1232 H       1  UNL1        0.2208
     34 H           4.1664    0.3861   -2.6562 H       1  UNL1        0.0655
     35 H           5.1314    2.6523   -2.7132 H       1  UNL1        0.0632
     36 H           3.3799    0.8850    1.4914 H       1  UNL1        0.0683
     37 H          -4.6668   -2.3712   -0.9275 H       1  UNL1        0.0629
     38 H          -5.3691   -4.6759   -0.1521 H       1  UNL1        0.0623
     39 H          -4.3561   -5.3624    2.2580 H       1  UNL1        0.0693
@<TRIPOS>BOND
     1     1     2    1
     2     2     3    1
     3     3     4    2
     4     4     5    1
     5     5     6    2
     6     5     7   am
     7     7     8    1
     8     8     9    1
     9     9    10    2
    10     9    11    1
    11     9    12    1
    12    12    13    1
    13    13    14   ar
    14    14    15   ar
    15    15    16   ar
    16    16    17    1
    17    17    18    3
    18    16    19   ar
    19    19    20    1
    20    19    21   ar
    21     4    22    1
    22    22    23   ar
    23    23    24   ar
    24    24    25   ar
    25    25    26   ar
    26    21    13   ar
    27    26    22   ar
    28     1    27    1
    29     1    28    1
    30     1    29    1
    31     7    30    1
    32     8    31    1
    33     8    32    1
    34    11    33    1
    35    14    34    1
    36    15    35    1
    37    21    36    1
    38    23    37    1
    39    24    38    1
    40    25    39    1
