@<TRIPOS>MOLECULE
*****
 55 58 0 0 0
SMALL
GASTEIGER

@<TRIPOS>ATOM
      1 C          -3.2113   -0.8635    3.2111 C.3     1  UNL1        0.0790
      2 O          -4.2995   -0.6141    2.3801 O.3     1  UNL1       -0.4913
      3 C          -4.2146   -0.0135    1.1302 C.ar    1  UNL1        0.1669
      4 C          -2.9433    0.3681    0.6768 C.ar    1  UNL1        0.0052
      5 C          -2.8426    0.9683   -0.5686 C.ar    1  UNL1        0.0407
      6 N          -1.5613    1.3909   -1.0728 N.pl3   1  UNL1       -0.2833
      7 C          -0.4957    1.0409   -0.2196 C.ar    1  UNL1        0.2212
      8 N           0.3436    0.0141   -0.3436 N.ar    1  UNL1       -0.1990
      9 C           1.3317   -0.3054    0.4973 C.ar    1  UNL1        0.1303
     10 C           1.5197    0.5088    1.6259 C.ar    1  UNL1       -0.0031
     11 C           0.6451    1.5678    1.7394 C.ar    1  UNL1        0.0345
     12 N          -0.3508    1.8583    0.8582 N.ar    1  UNL1       -0.2225
     13 N           2.2230   -1.3998    0.3364 N.pl3   1  UNL1       -0.2880
     14 C           1.7734   -2.7254    0.7134 C.3     1  UNL1        0.0071
     15 C           3.5266   -1.1490   -0.1672 C.ar    1  UNL1        0.0368
     16 C           3.8981    0.1324   -0.5132 C.ar    1  UNL1       -0.0149
     17 C           5.1774    0.3274   -0.9759 C.ar    1  UNL1        0.0678
     18 C           6.1668   -0.6395   -1.1406 C.ar    1  UNL1        0.0225
     19 C           5.7327   -1.9204   -0.7745 C.ar    1  UNL1       -0.0491
     20 C           4.4479   -2.1899   -0.2975 C.ar    1  UNL1       -0.0396
     21 C           7.3155   -0.0979   -1.6153 C.ar    1  UNL1        0.0674
     22 C           8.5737   -0.8262   -1.9061 C.3     1  UNL1       -0.0200
     23 N           7.0569    1.2317   -1.7552 N.ar    1  UNL1       -0.1780
     24 N           5.8208    1.4611   -1.3838 N.ar    1  UNL1       -0.2767
     25 C          -3.9630    1.1808   -1.3355 C.ar    1  UNL1        0.0052
     26 C          -5.2115    0.8070   -0.8912 C.ar    1  UNL1        0.1669
     27 O          -6.4482    0.9312   -1.5026 O.3     1  UNL1       -0.4913
     28 C          -6.5383    1.5241   -2.7813 C.3     1  UNL1        0.0790
     29 C          -5.3440    0.1991    0.3623 C.ar    1  UNL1        0.2036
     30 O          -6.5395   -0.2343    0.9493 O.3     1  UNL1       -0.4885
     31 C          -7.1996    0.7441    1.7537 C.3     1  UNL1        0.0791
     32 H          -3.5380   -1.6989    3.9012 H       1  UNL1        0.0660
     33 H          -2.3152   -1.2763    2.7085 H       1  UNL1        0.0660
     34 H          -2.9709   -0.0110    3.8975 H       1  UNL1        0.0660
     35 H          -2.1074    0.1816    1.3053 H       1  UNL1        0.0674
     36 H          -1.5048    1.8987   -1.9815 H       1  UNL1        0.1550
     37 H           2.2752    0.3760    2.3921 H       1  UNL1        0.0667
     38 H           0.7527    2.2322    2.6040 H       1  UNL1        0.0832
     39 H           1.5222   -3.3701   -0.1296 H       1  UNL1        0.0432
     40 H           2.5638   -3.2486    1.3223 H       1  UNL1        0.0432
     41 H           0.8299   -2.6430    1.3272 H       1  UNL1        0.0432
     42 H           3.2204    0.9550   -0.4306 H       1  UNL1        0.0657
     43 H           6.4661   -2.7187   -0.8844 H       1  UNL1        0.0625
     44 H           4.2060   -3.2225   -0.0400 H       1  UNL1        0.0636
     45 H           9.3430   -0.0442   -2.1868 H       1  UNL1        0.0293
     46 H           8.9271   -1.3184   -0.9726 H       1  UNL1        0.0293
     47 H           8.4852   -1.5922   -2.6885 H       1  UNL1        0.0293
     48 H           5.3360    2.4029   -1.3815 H       1  UNL1        0.1889
     49 H          -3.9532    1.6375   -2.3099 H       1  UNL1        0.0674
     50 H          -5.7652    2.2914   -2.8640 H       1  UNL1        0.0660
     51 H          -7.5171    2.0637   -2.9179 H       1  UNL1        0.0660
     52 H          -6.5345    0.7489   -3.5767 H       1  UNL1        0.0660
     53 H          -7.8414    0.2868    2.5305 H       1  UNL1        0.0660
     54 H          -7.8285    1.4051    1.1220 H       1  UNL1        0.0660
     55 H          -6.4411    1.3870    2.2638 H       1  UNL1        0.0660
@<TRIPOS>BOND
     1     1     2    1
     2     2     3    1
     3     3     4   ar
     4     4     5   ar
     5     5     6    1
     6     6     7    1
     7     7     8   ar
     8     8     9   ar
     9     9    10   ar
    10    10    11   ar
    11    11    12   ar
    12     9    13    1
    13    13    14    1
    14    13    15    1
    15    15    16   ar
    16    16    17   ar
    17    17    18   ar
    18    18    19   ar
    19    19    20   ar
    20    18    21   ar
    21    21    22    1
    22    21    23   ar
    23    23    24   ar
    24     5    25   ar
    25    25    26   ar
    26    26    27    1
    27    27    28    1
    28    26    29   ar
    29    29    30    1
    30    30    31    1
    31    29     3   ar
    32    12     7   ar
    33    20    15   ar
    34    24    17   ar
    35     1    32    1
    36     1    33    1
    37     1    34    1
    38     4    35    1
    39     6    36    1
    40    10    37    1
    41    11    38    1
    42    14    39    1
    43    14    40    1
    44    14    41    1
    45    16    42    1
    46    19    43    1
    47    20    44    1
    48    22    45    1
    49    22    46    1
    50    22    47    1
    51    24    48    1
    52    25    49    1
    53    28    50    1
    54    28    51    1
    55    28    52    1
    56    31    53    1
    57    31    54    1
    58    31    55    1
