
     RDKit          3D

 41 42  0  0  0  0  0  0  0  0999 V2000
    2.4561    1.2057    3.8497 C   0  0  0  0  0  0  0  0  0  0  0  0
    2.2582    0.4727    2.5589 C   0  0  0  0  0  0  0  0  0  0  0  0
    1.0769    0.5494    1.9206 N   0  0  0  0  0  0  0  0  0  0  0  0
    0.8428   -0.0850    0.7623 C   0  0  0  0  0  0  0  0  0  0  0  0
   -0.4217    0.0052    0.0927 N   0  0  0  0  0  0  0  0  0  0  0  0
   -1.4908    0.1873    0.7571 N   0  0  0  0  0  0  0  0  0  0  0  0
   -2.7654    0.2830    0.1394 C   0  0  0  0  0  0  0  0  0  0  0  0
   -2.8714    0.4355   -1.2165 C   0  0  0  0  0  0  0  0  0  0  0  0
   -4.1113    0.5269   -1.8011 C   0  0  0  0  0  0  0  0  0  0  0  0
   -5.2769    0.4703   -1.0635 C   0  0  0  0  0  0  0  0  0  0  0  0
   -6.5987    0.5686   -1.6963 C   0  0  0  0  0  0  0  0  0  0  0  0
   -7.6139    0.5099   -0.9688 O   0  0  0  0  0  0  0  0  0  0  0  0
   -6.6758    0.7216   -3.0638 O   0  0  0  0  0  0  0  0  0  0  0  0
   -5.1332    0.3163    0.2991 C   0  0  0  0  0  0  0  0  0  0  0  0
   -3.9013    0.2223    0.9085 C   0  0  0  0  0  0  0  0  0  0  0  0
    1.8681   -0.8548    0.1996 C   0  0  0  0  0  0  0  0  0  0  0  0
    1.5585   -1.5526   -1.0528 C   0  0  0  0  0  0  0  0  0  0  0  0
    1.4218   -0.7719   -2.1593 O   0  0  0  0  0  0  0  0  0  0  0  0
    2.7105    0.1551   -2.6205 P   0  0  0  0  0  5  0  0  0  0  0  0
    3.2673    1.0129   -1.4841 O   0  0  0  0  0  0  0  0  0  0  0  0
    2.1634    1.2849   -3.7882 O   0  0  0  0  0  0  0  0  0  0  0  0
    3.9522   -0.7039   -3.3661 O   0  0  0  0  0  0  0  0  0  0  0  0
    3.0943   -0.9728    0.8026 C   0  0  0  0  0  0  0  0  0  0  0  0
    4.1621   -1.7791    0.2477 C   0  0  0  0  0  0  0  0  0  0  0  0
    5.0231   -1.3419   -0.5429 O   0  0  0  0  0  0  0  0  0  0  0  0
    3.2693   -0.2831    2.0100 C   0  0  0  0  0  0  0  0  0  0  0  0
    4.5011   -0.3975    2.6212 O   0  0  0  0  0  0  0  0  0  0  0  0
    2.7366    2.2627    3.6659 H   0  0  0  0  0  0  0  0  0  0  0  0
    3.2995    0.7187    4.3788 H   0  0  0  0  0  0  0  0  0  0  0  0
    1.5569    1.1292    4.5002 H   0  0  0  0  0  0  0  0  0  0  0  0
   -1.9813    0.4845   -1.8311 H   0  0  0  0  0  0  0  0  0  0  0  0
   -4.2035    0.6495   -2.8914 H   0  0  0  0  0  0  0  0  0  0  0  0
   -7.5762    0.9194   -3.4765 H   0  0  0  0  0  0  0  0  0  0  0  0
   -6.0519    0.2691    0.9052 H   0  0  0  0  0  0  0  0  0  0  0  0
   -3.8588    0.1009    1.9975 H   0  0  0  0  0  0  0  0  0  0  0  0
    0.5608   -2.0605   -0.8952 H   0  0  0  0  0  0  0  0  0  0  0  0
    2.2637   -2.4116   -1.1969 H   0  0  0  0  0  0  0  0  0  0  0  0
    2.9287    1.6686   -4.2811 H   0  0  0  0  0  0  0  0  0  0  0  0
    4.8091   -0.2342   -3.2007 H   0  0  0  0  0  0  0  0  0  0  0  0
    4.2061   -2.8251    0.5446 H   0  0  0  0  0  0  0  0  0  0  0  0
    4.5450   -0.8559    3.5197 H   0  0  0  0  0  0  0  0  0  0  0  0
  1  2  1  0
  2  3  2  0
  3  4  1  0
  4  5  1  0
  5  6  2  3
  6  7  1  0
  7  8  2  0
  8  9  1  0
  9 10  2  0
 10 11  1  0
 11 12  2  0
 11 13  1  0
 10 14  1  0
 14 15  2  0
  4 16  2  0
 16 17  1  0
 17 18  1  0
 18 19  1  0
 19 20  2  0
 19 21  1  0
 19 22  1  0
 16 23  1  0
 23 24  1  0
 24 25  2  0
 23 26  2  0
 26 27  1  0
 26  2  1  0
 15  7  1  0
  1 28  1  0
  1 29  1  0
  1 30  1  0
  8 31  1  0
  9 32  1  0
 13 33  1  0
 14 34  1  0
 15 35  1  0
 17 36  1  0
 17 37  1  0
 21 38  1  0
 22 39  1  0
 24 40  1  0
 27 41  1  0
M  END
$$$$
