@<TRIPOS>MOLECULE
*****
 41 42 0 0 0
SMALL
GASTEIGER

@<TRIPOS>ATOM
      1 C           2.4561    1.2057    3.8497 C.3     1  UNL1       -0.0187
      2 C           2.2582    0.4727    2.5589 C.ar    1  UNL1        0.0826
      3 N           1.0769    0.5494    1.9206 N.ar    1  UNL1       -0.2276
      4 C           0.8428   -0.0850    0.7623 C.ar    1  UNL1        0.1812
      5 N          -0.4217    0.0052    0.0927 N.2     1  UNL1       -0.1288
      6 N          -1.4908    0.1873    0.7571 N.2     1  UNL1       -0.1478
      7 C          -2.7654    0.2830    0.1394 C.ar    1  UNL1        0.0863
      8 C          -2.8714    0.4355   -1.2165 C.ar    1  UNL1       -0.0338
      9 C          -4.1113    0.5269   -1.8011 C.ar    1  UNL1       -0.0457
     10 C          -5.2769    0.4703   -1.0635 C.ar    1  UNL1        0.0590
     11 C          -6.5987    0.5686   -1.6963 C.2     1  UNL1        0.3368
     12 O          -7.6139    0.5099   -0.9688 O.2     1  UNL1       -0.2451
     13 O          -6.6758    0.7216   -3.0638 O.3     1  UNL1       -0.4771
     14 C          -5.1332    0.3163    0.2991 C.ar    1  UNL1       -0.0457
     15 C          -3.9013    0.2223    0.9085 C.ar    1  UNL1       -0.0338
     16 C           1.8681   -0.8548    0.1996 C.ar    1  UNL1        0.0382
     17 C           1.5585   -1.5526   -1.0528 C.3     1  UNL1        0.0884
     18 O           1.4218   -0.7719   -2.1593 O.3     1  UNL1       -0.2819
     19 P           2.7105    0.1551   -2.6205 P.3     1  UNL1        0.4727
     20 O           3.2673    1.0129   -1.4841 O.2     1  UNL1       -0.2275
     21 O           2.1634    1.2849   -3.7882 O.3     1  UNL1       -0.3026
     22 O           3.9522   -0.7039   -3.3661 O.3     1  UNL1       -0.3026
     23 C           3.0943   -0.9728    0.8026 C.ar    1  UNL1        0.0663
     24 C           4.1621   -1.7791    0.2477 C.2     1  UNL1        0.1542
     25 O           5.0231   -1.3419   -0.5429 O.2     1  UNL1       -0.2956
     26 C           3.2693   -0.2831    2.0100 C.ar    1  UNL1        0.1484
     27 O           4.5011   -0.3975    2.6212 O.3     1  UNL1       -0.5043
     28 H           2.7366    2.2627    3.6659 H       1  UNL1        0.0294
     29 H           3.2995    0.7187    4.3788 H       1  UNL1        0.0294
     30 H           1.5569    1.1292    4.5002 H       1  UNL1        0.0294
     31 H          -1.9813    0.4845   -1.8311 H       1  UNL1        0.0639
     32 H          -4.2035    0.6495   -2.8914 H       1  UNL1        0.0626
     33 H          -7.5762    0.9194   -3.4765 H       1  UNL1        0.2954
     34 H          -6.0519    0.2691    0.9052 H       1  UNL1        0.0626
     35 H          -3.8588    0.1009    1.9975 H       1  UNL1        0.0639
     36 H           0.5608   -2.0605   -0.8952 H       1  UNL1        0.0617
     37 H           2.2637   -2.4116   -1.1969 H       1  UNL1        0.0617
     38 H           2.9287    1.6686   -4.2811 H       1  UNL1        0.2220
     39 H           4.8091   -0.2342   -3.2007 H       1  UNL1        0.2220
     40 H           4.2061   -2.8251    0.5446 H       1  UNL1        0.1083
     41 H           4.5450   -0.8559    3.5197 H       1  UNL1        0.2922
@<TRIPOS>BOND
     1     1     2    1
     2     2     3   ar
     3     3     4   ar
     4     4     5    1
     5     5     6    2
     6     6     7    1
     7     7     8   ar
     8     8     9   ar
     9     9    10   ar
    10    10    11    1
    11    11    12    2
    12    11    13    1
    13    10    14   ar
    14    14    15   ar
    15     4    16   ar
    16    16    17    1
    17    17    18    1
    18    18    19    1
    19    19    20    2
    20    19    21    1
    21    19    22    1
    22    16    23   ar
    23    23    24    1
    24    24    25    2
    25    23    26   ar
    26    26    27    1
    27    26     2   ar
    28    15     7   ar
    29     1    28    1
    30     1    29    1
    31     1    30    1
    32     8    31    1
    33     9    32    1
    34    13    33    1
    35    14    34    1
    36    15    35    1
    37    17    36    1
    38    17    37    1
    39    21    38    1
    40    22    39    1
    41    24    40    1
    42    27    41    1
