@<TRIPOS>MOLECULE
*****
 63 66 0 0 0
SMALL
GASTEIGER

@<TRIPOS>ATOM
      1 C          -7.4056   -0.1884    2.1092 C.3     1  UNL1       -0.0652
      2 C          -6.0438   -0.2303    2.6403 C.3     1  UNL1       -0.0539
      3 C          -4.8757   -0.7188    1.8876 C.3     1  UNL1       -0.0284
      4 C          -4.5684   -0.0181    0.6496 C.3     1  UNL1        0.0748
      5 C          -5.4285   -0.0503   -0.5279 C.ar    1  UNL1       -0.0164
      6 C          -6.4624   -0.9376   -0.7170 C.ar    1  UNL1       -0.0561
      7 C          -7.3021   -0.7674   -1.7787 C.ar    1  UNL1       -0.0614
      8 C          -7.1533    0.2651   -2.6773 C.ar    1  UNL1       -0.0611
      9 C          -6.1211    1.1545   -2.5048 C.ar    1  UNL1       -0.0528
     10 C          -5.2540    0.9912   -1.4284 C.ar    1  UNL1       -0.0004
     11 C          -3.9850    1.7419   -1.4166 C.2     1  UNL1        0.0534
     12 N          -3.0738    1.3845   -0.5881 N.2     1  UNL1       -0.1841
     13 N          -3.2282    0.2889    0.3091 N.am    1  UNL1       -0.1822
     14 C          -2.0595   -0.3715    0.7580 C.2     1  UNL1        0.2592
     15 O          -2.0718   -1.3466    1.5416 O.2     1  UNL1       -0.2689
     16 C          -0.7221    0.0830    0.3005 C.2     1  UNL1        0.0027
     17 C           0.3681   -0.4852    0.6802 C.2     1  UNL1       -0.0460
     18 C           1.7380   -0.1692    0.3266 C.ar    1  UNL1        0.0207
     19 C           2.7765   -0.8235    1.0136 C.ar    1  UNL1       -0.0474
     20 C           4.0865   -0.6003    0.7575 C.ar    1  UNL1       -0.0387
     21 C           5.1818   -1.2921    1.5025 C.3     1  UNL1        0.0024
     22 C           6.5036   -0.7165    1.1804 C.ar    1  UNL1        0.0146
     23 C           7.1246    0.1703    2.0324 C.ar    1  UNL1        0.0379
     24 N           8.3241    0.6993    1.7357 N.ar    1  UNL1       -0.2227
     25 C           8.9884    0.3933    0.5887 C.ar    1  UNL1        0.2142
     26 N          10.2509    0.9572    0.2873 N.pl3   1  UNL1       -0.3274
     27 N           8.3802   -0.4723   -0.2406 N.ar    1  UNL1       -0.1999
     28 C           7.1805   -1.0327    0.0052 C.ar    1  UNL1        0.1247
     29 N           6.5596   -1.9415   -0.8676 N.pl3   1  UNL1       -0.3428
     30 C           4.4011    0.3097   -0.2205 C.ar    1  UNL1       -0.0130
     31 C           3.4192    0.9706   -0.9173 C.ar    1  UNL1        0.1593
     32 O           3.7152    1.8913   -1.9071 O.3     1  UNL1       -0.5033
     33 C           2.0638    0.7250   -0.6388 C.ar    1  UNL1        0.1684
     34 O           1.1217    1.4421   -1.4126 O.3     1  UNL1       -0.4909
     35 C           0.8129    0.7712   -2.6581 C.3     1  UNL1        0.0790
     36 H          -8.1221    0.1965    2.9254 H       1  UNL1        0.0230
     37 H          -7.8393   -1.1491    1.7688 H       1  UNL1        0.0230
     38 H          -7.5972    0.5644    1.3035 H       1  UNL1        0.0230
     39 H          -6.1142   -0.7576    3.6645 H       1  UNL1        0.0263
     40 H          -5.8392    0.8462    3.0241 H       1  UNL1        0.0263
     41 H          -3.9781   -0.5511    2.5842 H       1  UNL1        0.0287
     42 H          -4.8634   -1.8447    1.7920 H       1  UNL1        0.0287
     43 H          -4.8872    1.1297    1.0410 H       1  UNL1        0.0571
     44 H          -6.5416   -1.7701   -0.0212 H       1  UNL1        0.0621
     45 H          -8.1171   -1.4854   -1.9063 H       1  UNL1        0.0618
     46 H          -7.8474    0.3596   -3.5006 H       1  UNL1        0.0618
     47 H          -5.9505    1.9857   -3.1763 H       1  UNL1        0.0624
     48 H          -3.8699    2.5649   -2.1063 H       1  UNL1        0.0851
     49 H          -0.6766    0.9306   -0.3462 H       1  UNL1        0.0670
     50 H           0.2143   -1.3469    1.3811 H       1  UNL1        0.0626
     51 H           2.5283   -1.5405    1.7849 H       1  UNL1        0.0627
     52 H           5.1287   -2.3651    1.1545 H       1  UNL1        0.0363
     53 H           4.9861   -1.3364    2.5874 H       1  UNL1        0.0363
     54 H           6.5966    0.4183    2.9516 H       1  UNL1        0.0834
     55 H          11.1207    0.4789    0.5813 H       1  UNL1        0.1452
     56 H          10.3251    1.8514   -0.2287 H       1  UNL1        0.1452
     57 H           6.1876   -1.6048   -1.7737 H       1  UNL1        0.1437
     58 H           6.4603   -2.9457   -0.6340 H       1  UNL1        0.1437
     59 H           5.4274    0.5640   -0.4946 H       1  UNL1        0.0658
     60 H           3.7875    2.8743   -1.7766 H       1  UNL1        0.2923
     61 H           0.8715   -0.3197   -2.5504 H       1  UNL1        0.0660
     62 H          -0.2083    1.0768   -2.9409 H       1  UNL1        0.0660
     63 H           1.5771    1.0991   -3.3895 H       1  UNL1        0.0660
@<TRIPOS>BOND
     1     1     2    1
     2     2     3    1
     3     3     4    1
     4     4     5    1
     5     5     6   ar
     6     6     7   ar
     7     7     8   ar
     8     8     9   ar
     9     9    10   ar
    10    10    11    1
    11    11    12    2
    12    12    13    1
    13    13    14   am
    14    14    15    2
    15    14    16    1
    16    16    17    2
    17    17    18    1
    18    18    19   ar
    19    19    20   ar
    20    20    21    1
    21    21    22    1
    22    22    23   ar
    23    23    24   ar
    24    24    25   ar
    25    25    26    1
    26    25    27   ar
    27    27    28   ar
    28    28    29    1
    29    20    30   ar
    30    30    31   ar
    31    31    32    1
    32    31    33   ar
    33    33    34    1
    34    34    35    1
    35    13     4    1
    36    33    18   ar
    37    10     5   ar
    38    28    22   ar
    39     1    36    1
    40     1    37    1
    41     1    38    1
    42     2    39    1
    43     2    40    1
    44     3    41    1
    45     3    42    1
    46     4    43    1
    47     6    44    1
    48     7    45    1
    49     8    46    1
    50     9    47    1
    51    11    48    1
    52    16    49    1
    53    17    50    1
    54    19    51    1
    55    21    52    1
    56    21    53    1
    57    23    54    1
    58    26    55    1
    59    26    56    1
    60    29    57    1
    61    29    58    1
    62    30    59    1
    63    32    60    1
    64    35    61    1
    65    35    62    1
    66    35    63    1
