@<TRIPOS>MOLECULE
*****
 83 87 0 0 0
SMALL
GASTEIGER

@<TRIPOS>ATOM
      1 C           5.5292    3.2367    2.0094 C.3     1  UNL1        0.0124
      2 C           5.1514    1.8545    1.5523 C.2     1  UNL1        0.2129
      3 O           5.2006    0.9489    2.4086 O.2     1  UNL1       -0.2759
      4 N           4.7654    1.6589    0.1849 N.am    1  UNL1       -0.2949
      5 C           4.7404    2.7486   -0.7219 C.3     1  UNL1        0.0040
      6 C           4.4141    0.2667   -0.1483 C.3     1  UNL1        0.0645
      7 C           5.6385   -0.5096    0.0977 C.ar    1  UNL1       -0.0239
      8 C           5.7906   -1.5221    1.0051 C.ar    1  UNL1       -0.0565
      9 C           7.0001   -2.2106    1.1847 C.ar    1  UNL1       -0.0614
     10 C           8.0935   -1.8663    0.4220 C.ar    1  UNL1       -0.0617
     11 C           7.9440   -0.8524   -0.4885 C.ar    1  UNL1       -0.0614
     12 C           6.7664   -0.1798   -0.6653 C.ar    1  UNL1       -0.0565
     13 C           3.2759   -0.1938    0.6920 C.3     1  UNL1       -0.0144
     14 C           2.2084   -0.8885   -0.2287 C.3     1  UNL1        0.0011
     15 N           1.6563    0.1137   -1.0069 N.3     1  UNL1       -0.3022
     16 C           0.4772    0.0756   -1.7243 C.3     1  UNL1       -0.0011
     17 C          -0.8659   -0.0023   -1.1570 C.3     1  UNL1       -0.0394
     18 C          -1.2011   -1.2621   -0.4390 C.3     1  UNL1       -0.0408
     19 C          -2.6448   -1.2653    0.1144 C.3     1  UNL1        0.0116
     20 C          -2.8078   -2.5901    0.7487 C.ar    1  UNL1       -0.0382
     21 C          -2.4820   -2.8422    2.0534 C.ar    1  UNL1       -0.0565
     22 C          -2.6529   -4.1056    2.6131 C.ar    1  UNL1       -0.0417
     23 C          -3.1505   -5.1234    1.8658 C.ar    1  UNL1        0.0593
     24 CL         -3.3619   -6.7099    2.5773 Cl      1  UNL1       -0.0820
     25 C          -3.4762   -4.8706    0.5587 C.ar    1  UNL1        0.0595
     26 CL         -4.1220   -6.1739   -0.4209 Cl      1  UNL1       -0.0820
     27 C          -3.3185   -3.6386   -0.0152 C.ar    1  UNL1       -0.0382
     28 C          -3.5995   -1.0768   -1.0354 C.3     1  UNL1       -0.0405
     29 C          -5.0238   -1.2072   -0.5490 C.3     1  UNL1       -0.0363
     30 C          -5.2711   -0.1584    0.5149 C.3     1  UNL1        0.0150
     31 N          -4.0784    0.6326    0.7337 N.am    1  UNL1       -0.2967
     32 C          -4.0989    2.0516    0.6290 C.2     1  UNL1        0.2466
     33 O          -3.0784    2.7559    0.8083 O.2     1  UNL1       -0.2700
     34 C          -5.3460    2.7592    0.3013 C.ar    1  UNL1        0.0369
     35 C          -5.9166    3.5875    1.2273 C.ar    1  UNL1       -0.0496
     36 C          -7.0955    4.2815    0.9800 C.ar    1  UNL1       -0.0610
     37 C          -7.6750    4.0979   -0.2554 C.ar    1  UNL1       -0.0617
     38 C          -7.0953    3.2586   -1.1917 C.ar    1  UNL1       -0.0610
     39 C          -5.9379    2.5840   -0.9356 C.ar    1  UNL1       -0.0496
     40 C          -2.8732   -0.1186    1.0720 C.3     1  UNL1        0.0246
     41 C           2.7016    0.5289   -1.9850 C.3     1  UNL1        0.0011
     42 C           4.0761    0.1215   -1.6267 C.3     1  UNL1       -0.0144
     43 H           4.6417    3.8705    1.8827 H       1  UNL1        0.0323
     44 H           6.4226    3.6114    1.4353 H       1  UNL1        0.0323
     45 H           5.8285    3.2476    3.0673 H       1  UNL1        0.0323
     46 H           5.3188    3.5895   -0.2644 H       1  UNL1        0.0429
     47 H           3.7233    3.1840   -0.8787 H       1  UNL1        0.0429
     48 H           5.1749    2.5989   -1.7103 H       1  UNL1        0.0429
     49 H           5.0001   -1.8609    1.6377 H       1  UNL1        0.0621
     50 H           7.1065   -3.0002    1.8982 H       1  UNL1        0.0618
     51 H           9.0575   -2.3697    0.5278 H       1  UNL1        0.0618
     52 H           8.8059   -0.5687   -1.1028 H       1  UNL1        0.0618
     53 H           6.7377    0.6042   -1.4074 H       1  UNL1        0.0621
     54 H           2.7146    0.7337    1.0343 H       1  UNL1        0.0302
     55 H           3.4540   -0.7735    1.5633 H       1  UNL1        0.0302
     56 H           2.8250   -1.6511   -0.7891 H       1  UNL1        0.0427
     57 H           1.6270   -1.4613    0.4777 H       1  UNL1        0.0427
     58 H           0.5198   -0.7400   -2.5437 H       1  UNL1        0.0426
     59 H           0.4901    1.0075   -2.4156 H       1  UNL1        0.0426
     60 H          -1.5900    0.0460   -2.0417 H       1  UNL1        0.0278
     61 H          -1.1720    0.9098   -0.5744 H       1  UNL1        0.0278
     62 H          -1.2241   -2.1249   -1.1734 H       1  UNL1        0.0275
     63 H          -0.5224   -1.5726    0.3480 H       1  UNL1        0.0275
     64 H          -2.0748   -2.1037    2.7149 H       1  UNL1        0.0621
     65 H          -2.3897   -4.2974    3.6551 H       1  UNL1        0.0633
     66 H          -3.5884   -3.5101   -1.0646 H       1  UNL1        0.0635
     67 H          -3.5160   -0.0237   -1.4096 H       1  UNL1        0.0275
     68 H          -3.3805   -1.7095   -1.9174 H       1  UNL1        0.0275
     69 H          -5.2942   -2.1763   -0.1428 H       1  UNL1        0.0281
     70 H          -5.6943   -1.0068   -1.4288 H       1  UNL1        0.0281
     71 H          -5.4868   -0.6542    1.5027 H       1  UNL1        0.0465
     72 H          -6.1536    0.4271    0.2551 H       1  UNL1        0.0465
     73 H          -5.4691    3.7338    2.1870 H       1  UNL1        0.0625
     74 H          -7.5602    4.9293    1.6835 H       1  UNL1        0.0618
     75 H          -8.5907    4.6227   -0.4749 H       1  UNL1        0.0618
     76 H          -7.5499    3.1151   -2.1609 H       1  UNL1        0.0618
     77 H          -5.5080    1.9361   -1.6883 H       1  UNL1        0.0625
     78 H          -2.0018    0.5216    1.2325 H       1  UNL1        0.0473
     79 H          -3.1265   -0.5670    2.0825 H       1  UNL1        0.0473
     80 H           2.6086    1.5822   -2.2471 H       1  UNL1        0.0427
     81 H           2.4301   -0.0577   -2.9178 H       1  UNL1        0.0427
     82 H           4.3325   -0.9494   -1.8857 H       1  UNL1        0.0302
     83 H           4.8172    0.7132   -2.1877 H       1  UNL1        0.0302
@<TRIPOS>BOND
     1     1     2    1
     2     2     3    2
     3     2     4   am
     4     4     5    1
     5     4     6    1
     6     6     7    1
     7     7     8   ar
     8     8     9   ar
     9     9    10   ar
    10    10    11   ar
    11    11    12   ar
    12     6    13    1
    13    13    14    1
    14    14    15    1
    15    15    16    1
    16    16    17    1
    17    17    18    1
    18    19    18    1
    19    19    20    1
    20    20    21   ar
    21    21    22   ar
    22    22    23   ar
    23    23    24    1
    24    23    25   ar
    25    25    26    1
    26    25    27   ar
    27    19    28    1
    28    28    29    1
    29    29    30    1
    30    30    31    1
    31    31    32   am
    32    32    33    2
    33    32    34    1
    34    34    35   ar
    35    35    36   ar
    36    36    37   ar
    37    37    38   ar
    38    38    39   ar
    39    31    40    1
    40    15    41    1
    41    41    42    1
    42    42     6    1
    43    12     7   ar
    44    40    19    1
    45    27    20   ar
    46    39    34   ar
    47     1    43    1
    48     1    44    1
    49     1    45    1
    50     5    46    1
    51     5    47    1
    52     5    48    1
    53     8    49    1
    54     9    50    1
    55    10    51    1
    56    11    52    1
    57    12    53    1
    58    13    54    1
    59    13    55    1
    60    14    56    1
    61    14    57    1
    62    16    58    1
    63    16    59    1
    64    17    60    1
    65    17    61    1
    66    18    62    1
    67    18    63    1
    68    21    64    1
    69    22    65    1
    70    27    66    1
    71    28    67    1
    72    28    68    1
    73    29    69    1
    74    29    70    1
    75    30    71    1
    76    30    72    1
    77    35    73    1
    78    36    74    1
    79    37    75    1
    80    38    76    1
    81    39    77    1
    82    40    78    1
    83    40    79    1
    84    41    80    1
    85    41    81    1
    86    42    82    1
    87    42    83    1
