
     RDKit          3D

 83 87  0  0  0  0  0  0  0  0999 V2000
    5.5292    3.2367    2.0094 C   0  0  0  0  0  0  0  0  0  0  0  0
    5.1514    1.8545    1.5523 C   0  0  0  0  0  0  0  0  0  0  0  0
    5.2006    0.9489    2.4086 O   0  0  0  0  0  0  0  0  0  0  0  0
    4.7654    1.6589    0.1849 N   0  0  0  0  0  0  0  0  0  0  0  0
    4.7404    2.7486   -0.7219 C   0  0  0  0  0  0  0  0  0  0  0  0
    4.4141    0.2667   -0.1483 C   0  0  0  0  0  0  0  0  0  0  0  0
    5.6385   -0.5096    0.0977 C   0  0  0  0  0  0  0  0  0  0  0  0
    5.7906   -1.5221    1.0051 C   0  0  0  0  0  0  0  0  0  0  0  0
    7.0001   -2.2106    1.1847 C   0  0  0  0  0  0  0  0  0  0  0  0
    8.0935   -1.8663    0.4220 C   0  0  0  0  0  0  0  0  0  0  0  0
    7.9440   -0.8524   -0.4885 C   0  0  0  0  0  0  0  0  0  0  0  0
    6.7664   -0.1798   -0.6653 C   0  0  0  0  0  0  0  0  0  0  0  0
    3.2759   -0.1938    0.6920 C   0  0  0  0  0  0  0  0  0  0  0  0
    2.2084   -0.8885   -0.2287 C   0  0  0  0  0  0  0  0  0  0  0  0
    1.6563    0.1137   -1.0069 N   0  0  0  0  0  0  0  0  0  0  0  0
    0.4772    0.0756   -1.7243 C   0  0  0  0  0  0  0  0  0  0  0  0
   -0.8659   -0.0023   -1.1570 C   0  0  0  0  0  0  0  0  0  0  0  0
   -1.2011   -1.2621   -0.4390 C   0  0  0  0  0  0  0  0  0  0  0  0
   -2.6448   -1.2653    0.1144 C   0  0  2  0  0  0  0  0  0  0  0  0
   -2.8078   -2.5901    0.7487 C   0  0  0  0  0  0  0  0  0  0  0  0
   -2.4820   -2.8422    2.0534 C   0  0  0  0  0  0  0  0  0  0  0  0
   -2.6529   -4.1056    2.6131 C   0  0  0  0  0  0  0  0  0  0  0  0
   -3.1505   -5.1234    1.8658 C   0  0  0  0  0  0  0  0  0  0  0  0
   -3.3619   -6.7099    2.5773 Cl  0  0  0  0  0  0  0  0  0  0  0  0
   -3.4762   -4.8706    0.5587 C   0  0  0  0  0  0  0  0  0  0  0  0
   -4.1220   -6.1739   -0.4209 Cl  0  0  0  0  0  0  0  0  0  0  0  0
   -3.3185   -3.6386   -0.0152 C   0  0  0  0  0  0  0  0  0  0  0  0
   -3.5995   -1.0768   -1.0354 C   0  0  0  0  0  0  0  0  0  0  0  0
   -5.0238   -1.2072   -0.5490 C   0  0  0  0  0  0  0  0  0  0  0  0
   -5.2711   -0.1584    0.5149 C   0  0  0  0  0  0  0  0  0  0  0  0
   -4.0784    0.6326    0.7337 N   0  0  0  0  0  0  0  0  0  0  0  0
   -4.0989    2.0516    0.6290 C   0  0  0  0  0  0  0  0  0  0  0  0
   -3.0784    2.7559    0.8083 O   0  0  0  0  0  0  0  0  0  0  0  0
   -5.3460    2.7592    0.3013 C   0  0  0  0  0  0  0  0  0  0  0  0
   -5.9166    3.5875    1.2273 C   0  0  0  0  0  0  0  0  0  0  0  0
   -7.0955    4.2815    0.9800 C   0  0  0  0  0  0  0  0  0  0  0  0
   -7.6750    4.0979   -0.2554 C   0  0  0  0  0  0  0  0  0  0  0  0
   -7.0953    3.2586   -1.1917 C   0  0  0  0  0  0  0  0  0  0  0  0
   -5.9379    2.5840   -0.9356 C   0  0  0  0  0  0  0  0  0  0  0  0
   -2.8732   -0.1186    1.0720 C   0  0  0  0  0  0  0  0  0  0  0  0
    2.7016    0.5289   -1.9850 C   0  0  0  0  0  0  0  0  0  0  0  0
    4.0761    0.1215   -1.6267 C   0  0  0  0  0  0  0  0  0  0  0  0
    4.6417    3.8705    1.8827 H   0  0  0  0  0  0  0  0  0  0  0  0
    6.4226    3.6114    1.4353 H   0  0  0  0  0  0  0  0  0  0  0  0
    5.8285    3.2476    3.0673 H   0  0  0  0  0  0  0  0  0  0  0  0
    5.3188    3.5895   -0.2644 H   0  0  0  0  0  0  0  0  0  0  0  0
    3.7233    3.1840   -0.8787 H   0  0  0  0  0  0  0  0  0  0  0  0
    5.1749    2.5989   -1.7103 H   0  0  0  0  0  0  0  0  0  0  0  0
    5.0001   -1.8609    1.6377 H   0  0  0  0  0  0  0  0  0  0  0  0
    7.1065   -3.0002    1.8982 H   0  0  0  0  0  0  0  0  0  0  0  0
    9.0575   -2.3697    0.5278 H   0  0  0  0  0  0  0  0  0  0  0  0
    8.8059   -0.5687   -1.1028 H   0  0  0  0  0  0  0  0  0  0  0  0
    6.7377    0.6042   -1.4074 H   0  0  0  0  0  0  0  0  0  0  0  0
    2.7146    0.7337    1.0343 H   0  0  0  0  0  0  0  0  0  0  0  0
    3.4540   -0.7735    1.5633 H   0  0  0  0  0  0  0  0  0  0  0  0
    2.8250   -1.6511   -0.7891 H   0  0  0  0  0  0  0  0  0  0  0  0
    1.6270   -1.4613    0.4777 H   0  0  0  0  0  0  0  0  0  0  0  0
    0.5198   -0.7400   -2.5437 H   0  0  0  0  0  0  0  0  0  0  0  0
    0.4901    1.0075   -2.4156 H   0  0  0  0  0  0  0  0  0  0  0  0
   -1.5900    0.0460   -2.0417 H   0  0  0  0  0  0  0  0  0  0  0  0
   -1.1720    0.9098   -0.5744 H   0  0  0  0  0  0  0  0  0  0  0  0
   -1.2241   -2.1249   -1.1734 H   0  0  0  0  0  0  0  0  0  0  0  0
   -0.5224   -1.5726    0.3480 H   0  0  0  0  0  0  0  0  0  0  0  0
   -2.0748   -2.1037    2.7149 H   0  0  0  0  0  0  0  0  0  0  0  0
   -2.3897   -4.2974    3.6551 H   0  0  0  0  0  0  0  0  0  0  0  0
   -3.5884   -3.5101   -1.0646 H   0  0  0  0  0  0  0  0  0  0  0  0
   -3.5160   -0.0237   -1.4096 H   0  0  0  0  0  0  0  0  0  0  0  0
   -3.3805   -1.7095   -1.9174 H   0  0  0  0  0  0  0  0  0  0  0  0
   -5.2942   -2.1763   -0.1428 H   0  0  0  0  0  0  0  0  0  0  0  0
   -5.6943   -1.0068   -1.4288 H   0  0  0  0  0  0  0  0  0  0  0  0
   -5.4868   -0.6542    1.5027 H   0  0  0  0  0  0  0  0  0  0  0  0
   -6.1536    0.4271    0.2551 H   0  0  0  0  0  0  0  0  0  0  0  0
   -5.4691    3.7338    2.1870 H   0  0  0  0  0  0  0  0  0  0  0  0
   -7.5602    4.9293    1.6835 H   0  0  0  0  0  0  0  0  0  0  0  0
   -8.5907    4.6227   -0.4749 H   0  0  0  0  0  0  0  0  0  0  0  0
   -7.5499    3.1151   -2.1609 H   0  0  0  0  0  0  0  0  0  0  0  0
   -5.5080    1.9361   -1.6883 H   0  0  0  0  0  0  0  0  0  0  0  0
   -2.0018    0.5216    1.2325 H   0  0  0  0  0  0  0  0  0  0  0  0
   -3.1265   -0.5670    2.0825 H   0  0  0  0  0  0  0  0  0  0  0  0
    2.6086    1.5822   -2.2471 H   0  0  0  0  0  0  0  0  0  0  0  0
    2.4301   -0.0577   -2.9178 H   0  0  0  0  0  0  0  0  0  0  0  0
    4.3325   -0.9494   -1.8857 H   0  0  0  0  0  0  0  0  0  0  0  0
    4.8172    0.7132   -2.1877 H   0  0  0  0  0  0  0  0  0  0  0  0
  1  2  1  0
  2  3  2  0
  2  4  1  0
  4  5  1  0
  4  6  1  0
  6  7  1  0
  7  8  2  0
  8  9  1  0
  9 10  2  0
 10 11  1  0
 11 12  2  0
  6 13  1  0
 13 14  1  0
 14 15  1  0
 15 16  1  0
 16 17  1  0
 17 18  1  0
 19 18  1  6
 19 20  1  0
 20 21  2  0
 21 22  1  0
 22 23  2  0
 23 24  1  0
 23 25  1  0
 25 26  1  0
 25 27  2  0
 19 28  1  0
 28 29  1  0
 29 30  1  0
 30 31  1  0
 31 32  1  0
 32 33  2  0
 32 34  1  0
 34 35  2  0
 35 36  1  0
 36 37  2  0
 37 38  1  0
 38 39  2  0
 31 40  1  0
 15 41  1  0
 41 42  1  0
 42  6  1  0
 12  7  1  0
 40 19  1  0
 27 20  1  0
 39 34  1  0
  1 43  1  0
  1 44  1  0
  1 45  1  0
  5 46  1  0
  5 47  1  0
  5 48  1  0
  8 49  1  0
  9 50  1  0
 10 51  1  0
 11 52  1  0
 12 53  1  0
 13 54  1  0
 13 55  1  0
 14 56  1  0
 14 57  1  0
 16 58  1  0
 16 59  1  0
 17 60  1  0
 17 61  1  0
 18 62  1  0
 18 63  1  0
 21 64  1  0
 22 65  1  0
 27 66  1  0
 28 67  1  0
 28 68  1  0
 29 69  1  0
 29 70  1  0
 30 71  1  0
 30 72  1  0
 35 73  1  0
 36 74  1  0
 37 75  1  0
 38 76  1  0
 39 77  1  0
 40 78  1  0
 40 79  1  0
 41 80  1  0
 41 81  1  0
 42 82  1  0
 42 83  1  0
M  END
$$$$
