@<TRIPOS>MOLECULE
*****
 54 57 0 0 0
SMALL
GASTEIGER

@<TRIPOS>ATOM
      1 C          -2.7786   -4.5303   -1.0735 C.3     1  UNL1        0.0127
      2 C          -1.4574   -3.7973   -1.0736 C.2     1  UNL1        0.2169
      3 O          -0.4952   -4.2049   -1.7277 O.2     1  UNL1       -0.2756
      4 N          -1.3844   -2.6117   -0.2783 N.am    1  UNL1       -0.2685
      5 C          -0.1261   -1.9251   -0.2244 C.ar    1  UNL1        0.0415
      6 C           1.0672   -2.6060   -0.2176 C.ar    1  UNL1       -0.0394
      7 C           2.2124   -1.8461   -0.1876 C.ar    1  UNL1       -0.0523
      8 C           2.2445   -0.4720   -0.1642 C.ar    1  UNL1       -0.0175
      9 C           3.4948    0.2857   -0.1337 C.ar    1  UNL1       -0.0178
     10 C           3.5718    1.5111    0.4998 C.ar    1  UNL1       -0.0533
     11 C           4.7588    2.2142    0.5192 C.ar    1  UNL1       -0.0472
     12 C           5.9110    1.7498   -0.0764 C.ar    1  UNL1        0.0589
     13 C           7.1540    2.5127   -0.0421 C.2     1  UNL1        0.3368
     14 O           7.1399    3.6193    0.5550 O.2     1  UNL1       -0.2451
     15 O           8.3211    2.0811   -0.6248 O.3     1  UNL1       -0.4771
     16 C           5.8358    0.5190   -0.7133 C.ar    1  UNL1       -0.0472
     17 C           4.6476   -0.1805   -0.7304 C.ar    1  UNL1       -0.0533
     18 C           1.0104    0.1905   -0.1712 C.ar    1  UNL1       -0.0473
     19 C          -0.1593   -0.5150   -0.2000 C.ar    1  UNL1       -0.0053
     20 C          -1.5320    0.0739   -0.1935 C.3     1  UNL1        0.0493
     21 N          -1.5074    1.4517    0.2137 N.pl3   1  UNL1       -0.3369
     22 C          -2.7061    2.2349    0.1118 C.ar    1  UNL1        0.0277
     23 C          -2.7033    3.5627    0.5312 C.ar    1  UNL1       -0.0395
     24 C          -3.8324    4.3506    0.4399 C.ar    1  UNL1       -0.0416
     25 C          -5.0121    3.8517   -0.0723 C.ar    1  UNL1        0.0411
     26 CL         -6.4406    4.8495   -0.1874 Cl      1  UNL1       -0.0835
     27 C          -5.0245    2.5422   -0.4889 C.ar    1  UNL1       -0.0416
     28 C          -3.8888    1.7599   -0.3940 C.ar    1  UNL1       -0.0395
     29 C          -2.2832   -0.7004    0.9176 C.3     1  UNL1       -0.0115
     30 C          -2.5219   -2.0956    0.4416 C.3     1  UNL1        0.0303
     31 C          -2.7480   -3.0315    1.6368 C.3     1  UNL1       -0.0460
     32 H          -3.5552   -3.7802   -1.3093 H       1  UNL1        0.0323
     33 H          -2.7102   -5.3191   -1.8623 H       1  UNL1        0.0323
     34 H          -2.9626   -5.0302   -0.1055 H       1  UNL1        0.0323
     35 H           1.0485   -3.6835   -0.2296 H       1  UNL1        0.0636
     36 H           3.1643   -2.3647   -0.1821 H       1  UNL1        0.0624
     37 H           2.6652    1.8827    0.9719 H       1  UNL1        0.0624
     38 H           4.8076    3.1742    1.0189 H       1  UNL1        0.0626
     39 H           9.1277    2.6869   -0.7956 H       1  UNL1        0.2954
     40 H           6.7380    0.1512   -1.1820 H       1  UNL1        0.0626
     41 H           4.5824   -1.1504   -1.2305 H       1  UNL1        0.0624
     42 H           1.0043    1.2507   -0.1604 H       1  UNL1        0.0628
     43 H          -2.0650   -0.0601   -1.1442 H       1  UNL1        0.0549
     44 H          -0.6640    1.9229    0.5905 H       1  UNL1        0.1467
     45 H          -1.7942    3.9834    0.9373 H       1  UNL1        0.0636
     46 H          -3.8137    5.3928    0.7740 H       1  UNL1        0.0633
     47 H          -5.9377    2.1364   -0.8916 H       1  UNL1        0.0633
     48 H          -3.9483    0.7461   -0.7390 H       1  UNL1        0.0636
     49 H          -3.1541   -0.1697    1.2850 H       1  UNL1        0.0304
     50 H          -1.5173   -0.7782    1.7504 H       1  UNL1        0.0304
     51 H          -3.4465   -2.1057   -0.1901 H       1  UNL1        0.0502
     52 H          -3.7416   -3.4924    1.5510 H       1  UNL1        0.0248
     53 H          -2.6329   -2.4234    2.5595 H       1  UNL1        0.0248
     54 H          -1.9629   -3.8135    1.6917 H       1  UNL1        0.0248
@<TRIPOS>BOND
     1     1     2    1
     2     2     3    2
     3     2     4   am
     4     4     5    1
     5     5     6   ar
     6     6     7   ar
     7     7     8   ar
     8     8     9    1
     9     9    10   ar
    10    10    11   ar
    11    11    12   ar
    12    12    13    1
    13    13    14    2
    14    13    15    1
    15    12    16   ar
    16    16    17   ar
    17     8    18   ar
    18    18    19   ar
    19    19    20    1
    20    20    21    1
    21    21    22    1
    22    22    23   ar
    23    23    24   ar
    24    24    25   ar
    25    25    26    1
    26    25    27   ar
    27    27    28   ar
    28    20    29    1
    29    29    30    1
    30    30    31    1
    31    30     4    1
    32    19     5   ar
    33    28    22   ar
    34    17     9   ar
    35     1    32    1
    36     1    33    1
    37     1    34    1
    38     6    35    1
    39     7    36    1
    40    10    37    1
    41    11    38    1
    42    15    39    1
    43    16    40    1
    44    17    41    1
    45    18    42    1
    46    20    43    1
    47    21    44    1
    48    23    45    1
    49    24    46    1
    50    27    47    1
    51    28    48    1
    52    29    49    1
    53    29    50    1
    54    30    51    1
    55    31    52    1
    56    31    53    1
    57    31    54    1
