@<TRIPOS>MOLECULE
*****
 37 40 0 0 0
SMALL
GASTEIGER

@<TRIPOS>ATOM
      1 O           0.5412   -1.0307    1.4292 O.2     1  UNL1       -0.2751
      2 C           0.2301   -0.0318    0.6899 C.2     1  UNL1        0.2219
      3 C          -0.9770    0.7128    1.0651 C.3     1  UNL1        0.0500
      4 C          -2.2246    0.0097    0.7292 C.ar    1  UNL1       -0.0308
      5 C          -2.8894   -0.8367    1.6249 C.ar    1  UNL1       -0.0575
      6 C          -4.0170   -1.5223    1.2446 C.ar    1  UNL1       -0.0609
      7 C          -4.5345   -1.4089   -0.0117 C.ar    1  UNL1       -0.0526
      8 C          -3.9054   -0.5819   -0.9215 C.ar    1  UNL1        0.0005
      9 C          -4.4328   -0.4484   -2.1810 C.ar    1  UNL1        0.0353
     10 N          -3.8126    0.3864   -3.0534 N.ar    1  UNL1       -0.2626
     11 C          -2.7109    1.0648   -2.6941 C.ar    1  UNL1        0.0282
     12 C          -2.1441    0.9658   -1.4497 C.ar    1  UNL1       -0.0356
     13 C          -2.7607    0.1125   -0.5298 C.ar    1  UNL1       -0.0114
     14 N           1.0998    0.2151   -0.3964 N.am    1  UNL1       -0.2791
     15 C           2.2491   -0.6161   -0.6314 C.ar    1  UNL1        0.0836
     16 S           2.1971   -2.1334   -1.5531 S.2     1  UNL1       -0.0801
     17 C           3.9001   -2.5264   -1.3830 C.ar    1  UNL1       -0.0078
     18 C           4.4024   -1.4823   -0.6374 C.ar    1  UNL1        0.0374
     19 BR          6.3024   -1.5228   -0.1949 Br      1  UNL1       -0.0490
     20 C           3.5383   -0.5124   -0.2639 C.ar    1  UNL1        0.0614
     21 C           3.9773    0.7030    0.4995 C.ar    1  UNL1        0.1648
     22 N           5.2228    0.9193    0.9329 N.ar    1  UNL1       -0.1295
     23 N           5.2590    2.1188    1.5468 N.ar    1  UNL1       -0.1377
     24 C           4.0328    2.6626    1.5008 C.ar    1  UNL1        0.1175
     25 N           3.2584    1.7582    0.8437 N.ar    1  UNL1       -0.3276
     26 H          -0.9126    1.7556    0.7046 H       1  UNL1        0.0407
     27 H          -1.0006    0.8533    2.2019 H       1  UNL1        0.0407
     28 H          -2.4699   -0.9218    2.6105 H       1  UNL1        0.0621
     29 H          -4.5520   -2.1960    1.9375 H       1  UNL1        0.0618
     30 H          -5.4233   -1.9421   -0.3422 H       1  UNL1        0.0624
     31 H          -5.3113   -0.9546   -2.5520 H       1  UNL1        0.0836
     32 H          -2.2028    1.7410   -3.3953 H       1  UNL1        0.0830
     33 H          -1.2790    1.5460   -1.2293 H       1  UNL1        0.0639
     34 H           0.9188    0.9889   -1.0433 H       1  UNL1        0.1553
     35 H           4.4154   -3.3956   -1.7761 H       1  UNL1        0.0705
     36 H           3.7596    3.6151    1.8960 H       1  UNL1        0.1046
     37 H           2.2558    1.9348    0.6714 H       1  UNL1        0.1683
@<TRIPOS>BOND
     1     1     2    2
     2     2     3    1
     3     3     4    1
     4     4     5   ar
     5     5     6   ar
     6     6     7   ar
     7     7     8   ar
     8     8     9   ar
     9     9    10   ar
    10    10    11   ar
    11    11    12   ar
    12    12    13   ar
    13     2    14   am
    14    14    15    1
    15    15    16   ar
    16    16    17   ar
    17    17    18   ar
    18    18    19    1
    19    18    20   ar
    20    20    21    1
    21    21    22   ar
    22    22    23   ar
    23    23    24   ar
    24    24    25   ar
    25    13     4   ar
    26    20    15   ar
    27    25    21   ar
    28    13     8   ar
    29     3    26    1
    30     3    27    1
    31     5    28    1
    32     6    29    1
    33     7    30    1
    34     9    31    1
    35    11    32    1
    36    12    33    1
    37    14    34    1
    38    17    35    1
    39    24    36    1
    40    25    37    1
