@<TRIPOS>MOLECULE
*****
 44 46 0 0 0
SMALL
GASTEIGER

@<TRIPOS>ATOM
      1 C          -6.1419    1.0347    1.0613 C.3     1  UNL1        0.0788
      2 O          -5.2810    0.4530    2.0128 O.3     1  UNL1       -0.4951
      3 C          -3.9561    0.2152    1.7254 C.ar    1  UNL1        0.1208
      4 C          -3.1499   -0.3645    2.7102 C.ar    1  UNL1       -0.0180
      5 C          -1.8254   -0.5878    2.3842 C.ar    1  UNL1       -0.0337
      6 C          -1.2857   -0.2679    1.1562 C.ar    1  UNL1        0.0574
      7 C          -2.1122    0.3024    0.2113 C.ar    1  UNL1        0.0077
      8 C          -3.4434    0.5442    0.4923 C.ar    1  UNL1       -0.0105
      9 C          -1.3351    0.5140   -0.8926 C.ar    1  UNL1       -0.0080
     10 C          -1.8069    1.1176   -2.1687 C.3     1  UNL1        0.0721
     11 C          -2.5987    0.1280   -2.9391 C.2     1  UNL1        0.3091
     12 O          -2.7676   -1.0205   -2.4665 O.2     1  UNL1       -0.2507
     13 O          -3.1579    0.4370   -4.1676 O.3     1  UNL1       -0.4804
     14 C          -0.0293    0.0768   -0.6383 C.ar    1  UNL1        0.0284
     15 C           1.0076    0.1197   -1.7024 C.3     1  UNL1       -0.0235
     16 N          -0.0214   -0.3929    0.6148 N.ar    1  UNL1       -0.2801
     17 C           1.0981   -0.8629    1.3336 C.2     1  UNL1        0.2631
     18 O           0.8118   -1.4885    2.4364 O.2     1  UNL1       -0.2667
     19 C           2.4772   -0.7215    0.9798 C.ar    1  UNL1        0.0399
     20 C           3.3940   -1.7577    1.1770 C.ar    1  UNL1       -0.0491
     21 C           4.7366   -1.6211    0.9431 C.ar    1  UNL1       -0.0567
     22 C           5.2493   -0.4265    0.4929 C.ar    1  UNL1       -0.0327
     23 C           6.7069   -0.2746    0.2383 C.3     1  UNL1        0.0476
     24 CL          7.4847    0.2781    1.7424 Cl      1  UNL1       -0.1204
     25 C           4.3645    0.6023    0.2940 C.ar    1  UNL1       -0.0567
     26 C           2.9922    0.4604    0.5344 C.ar    1  UNL1       -0.0491
     27 H          -6.1343    0.3857    0.1505 H       1  UNL1        0.0660
     28 H          -5.8901    2.0687    0.8075 H       1  UNL1        0.0660
     29 H          -7.1739    0.9378    1.4779 H       1  UNL1        0.0660
     30 H          -3.5718   -0.6156    3.6714 H       1  UNL1        0.0655
     31 H          -1.2302   -1.0307    3.1565 H       1  UNL1        0.0640
     32 H          -4.0697    0.9897   -0.2592 H       1  UNL1        0.0661
     33 H          -0.9481    1.4793   -2.7654 H       1  UNL1        0.0427
     34 H          -2.4317    2.0230   -1.9649 H       1  UNL1        0.0427
     35 H          -3.3176   -0.2498   -4.8844 H       1  UNL1        0.2951
     36 H           1.4933    1.1057   -1.7853 H       1  UNL1        0.0292
     37 H           1.7365   -0.6853   -1.6641 H       1  UNL1        0.0292
     38 H           0.4940    0.0004   -2.7238 H       1  UNL1        0.0292
     39 H           2.9820   -2.6904    1.5314 H       1  UNL1        0.0625
     40 H           5.4235   -2.4254    1.1000 H       1  UNL1        0.0621
     41 H           7.1745   -1.2076   -0.1395 H       1  UNL1        0.0478
     42 H           6.9076    0.5147   -0.5219 H       1  UNL1        0.0478
     43 H           4.7398    1.5484   -0.0581 H       1  UNL1        0.0621
     44 H           2.4056    1.3547    0.3686 H       1  UNL1        0.0625
@<TRIPOS>BOND
     1     1     2    1
     2     2     3    1
     3     3     4   ar
     4     4     5   ar
     5     5     6   ar
     6     6     7   ar
     7     7     8   ar
     8     7     9   ar
     9     9    10    1
    10    10    11    1
    11    11    12    2
    12    11    13    1
    13     9    14   ar
    14    14    15    1
    15    14    16   ar
    16    16    17   am
    17    17    18    2
    18    17    19    1
    19    19    20   ar
    20    20    21   ar
    21    21    22   ar
    22    22    23    1
    23    23    24    1
    24    22    25   ar
    25    25    26   ar
    26     8     3   ar
    27    26    19   ar
    28    16     6   ar
    29     1    27    1
    30     1    28    1
    31     1    29    1
    32     4    30    1
    33     5    31    1
    34     8    32    1
    35    10    33    1
    36    10    34    1
    37    13    35    1
    38    15    36    1
    39    15    37    1
    40    15    38    1
    41    20    39    1
    42    21    40    1
    43    23    41    1
    44    23    42    1
    45    25    43    1
    46    26    44    1
