
     RDKit          3D

 47 49  0  0  0  0  0  0  0  0999 V2000
   -0.1082    1.0731   -0.7644 C   0  0  2  0  0  0  0  0  0  0  0  0
    1.3456    1.0406   -0.5089 C   0  0  0  0  0  0  0  0  0  0  0  0
    2.0317   -0.2412   -0.5397 C   0  0  0  0  0  0  0  0  0  0  0  0
    2.7185   -0.5166   -1.7367 C   0  0  0  0  0  0  0  0  0  0  0  0
    3.4180   -1.6938   -1.9581 C   0  0  0  0  0  0  0  0  0  0  0  0
    3.4727   -2.6624   -0.9997 C   0  0  0  0  0  0  0  0  0  0  0  0
    2.8221   -2.4331    0.1700 C   0  0  0  0  0  0  0  0  0  0  0  0
    2.1433   -1.2697    0.3618 C   0  0  0  0  0  0  0  0  0  0  0  0
    1.4876   -1.0478    1.5568 O   0  0  0  0  0  0  0  0  0  0  0  0
    1.4342   -1.9180    2.6480 C   0  0  0  0  0  0  0  0  0  0  0  0
    4.0919   -1.8996   -3.2053 N   0  0  0  0  0  4  0  0  0  0  0  0
    4.0619   -0.9364   -4.2088 O   0  0  0  0  0  1  0  0  0  0  0  0
    4.7196   -2.9495   -3.4131 O   0  0  0  0  0  0  0  0  0  0  0  0
   -0.5413    2.5250   -0.6960 C   0  0  0  0  0  0  0  0  0  0  0  0
   -0.0328    3.4820    0.1770 C   0  0  0  0  0  0  0  0  0  0  0  0
   -0.6557    4.6506   -0.0540 N   0  0  0  0  0  0  0  0  0  0  0  0
   -1.5352    4.4245   -1.0521 C   0  0  0  0  0  0  0  0  0  0  0  0
   -2.3481    5.4948   -1.5167 N   0  0  0  0  0  0  0  0  0  0  0  0
   -1.4750    3.1412   -1.4488 N   0  0  0  0  0  0  0  0  0  0  0  0
   -0.9653    0.2864    0.1499 C   0  0  0  0  0  0  0  0  0  0  0  0
   -1.6215   -0.8376   -0.3112 C   0  0  0  0  0  0  0  0  0  0  0  0
   -2.4565   -1.5968    0.4868 C   0  0  0  0  0  0  0  0  0  0  0  0
   -2.6498   -1.2234    1.8060 C   0  0  0  0  0  0  0  0  0  0  0  0
   -3.4903   -1.9950    2.5948 O   0  0  0  0  0  0  0  0  0  0  0  0
   -4.1430   -3.1420    2.0794 C   0  0  0  0  0  0  0  0  0  0  0  0
   -2.0012   -0.0996    2.2870 C   0  0  0  0  0  0  0  0  0  0  0  0
   -2.1861    0.2790    3.5902 F   0  0  0  0  0  0  0  0  0  0  0  0
   -1.1594    0.6664    1.4830 C   0  0  0  0  0  0  0  0  0  0  0  0
   -0.3469    0.7742   -1.8230 H   0  0  0  0  0  0  0  0  0  0  0  0
    1.8202    1.7640   -1.2239 H   0  0  0  0  0  0  0  0  0  0  0  0
    1.4981    1.4555    0.5408 H   0  0  0  0  0  0  0  0  0  0  0  0
    2.7341    0.1925   -2.5584 H   0  0  0  0  0  0  0  0  0  0  0  0
    4.0137   -3.5748   -1.1688 H   0  0  0  0  0  0  0  0  0  0  0  0
    2.8455   -3.1789    0.9487 H   0  0  0  0  0  0  0  0  0  0  0  0
    0.5899   -2.6388    2.4587 H   0  0  0  0  0  0  0  0  0  0  0  0
    2.3375   -2.5327    2.8058 H   0  0  0  0  0  0  0  0  0  0  0  0
    1.1402   -1.3692    3.5795 H   0  0  0  0  0  0  0  0  0  0  0  0
    0.7363    3.3155    0.9200 H   0  0  0  0  0  0  0  0  0  0  0  0
   -0.4439    5.5356    0.4839 H   0  0  0  0  0  0  0  0  0  0  0  0
   -1.9983    6.3131   -2.0992 H   0  0  0  0  0  0  0  0  0  0  0  0
   -3.3770    5.7084   -1.4069 H   0  0  0  0  0  0  0  0  0  0  0  0
   -1.4582   -1.1136   -1.3443 H   0  0  0  0  0  0  0  0  0  0  0  0
   -2.9309   -2.4712    0.0251 H   0  0  0  0  0  0  0  0  0  0  0  0
   -4.6090   -2.9029    1.1028 H   0  0  0  0  0  0  0  0  0  0  0  0
   -3.3478   -3.9345    1.9711 H   0  0  0  0  0  0  0  0  0  0  0  0
   -4.9239   -3.4886    2.7595 H   0  0  0  0  0  0  0  0  0  0  0  0
   -0.6575    1.5453    1.8743 H   0  0  0  0  0  0  0  0  0  0  0  0
  1  2  1  0
  2  3  1  0
  3  4  2  0
  4  5  1  0
  5  6  2  0
  6  7  1  0
  7  8  2  0
  8  9  1  0
  9 10  1  0
  5 11  1  0
 11 12  1  0
 11 13  2  0
  1 14  1  0
 14 15  2  0
 15 16  1  0
 16 17  1  0
 17 18  1  0
 17 19  2  0
  1 20  1  0
 20 21  2  0
 21 22  1  0
 22 23  2  0
 23 24  1  0
 24 25  1  0
 23 26  1  0
 26 27  1  0
 26 28  2  0
  8  3  1  0
 19 14  1  0
 28 20  1  0
  1 29  1  6
  2 30  1  0
  2 31  1  0
  4 32  1  0
  6 33  1  0
  7 34  1  0
 10 35  1  0
 10 36  1  0
 10 37  1  0
 15 38  1  0
 16 39  1  0
 18 40  1  0
 18 41  1  0
 21 42  1  0
 22 43  1  0
 25 44  1  0
 25 45  1  0
 25 46  1  0
 28 47  1  0
M  CHG  2  11   1  12  -1
M  END
$$$$
