@<TRIPOS>MOLECULE
*****
 47 49 0 0 0
SMALL
GASTEIGER

@<TRIPOS>ATOM
      1 C          -0.1082    1.0731   -0.7644 C.3     1  UNL1        0.0321
      2 C           1.3456    1.0406   -0.5089 C.3     1  UNL1       -0.0117
      3 C           2.0317   -0.2412   -0.5397 C.ar    1  UNL1        0.0016
      4 C           2.7185   -0.5166   -1.7367 C.ar    1  UNL1        0.0222
      5 C           3.4180   -1.6938   -1.9581 C.ar    1  UNL1        0.2736
      6 C           3.4727   -2.6624   -0.9997 C.ar    1  UNL1        0.0191
      7 C           2.8221   -2.4331    0.1700 C.ar    1  UNL1       -0.0133
      8 C           2.1433   -1.2697    0.3618 C.ar    1  UNL1        0.1237
      9 O           1.4876   -1.0478    1.5568 O.3     1  UNL1       -0.4948
     10 C           1.4342   -1.9180    2.6480 C.3     1  UNL1        0.0788
     11 N           4.0919   -1.8996   -3.2053 N.pl3   1  UNL1        0.0796
     12 O           4.0619   -0.9364   -4.2088 O.co2   1  UNL1       -0.5760
     13 O           4.7196   -2.9495   -3.4131 O.2     1  UNL1        0.0414
     14 C          -0.5413    2.5250   -0.6960 C.ar    1  UNL1        0.0684
     15 C          -0.0328    3.4820    0.1770 C.ar    1  UNL1        0.0266
     16 N          -0.6557    4.6506   -0.0540 N.ar    1  UNL1       -0.3327
     17 C          -1.5352    4.4245   -1.0521 C.ar    1  UNL1        0.1906
     18 N          -2.3481    5.4948   -1.5167 N.pl3   1  UNL1       -0.3290
     19 N          -1.4750    3.1412   -1.4488 N.ar    1  UNL1       -0.2192
     20 C          -0.9653    0.2864    0.1499 C.ar    1  UNL1       -0.0352
     21 C          -1.6215   -0.8376   -0.3112 C.ar    1  UNL1       -0.0543
     22 C          -2.4565   -1.5968    0.4868 C.ar    1  UNL1       -0.0168
     23 C          -2.6498   -1.2234    1.8060 C.ar    1  UNL1        0.1551
     24 O          -3.4903   -1.9950    2.5948 O.3     1  UNL1       -0.4922
     25 C          -4.1430   -3.1420    2.0794 C.3     1  UNL1        0.0789
     26 C          -2.0012   -0.0996    2.2870 C.ar    1  UNL1        0.1651
     27 F          -2.1861    0.2790    3.5902 F       1  UNL1       -0.2016
     28 C          -1.1594    0.6664    1.4830 C.ar    1  UNL1       -0.0190
     29 H          -0.3469    0.7742   -1.8230 H       1  UNL1        0.0416
     30 H           1.8202    1.7640   -1.2239 H       1  UNL1        0.0324
     31 H           1.4981    1.4555    0.5408 H       1  UNL1        0.0324
     32 H           2.7341    0.1925   -2.5584 H       1  UNL1        0.0689
     33 H           4.0137   -3.5748   -1.1688 H       1  UNL1        0.0686
     34 H           2.8455   -3.1789    0.9487 H       1  UNL1        0.0656
     35 H           0.5899   -2.6388    2.4587 H       1  UNL1        0.0660
     36 H           2.3375   -2.5327    2.8058 H       1  UNL1        0.0660
     37 H           1.1402   -1.3692    3.5795 H       1  UNL1        0.0660
     38 H           0.7363    3.3155    0.9200 H       1  UNL1        0.0826
     39 H          -0.4439    5.5356    0.4839 H       1  UNL1        0.1680
     40 H          -1.9983    6.3131   -2.0992 H       1  UNL1        0.1451
     41 H          -3.3770    5.7084   -1.4069 H       1  UNL1        0.1451
     42 H          -1.4582   -1.1136   -1.3443 H       1  UNL1        0.0622
     43 H          -2.9309   -2.4712    0.0251 H       1  UNL1        0.0655
     44 H          -4.6090   -2.9029    1.1028 H       1  UNL1        0.0660
     45 H          -3.3478   -3.9345    1.9711 H       1  UNL1        0.0660
     46 H          -4.9239   -3.4886    2.7595 H       1  UNL1        0.0660
     47 H          -0.6575    1.5453    1.8743 H       1  UNL1        0.0650
@<TRIPOS>UNITY_ATOM_ATTR
11 1
charge 1
12 1
charge -1
@<TRIPOS>BOND
     1     1     2    1
     2     2     3    1
     3     3     4   ar
     4     4     5   ar
     5     5     6   ar
     6     6     7   ar
     7     7     8   ar
     8     8     9    1
     9     9    10    1
    10     5    11    1
    11    11    12    1
    12    11    13    2
    13     1    14    1
    14    14    15   ar
    15    15    16   ar
    16    16    17   ar
    17    17    18    1
    18    17    19   ar
    19     1    20    1
    20    20    21   ar
    21    21    22   ar
    22    22    23   ar
    23    23    24    1
    24    24    25    1
    25    23    26   ar
    26    26    27    1
    27    26    28   ar
    28     8     3   ar
    29    19    14   ar
    30    28    20   ar
    31     1    29    1
    32     2    30    1
    33     2    31    1
    34     4    32    1
    35     6    33    1
    36     7    34    1
    37    10    35    1
    38    10    36    1
    39    10    37    1
    40    15    38    1
    41    16    39    1
    42    18    40    1
    43    18    41    1
    44    21    42    1
    45    22    43    1
    46    25    44    1
    47    25    45    1
    48    25    46    1
    49    28    47    1
