
     RDKit          3D

 69 74  0  0  0  0  0  0  0  0999 V2000
    1.3190   -6.6285    0.2680 C   0  0  0  0  0  0  0  0  0  0  0  0
    0.4039   -5.4679    0.4827 C   0  0  0  0  0  0  0  0  0  0  0  0
    0.6650   -4.3326   -0.4955 C   0  0  0  0  0  0  0  0  0  0  0  0
   -0.3245   -3.2479   -0.1568 C   0  0  0  0  0  0  0  0  0  0  0  0
   -1.2477   -3.2796    0.8253 N   0  0  0  0  0  0  0  0  0  0  0  0
   -1.9790   -2.1543    0.8557 C   0  0  0  0  0  0  0  0  0  0  0  0
   -3.0258   -1.7454    1.6757 C   0  0  0  0  0  0  0  0  0  0  0  0
   -3.5527   -2.5886    2.7735 C   0  0  0  0  0  0  0  0  0  0  0  0
   -3.5770   -0.5115    1.4424 C   0  0  0  0  0  0  0  0  0  0  0  0
   -3.1062    0.3020    0.4221 C   0  0  0  0  0  0  0  0  0  0  0  0
   -3.7448    1.6177    0.2258 C   0  0  0  0  0  0  0  0  0  0  0  0
   -3.8784    2.5972    1.1386 N   0  0  0  0  0  0  0  0  0  0  0  0
   -4.5129    3.6601    0.6126 C   0  0  0  0  0  0  0  0  0  0  0  0
   -4.9060    4.9011    1.0756 C   0  0  0  0  0  0  0  0  0  0  0  0
   -5.5653    5.8199    0.2777 C   0  0  0  0  0  0  0  0  0  0  0  0
   -5.8431    5.4866   -1.0347 C   0  0  0  0  0  0  0  0  0  0  0  0
   -5.4598    4.2535   -1.5174 C   0  0  0  0  0  0  0  0  0  0  0  0
   -4.7952    3.3377   -0.6986 C   0  0  0  0  0  0  0  0  0  0  0  0
   -4.3151    2.0936   -0.8964 N   0  0  0  0  0  0  0  0  0  0  0  0
   -4.3895    1.3448   -2.1414 C   0  0  0  0  0  0  0  0  0  0  0  0
   -2.0679   -0.1258   -0.3765 C   0  0  0  0  0  0  0  0  0  0  0  0
   -1.4931   -1.3598   -0.1669 C   0  0  0  0  0  0  0  0  0  0  0  0
   -0.4837   -2.0591   -0.7634 N   0  0  0  0  0  0  0  0  0  0  0  0
    0.2812   -1.5804   -1.8691 C   0  0  0  0  0  0  0  0  0  0  0  0
    1.5127   -0.8390   -1.5066 C   0  0  0  0  0  0  0  0  0  0  0  0
    1.5168    0.4932   -1.1572 C   0  0  0  0  0  0  0  0  0  0  0  0
    2.6873    1.1610   -0.8329 C   0  0  0  0  0  0  0  0  0  0  0  0
    3.9038    0.5393   -0.8400 C   0  0  0  0  0  0  0  0  0  0  0  0
    5.1700    1.1922   -0.4939 C   0  0  0  0  0  0  0  0  0  0  0  0
    6.1531    1.2875   -1.4927 C   0  0  0  0  0  0  0  0  0  0  0  0
    7.3477    1.9279   -1.2791 C   0  0  0  0  0  0  0  0  0  0  0  0
    7.6114    2.5036   -0.0500 C   0  0  0  0  0  0  0  0  0  0  0  0
    6.6780    2.4249    0.9337 C   0  0  0  0  0  0  0  0  0  0  0  0
    5.4556    1.7681    0.7143 C   0  0  0  0  0  0  0  0  0  0  0  0
    4.5085    1.6546    1.8127 C   0  0  0  0  0  0  0  0  0  0  0  0
    3.4562    1.0202    1.6999 O   0  0  0  0  0  0  0  0  0  0  0  0
    4.7706    2.2655    3.0285 O   0  0  0  0  0  0  0  0  0  0  0  0
    3.9217   -0.8153   -1.1929 C   0  0  0  0  0  0  0  0  0  0  0  0
    2.7504   -1.4598   -1.5116 C   0  0  0  0  0  0  0  0  0  0  0  0
    0.7454   -7.5520   -0.0145 H   0  0  0  0  0  0  0  0  0  0  0  0
    1.8548   -6.8960    1.2074 H   0  0  0  0  0  0  0  0  0  0  0  0
    2.0713   -6.4624   -0.5275 H   0  0  0  0  0  0  0  0  0  0  0  0
    0.5015   -5.0625    1.5146 H   0  0  0  0  0  0  0  0  0  0  0  0
   -0.6545   -5.8279    0.3843 H   0  0  0  0  0  0  0  0  0  0  0  0
    0.5118   -4.7322   -1.5147 H   0  0  0  0  0  0  0  0  0  0  0  0
    1.6901   -3.9706   -0.3040 H   0  0  0  0  0  0  0  0  0  0  0  0
   -4.6438   -2.5628    2.8681 H   0  0  0  0  0  0  0  0  0  0  0  0
   -3.1119   -2.1907    3.7196 H   0  0  0  0  0  0  0  0  0  0  0  0
   -3.2304   -3.6282    2.5719 H   0  0  0  0  0  0  0  0  0  0  0  0
   -4.3845   -0.1804    2.0648 H   0  0  0  0  0  0  0  0  0  0  0  0
   -4.7012    5.1804    2.0884 H   0  0  0  0  0  0  0  0  0  0  0  0
   -5.8778    6.7968    0.6327 H   0  0  0  0  0  0  0  0  0  0  0  0
   -6.3631    6.2231   -1.6480 H   0  0  0  0  0  0  0  0  0  0  0  0
   -5.6646    3.9700   -2.5357 H   0  0  0  0  0  0  0  0  0  0  0  0
   -5.1437    1.8213   -2.7950 H   0  0  0  0  0  0  0  0  0  0  0  0
   -4.8013    0.3388   -1.8868 H   0  0  0  0  0  0  0  0  0  0  0  0
   -3.4353    1.3017   -2.6746 H   0  0  0  0  0  0  0  0  0  0  0  0
   -1.7299    0.5247   -1.1609 H   0  0  0  0  0  0  0  0  0  0  0  0
   -0.3980   -0.9191   -2.4848 H   0  0  0  0  0  0  0  0  0  0  0  0
    0.5434   -2.4042   -2.5959 H   0  0  0  0  0  0  0  0  0  0  0  0
    0.5766    1.0443   -1.1342 H   0  0  0  0  0  0  0  0  0  0  0  0
    2.6342    2.2185   -0.5730 H   0  0  0  0  0  0  0  0  0  0  0  0
    5.9608    0.8391   -2.4664 H   0  0  0  0  0  0  0  0  0  0  0  0
    8.0764    1.9775   -2.0764 H   0  0  0  0  0  0  0  0  0  0  0  0
    8.5751    3.0072    0.0842 H   0  0  0  0  0  0  0  0  0  0  0  0
    6.8528    2.8622    1.8998 H   0  0  0  0  0  0  0  0  0  0  0  0
    4.0263    2.6381    3.6154 H   0  0  0  0  0  0  0  0  0  0  0  0
    4.8872   -1.3026   -1.1974 H   0  0  0  0  0  0  0  0  0  0  0  0
    2.7866   -2.5087   -1.7903 H   0  0  0  0  0  0  0  0  0  0  0  0
  1  2  1  0
  2  3  1  0
  3  4  1  0
  4  5  2  0
  5  6  1  0
  6  7  2  0
  7  8  1  0
  7  9  1  0
  9 10  2  0
 10 11  1  0
 11 12  2  0
 12 13  1  0
 13 14  2  0
 14 15  1  0
 15 16  2  0
 16 17  1  0
 17 18  2  0
 18 19  1  0
 19 20  1  0
 10 21  1  0
 21 22  2  0
 22 23  1  0
 23 24  1  0
 24 25  1  0
 25 26  2  0
 26 27  1  0
 27 28  2  0
 28 29  1  0
 29 30  2  0
 30 31  1  0
 31 32  2  0
 32 33  1  0
 33 34  2  0
 34 35  1  0
 35 36  2  0
 35 37  1  0
 28 38  1  0
 38 39  2  0
 23  4  1  0
 39 25  1  0
 22  6  1  0
 34 29  1  0
 19 11  1  0
 18 13  1  0
  1 40  1  0
  1 41  1  0
  1 42  1  0
  2 43  1  0
  2 44  1  0
  3 45  1  0
  3 46  1  0
  8 47  1  0
  8 48  1  0
  8 49  1  0
  9 50  1  0
 14 51  1  0
 15 52  1  0
 16 53  1  0
 17 54  1  0
 20 55  1  0
 20 56  1  0
 20 57  1  0
 21 58  1  0
 24 59  1  0
 24 60  1  0
 26 61  1  0
 27 62  1  0
 30 63  1  0
 31 64  1  0
 32 65  1  0
 33 66  1  0
 37 67  1  0
 38 68  1  0
 39 69  1  0
M  END
$$$$
