@<TRIPOS>MOLECULE
*****
 69 74 0 0 0
SMALL
GASTEIGER

@<TRIPOS>ATOM
      1 C           1.3190   -6.6285    0.2680 C.3     1  UNL1       -0.0649
      2 C           0.4039   -5.4679    0.4827 C.3     1  UNL1       -0.0491
      3 C           0.6650   -4.3326   -0.4955 C.3     1  UNL1        0.0054
      4 C          -0.3245   -3.2479   -0.1568 C.ar    1  UNL1        0.1111
      5 N          -1.2477   -3.2796    0.8253 N.ar    1  UNL1       -0.2320
      6 C          -1.9790   -2.1543    0.8557 C.ar    1  UNL1        0.0922
      7 C          -3.0258   -1.7454    1.6757 C.ar    1  UNL1       -0.0223
      8 C          -3.5527   -2.5886    2.7735 C.3     1  UNL1       -0.0376
      9 C          -3.5770   -0.5115    1.4424 C.ar    1  UNL1       -0.0460
     10 C          -3.1062    0.3020    0.4221 C.ar    1  UNL1        0.0198
     11 C          -3.7448    1.6177    0.2258 C.ar    1  UNL1        0.1417
     12 N          -3.8784    2.5972    1.1386 N.ar    1  UNL1       -0.2275
     13 C          -4.5129    3.6601    0.6126 C.ar    1  UNL1        0.0896
     14 C          -4.9060    4.9011    1.0756 C.ar    1  UNL1       -0.0342
     15 C          -5.5653    5.8199    0.2777 C.ar    1  UNL1       -0.0596
     16 C          -5.8431    5.4866   -1.0347 C.ar    1  UNL1       -0.0597
     17 C          -5.4598    4.2535   -1.5174 C.ar    1  UNL1       -0.0361
     18 C          -4.7952    3.3377   -0.6986 C.ar    1  UNL1        0.0688
     19 N          -4.3151    2.0936   -0.8964 N.ar    1  UNL1       -0.3267
     20 C          -4.3895    1.3448   -2.1414 C.3     1  UNL1        0.0138
     21 C          -2.0679   -0.1258   -0.3765 C.ar    1  UNL1       -0.0254
     22 C          -1.4931   -1.3598   -0.1669 C.ar    1  UNL1        0.0700
     23 N          -0.4837   -2.0591   -0.7634 N.ar    1  UNL1       -0.3231
     24 C           0.2812   -1.5804   -1.8691 C.3     1  UNL1        0.0500
     25 C           1.5127   -0.8390   -1.5066 C.ar    1  UNL1       -0.0277
     26 C           1.5168    0.4932   -1.1572 C.ar    1  UNL1       -0.0563
     27 C           2.6873    1.1610   -0.8329 C.ar    1  UNL1       -0.0537
     28 C           3.9038    0.5393   -0.8400 C.ar    1  UNL1       -0.0171
     29 C           5.1700    1.1922   -0.4939 C.ar    1  UNL1       -0.0039
     30 C           6.1531    1.2875   -1.4927 C.ar    1  UNL1       -0.0532
     31 C           7.3477    1.9279   -1.2791 C.ar    1  UNL1       -0.0611
     32 C           7.6114    2.5036   -0.0500 C.ar    1  UNL1       -0.0609
     33 C           6.6780    2.4249    0.9337 C.ar    1  UNL1       -0.0472
     34 C           5.4556    1.7681    0.7143 C.ar    1  UNL1        0.0665
     35 C           4.5085    1.6546    1.8127 C.2     1  UNL1        0.3374
     36 O           3.4562    1.0202    1.6999 O.2     1  UNL1       -0.2451
     37 O           4.7706    2.2655    3.0285 O.3     1  UNL1       -0.4771
     38 C           3.9217   -0.8153   -1.1929 C.ar    1  UNL1       -0.0537
     39 C           2.7504   -1.4598   -1.5116 C.ar    1  UNL1       -0.0563
     40 H           0.7454   -7.5520   -0.0145 H       1  UNL1        0.0230
     41 H           1.8548   -6.8960    1.2074 H       1  UNL1        0.0230
     42 H           2.0713   -6.4624   -0.5275 H       1  UNL1        0.0230
     43 H           0.5015   -5.0625    1.5146 H       1  UNL1        0.0267
     44 H          -0.6545   -5.8279    0.3843 H       1  UNL1        0.0267
     45 H           0.5118   -4.7322   -1.5147 H       1  UNL1        0.0343
     46 H           1.6901   -3.9706   -0.3040 H       1  UNL1        0.0343
     47 H          -4.6438   -2.5628    2.8681 H       1  UNL1        0.0278
     48 H          -3.1119   -2.1907    3.7196 H       1  UNL1        0.0278
     49 H          -3.2304   -3.6282    2.5719 H       1  UNL1        0.0278
     50 H          -4.3845   -0.1804    2.0648 H       1  UNL1        0.0628
     51 H          -4.7012    5.1804    2.0884 H       1  UNL1        0.0639
     52 H          -5.8778    6.7968    0.6327 H       1  UNL1        0.0618
     53 H          -6.3631    6.2231   -1.6480 H       1  UNL1        0.0618
     54 H          -5.6646    3.9700   -2.5357 H       1  UNL1        0.0639
     55 H          -5.1437    1.8213   -2.7950 H       1  UNL1        0.0456
     56 H          -4.8013    0.3388   -1.8868 H       1  UNL1        0.0456
     57 H          -3.4353    1.3017   -2.6746 H       1  UNL1        0.0456
     58 H          -1.7299    0.5247   -1.1609 H       1  UNL1        0.0646
     59 H          -0.3980   -0.9191   -2.4848 H       1  UNL1        0.0542
     60 H           0.5434   -2.4042   -2.5959 H       1  UNL1        0.0542
     61 H           0.5766    1.0443   -1.1342 H       1  UNL1        0.0621
     62 H           2.6342    2.2185   -0.5730 H       1  UNL1        0.0624
     63 H           5.9608    0.8391   -2.4664 H       1  UNL1        0.0624
     64 H           8.0764    1.9775   -2.0764 H       1  UNL1        0.0618
     65 H           8.5751    3.0072    0.0842 H       1  UNL1        0.0618
     66 H           6.8528    2.8622    1.8998 H       1  UNL1        0.0626
     67 H           4.0263    2.6381    3.6154 H       1  UNL1        0.2954
     68 H           4.8872   -1.3026   -1.1974 H       1  UNL1        0.0624
     69 H           2.7866   -2.5087   -1.7903 H       1  UNL1        0.0621
@<TRIPOS>BOND
     1     1     2    1
     2     2     3    1
     3     3     4    1
     4     4     5   ar
     5     5     6   ar
     6     6     7   ar
     7     7     8    1
     8     7     9   ar
     9     9    10   ar
    10    10    11    1
    11    11    12   ar
    12    12    13   ar
    13    13    14   ar
    14    14    15   ar
    15    15    16   ar
    16    16    17   ar
    17    17    18   ar
    18    18    19   ar
    19    19    20    1
    20    10    21   ar
    21    21    22   ar
    22    22    23   ar
    23    23    24    1
    24    24    25    1
    25    25    26   ar
    26    26    27   ar
    27    27    28   ar
    28    28    29    1
    29    29    30   ar
    30    30    31   ar
    31    31    32   ar
    32    32    33   ar
    33    33    34   ar
    34    34    35    1
    35    35    36    2
    36    35    37    1
    37    28    38   ar
    38    38    39   ar
    39    23     4   ar
    40    39    25   ar
    41    22     6   ar
    42    34    29   ar
    43    19    11   ar
    44    18    13   ar
    45     1    40    1
    46     1    41    1
    47     1    42    1
    48     2    43    1
    49     2    44    1
    50     3    45    1
    51     3    46    1
    52     8    47    1
    53     8    48    1
    54     8    49    1
    55     9    50    1
    56    14    51    1
    57    15    52    1
    58    16    53    1
    59    17    54    1
    60    20    55    1
    61    20    56    1
    62    20    57    1
    63    21    58    1
    64    24    59    1
    65    24    60    1
    66    26    61    1
    67    27    62    1
    68    30    63    1
    69    31    64    1
    70    32    65    1
    71    33    66    1
    72    37    67    1
    73    38    68    1
    74    39    69    1
