
     RDKit          3D

 76 80  0  0  0  0  0  0  0  0999 V2000
   -7.7924    0.7324   -2.0228 C   0  0  0  0  0  0  0  0  0  0  0  0
   -7.7574    1.5087   -0.7616 C   0  0  0  0  0  0  0  0  0  0  0  0
   -8.5393    2.5592   -0.4899 N   0  0  0  0  0  0  0  0  0  0  0  0
   -8.5259    3.2599    0.6602 C   0  0  0  0  0  0  0  0  0  0  0  0
   -7.6484    2.8481    1.5879 N   0  0  0  0  0  0  0  0  0  0  0  0
   -6.8120    1.8064    1.4310 C   0  0  0  0  0  0  0  0  0  0  0  0
   -5.8874    1.3986    2.5143 C   0  0  0  0  0  0  0  0  0  0  0  0
   -6.8498    1.1141    0.2493 C   0  0  0  0  0  0  0  0  0  0  0  0
   -6.0347   -0.0151   -0.0068 C   0  0  0  0  0  0  0  0  0  0  0  0
   -6.5105   -1.2128   -0.0506 O   0  0  0  0  0  0  0  0  0  0  0  0
   -4.6238    0.0793   -0.2368 N   0  0  0  0  0  0  0  0  0  0  0  0
   -3.7806   -1.1122   -0.5300 C   0  0  0  0  0  0  0  0  0  0  0  0
   -2.5453   -0.5790   -1.1872 C   0  0  2  0  0  0  0  0  0  0  0  0
   -1.2869   -1.3074   -0.7726 C   0  0  0  0  0  0  0  0  0  0  0  0
   -0.8976   -0.8030    0.4996 N   0  0  0  0  0  0  0  0  0  0  0  0
    0.5314   -0.3802    0.5289 C   0  0  0  0  0  0  0  0  0  0  0  0
    1.3607   -1.5887    0.3682 C   0  0  0  0  0  0  0  0  0  0  0  0
    2.8226   -1.5347    0.4178 C   0  0  0  0  0  0  0  0  0  0  0  0
    3.3907   -2.8979    0.1651 C   0  0  0  0  0  0  0  0  0  0  0  0
    3.1881   -3.5194   -1.0478 C   0  0  0  0  0  0  0  0  0  0  0  0
    3.7055   -4.7735   -1.3268 C   0  0  0  0  0  0  0  0  0  0  0  0
    4.4498   -5.4500   -0.3901 C   0  0  0  0  0  0  0  0  0  0  0  0
    4.6483   -4.8175    0.8273 C   0  0  0  0  0  0  0  0  0  0  0  0
    5.4024   -5.5215    1.7240 F   0  0  0  0  0  0  0  0  0  0  0  0
    4.1311   -3.5709    1.0994 C   0  0  0  0  0  0  0  0  0  0  0  0
    3.5762   -0.4349   -0.2161 C   0  0  0  0  0  0  0  0  0  0  0  0
    3.3639    0.9451    0.3325 C   0  0  0  0  0  0  0  0  0  0  0  0
    4.2214    1.9041   -0.4883 C   0  0  0  0  0  0  0  0  0  0  0  0
    5.6209    1.6715   -0.3456 N   0  0  0  0  0  0  0  0  0  0  0  0
    6.4561    2.9534    0.4280 S   0  0  0  0  0  6  0  0  0  0  0  0
    6.3617    4.4790   -0.4630 C   0  0  0  0  0  0  0  0  0  0  0  0
    5.8339    3.1832    1.7755 O   0  0  0  0  0  0  0  0  0  0  0  0
    7.9195    2.6389    0.5984 O   0  0  0  0  0  0  0  0  0  0  0  0
    5.8665    0.4484    0.3693 C   0  0  0  0  0  0  0  0  0  0  0  0
    5.0715   -0.6926   -0.2515 C   0  0  0  0  0  0  0  0  0  0  0  0
   -1.7571    0.2753    0.8298 C   0  0  0  0  0  0  0  0  0  0  0  0
   -2.3776    0.7459   -0.4531 C   0  0  2  0  0  0  0  0  0  0  0  0
   -3.7680    1.2318   -0.2352 C   0  0  0  0  0  0  0  0  0  0  0  0
   -6.8699    0.7255   -2.5942 H   0  0  0  0  0  0  0  0  0  0  0  0
   -8.1739   -0.3121   -1.8131 H   0  0  0  0  0  0  0  0  0  0  0  0
   -8.6373    1.1747   -2.6298 H   0  0  0  0  0  0  0  0  0  0  0  0
   -9.2018    4.1133    0.8180 H   0  0  0  0  0  0  0  0  0  0  0  0
   -5.3756    0.4431    2.2595 H   0  0  0  0  0  0  0  0  0  0  0  0
   -6.5149    1.1757    3.4113 H   0  0  0  0  0  0  0  0  0  0  0  0
   -5.1613    2.1850    2.8052 H   0  0  0  0  0  0  0  0  0  0  0  0
   -4.3571   -1.7182   -1.2766 H   0  0  0  0  0  0  0  0  0  0  0  0
   -3.5809   -1.6862    0.3767 H   0  0  0  0  0  0  0  0  0  0  0  0
   -2.6109   -0.4692   -2.2793 H   0  0  0  0  0  0  0  0  0  0  0  0
   -0.5185   -1.2583   -1.5580 H   0  0  0  0  0  0  0  0  0  0  0  0
   -1.5921   -2.3888   -0.6725 H   0  0  0  0  0  0  0  0  0  0  0  0
    0.5879    0.2281   -0.4244 H   0  0  0  0  0  0  0  0  0  0  0  0
    0.6315    0.1903    1.4476 H   0  0  0  0  0  0  0  0  0  0  0  0
    1.0355   -2.2966    1.2199 H   0  0  0  0  0  0  0  0  0  0  0  0
    1.0013   -2.0964   -0.5934 H   0  0  0  0  0  0  0  0  0  0  0  0
    3.0527   -1.3955    1.5698 H   0  0  0  0  0  0  0  0  0  0  0  0
    2.6111   -3.0544   -1.8615 H   0  0  0  0  0  0  0  0  0  0  0  0
    3.5390   -5.2501   -2.2748 H   0  0  0  0  0  0  0  0  0  0  0  0
    4.8410   -6.4255   -0.6393 H   0  0  0  0  0  0  0  0  0  0  0  0
    4.3225   -3.1442    2.0594 H   0  0  0  0  0  0  0  0  0  0  0  0
    3.2455   -0.3994   -1.3006 H   0  0  0  0  0  0  0  0  0  0  0  0
    3.7229    1.0166    1.3939 H   0  0  0  0  0  0  0  0  0  0  0  0
    2.3638    1.3436    0.3283 H   0  0  0  0  0  0  0  0  0  0  0  0
    3.9814    2.9245   -0.1123 H   0  0  0  0  0  0  0  0  0  0  0  0
    3.9129    1.8088   -1.5438 H   0  0  0  0  0  0  0  0  0  0  0  0
    6.3692    5.3755    0.2000 H   0  0  0  0  0  0  0  0  0  0  0  0
    5.4399    4.5117   -1.0979 H   0  0  0  0  0  0  0  0  0  0  0  0
    7.2534    4.6308   -1.1323 H   0  0  0  0  0  0  0  0  0  0  0  0
    6.9506    0.1711    0.2124 H   0  0  0  0  0  0  0  0  0  0  0  0
    5.7352    0.5383    1.4450 H   0  0  0  0  0  0  0  0  0  0  0  0
    5.4415   -0.7940   -1.3021 H   0  0  0  0  0  0  0  0  0  0  0  0
    5.3729   -1.6164    0.2530 H   0  0  0  0  0  0  0  0  0  0  0  0
   -2.5768   -0.0879    1.4971 H   0  0  0  0  0  0  0  0  0  0  0  0
   -1.1754    1.0817    1.3401 H   0  0  0  0  0  0  0  0  0  0  0  0
   -1.7355    1.4620   -1.0015 H   0  0  0  0  0  0  0  0  0  0  0  0
   -3.7563    1.7860    0.7464 H   0  0  0  0  0  0  0  0  0  0  0  0
   -4.1008    1.9352   -1.0460 H   0  0  0  0  0  0  0  0  0  0  0  0
  1  2  1  0
  2  3  2  0
  3  4  1  0
  4  5  2  0
  5  6  1  0
  6  7  1  0
  6  8  2  0
  8  9  1  0
  9 10  2  0
  9 11  1  0
 11 12  1  0
 12 13  1  0
 13 14  1  0
 14 15  1  0
 15 16  1  0
 16 17  1  0
 17 18  1  0
 18 19  1  0
 19 20  2  0
 20 21  1  0
 21 22  2  0
 22 23  1  0
 23 24  1  0
 23 25  2  0
 18 26  1  0
 26 27  1  0
 27 28  1  0
 28 29  1  0
 29 30  1  0
 30 31  1  0
 30 32  2  0
 30 33  2  0
 29 34  1  0
 34 35  1  0
 15 36  1  0
 36 37  1  0
 37 38  1  0
  8  2  1  0
 38 11  1  0
 37 13  1  0
 25 19  1  0
 35 26  1  0
  1 39  1  0
  1 40  1  0
  1 41  1  0
  4 42  1  0
  7 43  1  0
  7 44  1  0
  7 45  1  0
 12 46  1  0
 12 47  1  0
 13 48  1  6
 14 49  1  0
 14 50  1  0
 16 51  1  0
 16 52  1  0
 17 53  1  0
 17 54  1  0
 18 55  1  0
 20 56  1  0
 21 57  1  0
 22 58  1  0
 25 59  1  0
 26 60  1  0
 27 61  1  0
 27 62  1  0
 28 63  1  0
 28 64  1  0
 31 65  1  0
 31 66  1  0
 31 67  1  0
 34 68  1  0
 34 69  1  0
 35 70  1  0
 35 71  1  0
 36 72  1  0
 36 73  1  0
 37 74  1  6
 38 75  1  0
 38 76  1  0
M  END
$$$$
