@<TRIPOS>MOLECULE
*****
 76 80 0 0 0
SMALL
GASTEIGER

@<TRIPOS>ATOM
      1 C          -7.7924    0.7324   -2.0228 C.3     1  UNL1       -0.0215
      2 C          -7.7574    1.5087   -0.7616 C.ar    1  UNL1        0.0538
      3 N          -8.5393    2.5592   -0.4899 N.ar    1  UNL1       -0.2398
      4 C          -8.5259    3.2599    0.6602 C.ar    1  UNL1        0.1165
      5 N          -7.6484    2.8481    1.5879 N.ar    1  UNL1       -0.2398
      6 C          -6.8120    1.8064    1.4310 C.ar    1  UNL1        0.0538
      7 C          -5.8874    1.3986    2.5143 C.3     1  UNL1       -0.0215
      8 C          -6.8498    1.1141    0.2493 C.ar    1  UNL1        0.0788
      9 C          -6.0347   -0.0151   -0.0068 C.2     1  UNL1        0.2501
     10 O          -6.5105   -1.2128   -0.0506 O.2     1  UNL1       -0.2699
     11 N          -4.6238    0.0793   -0.2368 N.am    1  UNL1       -0.2968
     12 C          -3.7806   -1.1122   -0.5300 C.3     1  UNL1        0.0193
     13 C          -2.5453   -0.5790   -1.1872 C.3     1  UNL1       -0.0070
     14 C          -1.2869   -1.3074   -0.7726 C.3     1  UNL1        0.0035
     15 N          -0.8976   -0.8030    0.4996 N.3     1  UNL1       -0.3017
     16 C           0.5314   -0.3802    0.5289 C.3     1  UNL1       -0.0005
     17 C           1.3607   -1.5887    0.3682 C.3     1  UNL1       -0.0331
     18 C           2.8226   -1.5347    0.4178 C.3     1  UNL1       -0.0117
     19 C           3.3907   -2.8979    0.1651 C.ar    1  UNL1       -0.0413
     20 C           3.1881   -3.5194   -1.0478 C.ar    1  UNL1       -0.0581
     21 C           3.7055   -4.7735   -1.3268 C.ar    1  UNL1       -0.0588
     22 C           4.4498   -5.4500   -0.3901 C.ar    1  UNL1       -0.0264
     23 C           4.6483   -4.8175    0.8273 C.ar    1  UNL1        0.1237
     24 F           5.4024   -5.5215    1.7240 F       1  UNL1       -0.2055
     25 C           4.1311   -3.5709    1.0994 C.ar    1  UNL1       -0.0230
     26 C           3.5762   -0.4349   -0.2161 C.3     1  UNL1       -0.0318
     27 C           3.3639    0.9451    0.3325 C.3     1  UNL1       -0.0351
     28 C           4.2214    1.9041   -0.4883 C.3     1  UNL1        0.0204
     29 N           5.6209    1.6715   -0.3456 N.3     1  UNL1       -0.1814
     30 S           6.4561    2.9534    0.4280 S.O2    1  UNL1        0.0290
     31 C           6.3617    4.4790   -0.4630 C.3     1  UNL1        0.0707
     32 O           5.8339    3.1832    1.7755 O.2     1  UNL1       -0.1583
     33 O           7.9195    2.6389    0.5984 O.2     1  UNL1       -0.1583
     34 C           5.8665    0.4484    0.3693 C.3     1  UNL1        0.0204
     35 C           5.0715   -0.6926   -0.2515 C.3     1  UNL1       -0.0351
     36 C          -1.7571    0.2753    0.8298 C.3     1  UNL1        0.0035
     37 C          -2.3776    0.7459   -0.4531 C.3     1  UNL1       -0.0070
     38 C          -3.7680    1.2318   -0.2352 C.3     1  UNL1        0.0193
     39 H          -6.8699    0.7255   -2.5942 H       1  UNL1        0.0293
     40 H          -8.1739   -0.3121   -1.8131 H       1  UNL1        0.0293
     41 H          -8.6373    1.1747   -2.6298 H       1  UNL1        0.0293
     42 H          -9.2018    4.1133    0.8180 H       1  UNL1        0.1047
     43 H          -5.3756    0.4431    2.2595 H       1  UNL1        0.0293
     44 H          -6.5149    1.1757    3.4113 H       1  UNL1        0.0293
     45 H          -5.1613    2.1850    2.8052 H       1  UNL1        0.0293
     46 H          -4.3571   -1.7182   -1.2766 H       1  UNL1        0.0468
     47 H          -3.5809   -1.6862    0.3767 H       1  UNL1        0.0468
     48 H          -2.6109   -0.4692   -2.2793 H       1  UNL1        0.0332
     49 H          -0.5185   -1.2583   -1.5580 H       1  UNL1        0.0430
     50 H          -1.5921   -2.3888   -0.6725 H       1  UNL1        0.0430
     51 H           0.5879    0.2281   -0.4244 H       1  UNL1        0.0427
     52 H           0.6315    0.1903    1.4476 H       1  UNL1        0.0427
     53 H           1.0355   -2.2966    1.2199 H       1  UNL1        0.0283
     54 H           1.0013   -2.0964   -0.5934 H       1  UNL1        0.0283
     55 H           3.0527   -1.3955    1.5698 H       1  UNL1        0.0352
     56 H           2.6111   -3.0544   -1.8615 H       1  UNL1        0.0620
     57 H           3.5390   -5.2501   -2.2748 H       1  UNL1        0.0619
     58 H           4.8410   -6.4255   -0.6393 H       1  UNL1        0.0646
     59 H           4.3225   -3.1442    2.0594 H       1  UNL1        0.0649
     60 H           3.2455   -0.3994   -1.3006 H       1  UNL1        0.0307
     61 H           3.7229    1.0166    1.3939 H       1  UNL1        0.0281
     62 H           2.3638    1.3436    0.3283 H       1  UNL1        0.0281
     63 H           3.9814    2.9245   -0.1123 H       1  UNL1        0.0444
     64 H           3.9129    1.8088   -1.5438 H       1  UNL1        0.0444
     65 H           6.3692    5.3755    0.2000 H       1  UNL1        0.0479
     66 H           5.4399    4.5117   -1.0979 H       1  UNL1        0.0479
     67 H           7.2534    4.6308   -1.1323 H       1  UNL1        0.0479
     68 H           6.9506    0.1711    0.2124 H       1  UNL1        0.0444
     69 H           5.7352    0.5383    1.4450 H       1  UNL1        0.0444
     70 H           5.4415   -0.7940   -1.3021 H       1  UNL1        0.0281
     71 H           5.3729   -1.6164    0.2530 H       1  UNL1        0.0281
     72 H          -2.5768   -0.0879    1.4971 H       1  UNL1        0.0430
     73 H          -1.1754    1.0817    1.3401 H       1  UNL1        0.0430
     74 H          -1.7355    1.4620   -1.0015 H       1  UNL1        0.0332
     75 H          -3.7563    1.7860    0.7464 H       1  UNL1        0.0468
     76 H          -4.1008    1.9352   -1.0460 H       1  UNL1        0.0468
@<TRIPOS>BOND
     1     1     2    1
     2     2     3   ar
     3     3     4   ar
     4     4     5   ar
     5     5     6   ar
     6     6     7    1
     7     6     8   ar
     8     8     9    1
     9     9    10    2
    10     9    11   am
    11    11    12    1
    12    12    13    1
    13    13    14    1
    14    14    15    1
    15    15    16    1
    16    16    17    1
    17    17    18    1
    18    18    19    1
    19    19    20   ar
    20    20    21   ar
    21    21    22   ar
    22    22    23   ar
    23    23    24    1
    24    23    25   ar
    25    18    26    1
    26    26    27    1
    27    27    28    1
    28    28    29    1
    29    29    30    1
    30    30    31    1
    31    30    32    2
    32    30    33    2
    33    29    34    1
    34    34    35    1
    35    15    36    1
    36    36    37    1
    37    37    38    1
    38     8     2   ar
    39    38    11    1
    40    37    13    1
    41    25    19   ar
    42    35    26    1
    43     1    39    1
    44     1    40    1
    45     1    41    1
    46     4    42    1
    47     7    43    1
    48     7    44    1
    49     7    45    1
    50    12    46    1
    51    12    47    1
    52    13    48    1
    53    14    49    1
    54    14    50    1
    55    16    51    1
    56    16    52    1
    57    17    53    1
    58    17    54    1
    59    18    55    1
    60    20    56    1
    61    21    57    1
    62    22    58    1
    63    25    59    1
    64    26    60    1
    65    27    61    1
    66    27    62    1
    67    28    63    1
    68    28    64    1
    69    31    65    1
    70    31    66    1
    71    31    67    1
    72    34    68    1
    73    34    69    1
    74    35    70    1
    75    35    71    1
    76    36    72    1
    77    36    73    1
    78    37    74    1
    79    38    75    1
    80    38    76    1
