@<TRIPOS>MOLECULE
*****
 47 49 0 0 0
SMALL
GASTEIGER

@<TRIPOS>ATOM
      1 C          -5.6887   -1.1485   -0.4562 C.3     1  UNL1       -0.0607
      2 C          -4.2360   -0.8641   -0.9212 C.3     1  UNL1       -0.0209
      3 C          -4.3584    0.1087   -2.0316 C.3     1  UNL1       -0.0607
      4 C          -3.4272   -0.4650    0.2618 C.3     1  UNL1        0.1132
      5 C          -3.8456    0.7380    0.9745 C.2     1  UNL1        0.2642
      6 O          -4.7548    1.4722    0.5870 O.2     1  UNL1       -0.2713
      7 N          -3.1395    1.0351    2.1682 N.am    1  UNL1       -0.1144
      8 O          -3.5324    1.9296    3.0709 O.3     1  UNL1       -0.2854
      9 C          -1.9102    0.3096    2.4060 C.2     1  UNL1        0.2608
     10 O          -1.1421    0.6407    3.3417 O.2     1  UNL1       -0.2716
     11 C          -1.5441   -0.8311    1.5492 C.3     1  UNL1        0.1002
     12 N          -2.0165   -0.5287    0.1737 N.3     1  UNL1       -0.1555
     13 S          -1.1833    0.8517   -0.3484 S.O2    1  UNL1        0.0620
     14 O          -1.3839    2.0727    0.4926 O.2     1  UNL1       -0.1528
     15 O          -1.5619    1.2245   -1.7493 O.2     1  UNL1       -0.1528
     16 C           0.5609    0.5711   -0.3971 C.ar    1  UNL1        0.1055
     17 C           1.3248    0.8623    0.7061 C.ar    1  UNL1       -0.0348
     18 C           2.6926    0.6601    0.7185 C.ar    1  UNL1       -0.0522
     19 C           3.2971    0.1516   -0.4141 C.ar    1  UNL1       -0.0178
     20 C           4.7546   -0.0561   -0.3829 C.ar    1  UNL1       -0.0179
     21 C           5.5700    0.7726    0.3632 C.ar    1  UNL1       -0.0540
     22 C           6.9359    0.5846    0.3989 C.ar    1  UNL1       -0.0612
     23 C           7.5348   -0.4360   -0.3081 C.ar    1  UNL1       -0.0617
     24 C           6.7154   -1.2599   -1.0512 C.ar    1  UNL1       -0.0612
     25 C           5.3470   -1.0826   -1.0955 C.ar    1  UNL1       -0.0540
     26 C           2.5334   -0.1351   -1.5051 C.ar    1  UNL1       -0.0522
     27 C           1.1467    0.0655   -1.5292 C.ar    1  UNL1       -0.0348
     28 H          -6.1823   -0.2377   -0.1042 H       1  UNL1        0.0233
     29 H          -5.6205   -1.8714    0.3828 H       1  UNL1        0.0233
     30 H          -6.2542   -1.6514   -1.2616 H       1  UNL1        0.0233
     31 H          -3.8592   -1.8320   -1.2917 H       1  UNL1        0.0316
     32 H          -3.6157   -0.1342   -2.8240 H       1  UNL1        0.0233
     33 H          -5.3551   -0.0621   -2.5429 H       1  UNL1        0.0233
     34 H          -4.2523    1.1634   -1.7779 H       1  UNL1        0.0233
     35 H          -3.6853   -1.3118    1.0349 H       1  UNL1        0.0579
     36 H          -4.2771    1.5682    3.5879 H       1  UNL1        0.2422
     37 H          -2.1107   -1.7353    1.8502 H       1  UNL1        0.0540
     38 H          -0.4554   -1.0250    1.5456 H       1  UNL1        0.0540
     39 H           0.8929    1.2628    1.6128 H       1  UNL1        0.0637
     40 H           3.2620    0.8996    1.6014 H       1  UNL1        0.0624
     41 H           5.1415    1.5971    0.9415 H       1  UNL1        0.0624
     42 H           7.5964    1.2334    0.9860 H       1  UNL1        0.0618
     43 H           8.6153   -0.5916   -0.2852 H       1  UNL1        0.0618
     44 H           7.1703   -2.0688   -1.6144 H       1  UNL1        0.0618
     45 H           4.7130   -1.7385   -1.6843 H       1  UNL1        0.0624
     46 H           3.0083   -0.5282   -2.3781 H       1  UNL1        0.0624
     47 H           0.5798   -0.1800   -2.4283 H       1  UNL1        0.0637
@<TRIPOS>BOND
     1     1     2    1
     2     2     3    1
     3     2     4    1
     4     4     5    1
     5     5     6    2
     6     5     7   am
     7     7     8    1
     8     7     9   am
     9     9    10    2
    10     9    11    1
    11    11    12    1
    12    12    13    1
    13    13    14    2
    14    13    15    2
    15    13    16    1
    16    16    17   ar
    17    17    18   ar
    18    18    19   ar
    19    19    20    1
    20    20    21   ar
    21    21    22   ar
    22    22    23   ar
    23    23    24   ar
    24    24    25   ar
    25    19    26   ar
    26    26    27   ar
    27    12     4    1
    28    27    16   ar
    29    25    20   ar
    30     1    28    1
    31     1    29    1
    32     1    30    1
    33     2    31    1
    34     3    32    1
    35     3    33    1
    36     3    34    1
    37     4    35    1
    38     8    36    1
    39    11    37    1
    40    11    38    1
    41    17    39    1
    42    18    40    1
    43    21    41    1
    44    22    42    1
    45    23    43    1
    46    24    44    1
    47    25    45    1
    48    26    46    1
    49    27    47    1
