@<TRIPOS>MOLECULE
*****
 43 45 0 0 0
SMALL
GASTEIGER

@<TRIPOS>ATOM
      1 C          -0.5403    1.7029   -2.7350 C.3     1  UNL1        0.0788
      2 O          -1.0948    0.9903   -1.6566 O.3     1  UNL1       -0.4945
      3 C          -0.2674    0.2357   -0.8177 C.ar    1  UNL1        0.1285
      4 C           1.0798    0.1724   -1.0210 C.ar    1  UNL1       -0.0072
      5 C           1.8876   -0.5714   -0.1924 C.ar    1  UNL1        0.0402
      6 C           3.3128   -0.5944   -0.4668 C.2     1  UNL1        0.2443
      7 O           3.7543    0.0593   -1.4413 O.2     1  UNL1       -0.2702
      8 N           4.2263   -1.3201    0.3145 N.am    1  UNL1       -0.3092
      9 C           5.6258   -1.3180    0.0120 C.3     1  UNL1        0.0351
     10 C           6.2551    0.0484    0.0537 C.3     1  UNL1        0.0597
     11 O           7.6205   -0.1263   -0.2644 O.3     1  UNL1       -0.3935
     12 C           1.3146   -1.2593    0.8566 C.ar    1  UNL1       -0.0488
     13 C          -0.0576   -1.2041    1.0762 C.ar    1  UNL1       -0.0498
     14 C          -0.8285   -0.4555    0.2332 C.ar    1  UNL1        0.0245
     15 C          -2.2905   -0.3887    0.4564 C.ar    1  UNL1       -0.0032
     16 C          -3.1534   -1.2838   -0.1233 C.ar    1  UNL1       -0.0415
     17 C          -4.5145   -1.2210    0.0851 C.ar    1  UNL1        0.0574
     18 C          -5.4302   -2.1903   -0.5449 C.3     1  UNL1        0.4175
     19 F          -6.4636   -2.5347    0.2908 F       1  UNL1       -0.1659
     20 F          -4.7593   -3.3331   -0.8995 F       1  UNL1       -0.1659
     21 F          -5.9087   -1.6158   -1.7113 F       1  UNL1       -0.1659
     22 C          -5.0140   -0.2292    0.8990 C.ar    1  UNL1       -0.0246
     23 C          -4.1845    0.6959    1.5054 C.ar    1  UNL1        0.0668
     24 N          -4.4235    1.7374    2.3265 N.ar    1  UNL1       -0.2769
     25 N          -3.2557    2.2876    2.6076 N.ar    1  UNL1       -0.1812
     26 C          -2.2567    1.6324    1.9910 C.ar    1  UNL1        0.0575
     27 C          -2.8189    0.5939    1.2668 C.ar    1  UNL1        0.0273
     28 H          -1.3238    2.0600   -3.4184 H       1  UNL1        0.0660
     29 H           0.0259    2.5605   -2.3400 H       1  UNL1        0.0660
     30 H           0.0883    0.9939   -3.3238 H       1  UNL1        0.0660
     31 H           1.4860    0.7318   -1.8613 H       1  UNL1        0.0662
     32 H           3.8991   -1.8706    1.1256 H       1  UNL1        0.1491
     33 H           5.8063   -1.7151   -1.0232 H       1  UNL1        0.0485
     34 H           6.2122   -1.9707    0.6821 H       1  UNL1        0.0485
     35 H           5.8635    0.7440   -0.7063 H       1  UNL1        0.0573
     36 H           6.2226    0.5114    1.0570 H       1  UNL1        0.0573
     37 H           7.7735   -0.9882   -0.7051 H       1  UNL1        0.2095
     38 H           1.9552   -1.8468    1.5106 H       1  UNL1        0.0625
     39 H          -0.4866   -1.7527    1.9068 H       1  UNL1        0.0625
     40 H          -2.7290   -2.0653   -0.7682 H       1  UNL1        0.0629
     41 H          -6.0761   -0.1784    1.0630 H       1  UNL1        0.0644
     42 H          -5.3398    2.0805    2.6958 H       1  UNL1        0.1889
     43 H          -1.1921    1.8155    2.0049 H       1  UNL1        0.0854
@<TRIPOS>BOND
     1     1     2    1
     2     2     3    1
     3     3     4   ar
     4     4     5   ar
     5     5     6    1
     6     6     7    2
     7     6     8   am
     8     8     9    1
     9     9    10    1
    10    10    11    1
    11     5    12   ar
    12    12    13   ar
    13    13    14   ar
    14    14    15    1
    15    15    16   ar
    16    16    17   ar
    17    17    18    1
    18    18    19    1
    19    18    20    1
    20    18    21    1
    21    17    22   ar
    22    22    23   ar
    23    23    24   ar
    24    24    25   ar
    25    25    26   ar
    26    26    27   ar
    27    14     3   ar
    28    27    15   ar
    29    27    23   ar
    30     1    28    1
    31     1    29    1
    32     1    30    1
    33     4    31    1
    34     8    32    1
    35     9    33    1
    36     9    34    1
    37    10    35    1
    38    10    36    1
    39    11    37    1
    40    12    38    1
    41    13    39    1
    42    16    40    1
    43    22    41    1
    44    24    42    1
    45    26    43    1
