@<TRIPOS>MOLECULE
*****
 28 28 0 0 0
SMALL
GASTEIGER

@<TRIPOS>ATOM
      1 N          -4.8085    0.2119    1.1032 N.2     1  UNL1       -0.0994
      2 C          -4.0079   -0.4199    0.3530 C.2     1  UNL1        0.3081
      3 N          -4.3872   -1.6172   -0.2617 N.pl3   1  UNL1       -0.2466
      4 C          -2.6725    0.0983    0.1205 C.ar    1  UNL1        0.0653
      5 C          -2.4148    1.4652    0.1442 C.ar    1  UNL1       -0.0469
      6 C          -1.1518    1.9581   -0.0755 C.ar    1  UNL1       -0.0603
      7 C          -0.0811    1.1217   -0.3298 C.ar    1  UNL1       -0.0530
      8 C          -0.3038   -0.2373   -0.3599 C.ar    1  UNL1       -0.0031
      9 C           0.7210   -1.2208   -0.6132 C.2     1  UNL1        0.0735
     10 N           1.9377   -1.0334   -0.8405 N.2     1  UNL1       -0.0785
     11 N           2.5942    0.1405   -0.9050 N.pl3   1  UNL1        0.0468
     12 C           3.7326    0.4437   -0.3863 C.2     1  UNL1        0.4338
     13 N           4.2519    1.7558   -0.5769 N.pl3   1  UNL1       -0.2852
     14 N           4.4390   -0.5426    0.3630 N.3     1  UNL1       -0.1402
     15 O           4.2746   -1.8625    0.1046 O.3     1  UNL1       -0.2333
     16 C          -1.6018   -0.7211   -0.1329 C.ar    1  UNL1       -0.0382
     17 H          -5.7694   -0.0288    1.3562 H       1  UNL1        0.3633
     18 H          -5.0305   -1.6168   -1.0665 H       1  UNL1        0.2884
     19 H          -4.0195   -2.5123    0.0936 H       1  UNL1        0.2884
     20 H          -3.2557    2.1148    0.3435 H       1  UNL1        0.0626
     21 H          -0.9616    3.0371   -0.0541 H       1  UNL1        0.0618
     22 H           0.9126    1.5355   -0.5013 H       1  UNL1        0.0624
     23 H           0.4099   -2.2867   -0.6103 H       1  UNL1        0.0868
     24 H           4.1192    2.2779   -1.4620 H       1  UNL1        0.2548
     25 H           4.7731    2.1943    0.1883 H       1  UNL1        0.2548
     26 H           5.0844   -0.2105    1.1143 H       1  UNL1        0.2986
     27 H           5.0394   -2.2477   -0.3671 H       1  UNL1        0.2622
     28 H          -1.8235   -1.7972   -0.1479 H       1  UNL1        0.0632
@<TRIPOS>BOND
     1     1     2    2
     2     2     3    1
     3     2     4    1
     4     4     5   ar
     5     5     6   ar
     6     6     7   ar
     7     7     8   ar
     8     8     9    1
     9     9    10    2
    10    10    11    1
    11    11    12    2
    12    12    13    1
    13    12    14    1
    14    14    15    1
    15     8    16   ar
    16    16     4   ar
    17     1    17    1
    18     3    18    1
    19     3    19    1
    20     5    20    1
    21     6    21    1
    22     7    22    1
    23     9    23    1
    24    13    24    1
    25    13    25    1
    26    14    26    1
    27    15    27    1
    28    16    28    1
