@<TRIPOS>MOLECULE
*****
 44 47 0 0 0
SMALL
GASTEIGER

@<TRIPOS>ATOM
      1 C           4.0630   -1.9678    3.2143 C.3     1  UNL1        0.0125
      2 C           4.0847   -1.5602    1.7557 C.2     1  UNL1        0.2152
      3 O           5.1183   -1.7526    1.0690 O.2     1  UNL1       -0.2757
      4 N           2.9452   -0.9635    1.1639 N.am    1  UNL1       -0.2693
      5 C           2.8822   -0.5548   -0.1874 C.ar    1  UNL1        0.1470
      6 C           3.8164   -0.6202   -1.1885 C.ar    1  UNL1        0.0701
      7 N           3.2840   -0.0954   -2.3318 N.ar    1  UNL1       -0.2327
      8 C           2.0322    0.2945   -2.0527 C.ar    1  UNL1        0.1562
      9 C           1.0579    0.8890   -2.8595 C.ar    1  UNL1       -0.0153
     10 C          -0.1531    1.1668   -2.2411 C.ar    1  UNL1       -0.0290
     11 C          -0.3849    0.8765   -0.9147 C.ar    1  UNL1        0.1103
     12 C          -1.6898    1.2095   -0.3600 C.ar    1  UNL1        0.0968
     13 C          -2.6378    0.3150    0.1261 C.ar    1  UNL1        0.0982
     14 C          -2.4669   -1.1122    0.1537 C.ar    1  UNL1        0.0027
     15 C          -2.4812   -1.7912    1.3541 C.ar    1  UNL1       -0.0498
     16 C          -2.3128   -3.1609    1.3301 C.ar    1  UNL1       -0.0258
     17 C          -2.1368   -3.8261    0.1519 C.ar    1  UNL1        0.1234
     18 F          -1.9756   -5.1671    0.1732 F       1  UNL1       -0.2055
     19 C          -2.1256   -3.1351   -1.0282 C.ar    1  UNL1       -0.0258
     20 C          -2.2897   -1.7742   -1.0438 C.ar    1  UNL1       -0.0498
     21 N          -3.6940    1.0142    0.5454 N.ar    1  UNL1       -0.2351
     22 C          -3.4602    2.3368    0.3462 C.ar    1  UNL1        0.0973
     23 N          -2.2386    2.4247   -0.2033 N.ar    1  UNL1       -0.3229
     24 C          -1.6202    3.6848   -0.5639 C.3     1  UNL1        0.0852
     25 C          -0.8390    4.2020    0.6234 C.3     1  UNL1        0.2569
     26 F          -1.6973    4.3851    1.6789 F       1  UNL1       -0.2073
     27 F           0.1096    3.2746    0.9563 F       1  UNL1       -0.2073
     28 N           0.6014    0.3038   -0.2004 N.ar    1  UNL1       -0.1618
     29 N           1.7836    0.0202   -0.7612 N.ar    1  UNL1       -0.1983
     30 H           4.7552   -1.3058    3.7362 H       1  UNL1        0.0323
     31 H           3.0441   -2.0020    3.5979 H       1  UNL1        0.0323
     32 H           4.4825   -2.9996    3.2731 H       1  UNL1        0.0323
     33 H           2.1191   -0.8415    1.8238 H       1  UNL1        0.1563
     34 H           4.8223   -1.0283   -1.0789 H       1  UNL1        0.0865
     35 H           1.2735    1.0972   -3.8755 H       1  UNL1        0.0655
     36 H          -0.9514    1.6264   -2.8137 H       1  UNL1        0.0641
     37 H          -2.6222   -1.2307    2.2558 H       1  UNL1        0.0625
     38 H          -2.3252   -3.6818    2.2679 H       1  UNL1        0.0646
     39 H          -1.9836   -3.6941   -1.9439 H       1  UNL1        0.0646
     40 H          -2.2841   -1.2076   -1.9699 H       1  UNL1        0.0625
     41 H          -4.1599    3.1233    0.6008 H       1  UNL1        0.1029
     42 H          -0.9996    3.6000   -1.4703 H       1  UNL1        0.0548
     43 H          -2.3968    4.4651   -0.8153 H       1  UNL1        0.0548
     44 H          -0.3487    5.1632    0.4180 H       1  UNL1        0.1037
@<TRIPOS>BOND
     1     1     2    1
     2     2     3    2
     3     2     4   am
     4     4     5    1
     5     5     6   ar
     6     6     7   ar
     7     7     8   ar
     8     8     9   ar
     9     9    10   ar
    10    10    11   ar
    11    11    12    1
    12    12    13   ar
    13    13    14    1
    14    14    15   ar
    15    15    16   ar
    16    16    17   ar
    17    17    18    1
    18    17    19   ar
    19    19    20   ar
    20    13    21   ar
    21    21    22   ar
    22    22    23   ar
    23    23    24    1
    24    24    25    1
    25    25    26    1
    26    25    27    1
    27    11    28   ar
    28    28    29   ar
    29    29     5   ar
    30    29     8   ar
    31    23    12   ar
    32    20    14   ar
    33     1    30    1
    34     1    31    1
    35     1    32    1
    36     4    33    1
    37     6    34    1
    38     9    35    1
    39    10    36    1
    40    15    37    1
    41    16    38    1
    42    19    39    1
    43    20    40    1
    44    22    41    1
    45    24    42    1
    46    24    43    1
    47    25    44    1
