@<TRIPOS>MOLECULE
*****
 151 154 0 0 0
SMALL
GASTEIGER

@<TRIPOS>ATOM
      1 C           5.7612    0.5680   -1.4147 C.3     1  UNL1       -0.0382
      2 C           4.2829    0.9985   -1.1940 C.3     1  UNL1       -0.0442
      3 C           3.5823   -0.1068   -0.5321 C.3     1  UNL1       -0.0060
      4 C           4.3455   -0.3683    0.7997 C.3     1  UNL1       -0.0590
      5 C           2.1193    0.0643   -0.1838 C.3     1  UNL1        0.1123
      6 C           1.8324    1.2065    0.7431 C.3     1  UNL1        0.0438
      7 C           2.0187    2.5426    0.1457 C.2     1  UNL1        0.1433
      8 O           1.8413    2.3555   -1.0436 O.2     1  UNL1       -0.2967
      9 C           2.3409    3.8275    0.7851 C.3     1  UNL1        0.0332
     10 C           3.6459    3.7318    1.5739 C.3     1  UNL1       -0.0522
     11 C           1.3208    4.3752    1.6907 C.2     1  UNL1       -0.0726
     12 C           0.6186    5.5211    1.5775 C.2     1  UNL1       -0.0449
     13 C           0.9756    6.2842    0.3477 C.3     1  UNL1       -0.0413
     14 C          -0.3582    5.9597    2.5779 C.3     1  UNL1        0.1090
     15 O           0.0349    7.0763    3.3203 O.3     1  UNL1       -0.3845
     16 C          -1.7499    6.2209    2.0367 C.3     1  UNL1        0.1457
     17 O          -1.7867    7.3477    1.2261 O.3     1  UNL1       -0.3694
     18 C          -2.5238    8.3870    1.7778 C.3     1  UNL1        0.0375
     19 C          -2.3351    5.0339    1.3770 C.2     1  UNL1        0.1674
     20 O          -2.1947    4.1160    2.1969 O.2     1  UNL1       -0.2943
     21 C          -2.9425    4.9657    0.0461 C.3     1  UNL1        0.0179
     22 C          -2.0190    5.4489   -1.0708 C.3     1  UNL1       -0.0556
     23 C          -4.2670    5.6131   -0.1264 C.3     1  UNL1       -0.0376
     24 C          -5.3948    5.0312    0.6812 C.3     1  UNL1       -0.0248
     25 C          -5.2244    5.0863    2.1553 C.3     1  UNL1       -0.0589
     26 C          -5.6699    3.6201    0.2758 C.2     1  UNL1       -0.0812
     27 C          -6.7771    3.2144   -0.3391 C.2     1  UNL1       -0.0654
     28 C          -6.9656    1.7933   -0.7076 C.2     1  UNL1       -0.0620
     29 C          -6.0238    0.8733   -0.4307 C.2     1  UNL1       -0.0617
     30 C          -6.1300   -0.5423   -0.7588 C.2     1  UNL1       -0.0604
     31 C          -6.8917   -1.4356   -1.3088 C.2     1  UNL1       -0.0442
     32 C          -8.2027   -0.9634   -1.8651 C.3     1  UNL1       -0.0411
     33 C          -6.5158   -2.9002   -1.4475 C.3     1  UNL1        0.0817
     34 C          -5.2244   -3.1716   -0.7113 C.3     1  UNL1        0.0037
     35 C          -4.7920   -4.6483   -0.7795 C.3     1  UNL1        0.0651
     36 C          -5.8079   -5.5039   -0.1393 C.3     1  UNL1       -0.0260
     37 C          -5.2305   -6.2807    1.0014 C.3     1  UNL1       -0.0428
     38 C          -4.0263   -6.9745    0.4047 C.3     1  UNL1        0.0183
     39 C          -4.4950   -7.8261   -0.7522 C.3     1  UNL1       -0.0571
     40 C          -2.9953   -5.9662   -0.0509 C.3     1  UNL1        0.2399
     41 O          -2.3322   -6.5487   -1.1349 O.3     1  UNL1       -0.3583
     42 O          -3.4836   -4.7818   -0.4235 O.3     1  UNL1       -0.3387
     43 C          -1.9906   -5.9329    1.0613 C.2     1  UNL1        0.2760
     44 O          -2.0136   -6.8143    1.9566 O.2     1  UNL1       -0.2814
     45 C          -1.1530   -4.7838    0.8153 C.2     1  UNL1        0.2883
     46 O          -1.0155   -3.8541   -0.0015 O.2     1  UNL1       -0.2666
     47 N          -0.0202   -4.0946    1.3931 N.am    1  UNL1       -0.2815
     48 C           0.2207   -4.9050    2.5677 C.3     1  UNL1        0.0159
     49 C           1.4745   -5.7577    2.3569 C.3     1  UNL1       -0.0370
     50 C           2.6152   -4.7276    2.3114 C.3     1  UNL1       -0.0494
     51 C           2.3633   -3.6913    1.2719 C.3     1  UNL1       -0.0238
     52 C           0.9905   -3.0298    1.4097 C.3     1  UNL1        0.1233
     53 C           0.8360   -2.0331    0.3236 C.2     1  UNL1        0.3281
     54 O           0.2363   -1.6453   -0.7039 O.2     1  UNL1       -0.2487
     55 O           1.8172   -1.1207    0.5833 O.3     1  UNL1       -0.4594
     56 O          -6.3944   -3.1713   -2.8004 O.3     1  UNL1       -0.3754
     57 C          -7.2360   -4.1661   -3.2791 C.3     1  UNL1        0.0372
     58 C           6.4789    1.7382   -2.0869 C.3     1  UNL1       -0.0477
     59 C           7.9046    1.4564   -2.4081 C.3     1  UNL1       -0.0239
     60 C           8.3281    0.0794   -1.9992 C.3     1  UNL1        0.0848
     61 O           8.5007    0.0306   -0.6326 O.3     1  UNL1       -0.3718
     62 C           9.8100   -0.2049   -0.2381 C.3     1  UNL1        0.0712
     63 C           9.8110   -0.2345    1.2849 C.3     1  UNL1        0.0676
     64 O           8.9422   -1.2808    1.6633 O.3     1  UNL1       -0.3927
     65 C           7.3556   -0.9428   -2.4967 C.3     1  UNL1        0.0846
     66 C           5.9053   -0.6060   -2.3091 C.3     1  UNL1       -0.0213
     67 O           7.6195   -1.2873   -3.8345 O.3     1  UNL1       -0.3772
     68 C           8.0126   -2.6225   -3.9448 C.3     1  UNL1        0.0369
     69 H           6.2459    0.3870   -0.4527 H       1  UNL1        0.0302
     70 H           3.8727    1.2634   -2.2006 H       1  UNL1        0.0272
     71 H           4.3827    1.8699   -0.5229 H       1  UNL1        0.0272
     72 H           3.6844   -1.0426   -1.1158 H       1  UNL1        0.0334
     73 H           4.8766    0.5572    1.1137 H       1  UNL1        0.0234
     74 H           3.5942   -0.6254    1.5816 H       1  UNL1        0.0234
     75 H           5.0786   -1.1609    0.6936 H       1  UNL1        0.0234
     76 H           1.4587    0.1189   -1.0526 H       1  UNL1        0.0741
     77 H           0.7654    1.1818    1.1020 H       1  UNL1        0.0378
     78 H           2.4284    1.1780    1.6801 H       1  UNL1        0.0378
     79 H           2.5100    4.5635   -0.0312 H       1  UNL1        0.0417
     80 H           3.8725    2.6951    1.8784 H       1  UNL1        0.0239
     81 H           4.4969    4.0774    0.9417 H       1  UNL1        0.0239
     82 H           3.6120    4.3589    2.4874 H       1  UNL1        0.0239
     83 H           1.1713    3.6945    2.5483 H       1  UNL1        0.0579
     84 H           0.3568    7.1781    0.1827 H       1  UNL1        0.0275
     85 H           0.8252    5.5959   -0.5320 H       1  UNL1        0.0275
     86 H           2.0258    6.6288    0.3464 H       1  UNL1        0.0275
     87 H          -0.4731    5.1450    3.3546 H       1  UNL1        0.0671
     88 H           0.2588    7.8409    2.7672 H       1  UNL1        0.2103
     89 H          -2.3636    6.4685    2.9314 H       1  UNL1        0.0705
     90 H          -2.5515    9.2821    1.1286 H       1  UNL1        0.0524
     91 H          -2.1379    8.6502    2.7988 H       1  UNL1        0.0524
     92 H          -3.5566    8.0459    1.9400 H       1  UNL1        0.0524
     93 H          -3.0931    3.8754   -0.1935 H       1  UNL1        0.0376
     94 H          -2.6809    5.4713   -1.9846 H       1  UNL1        0.0236
     95 H          -1.2718    4.6717   -1.2851 H       1  UNL1        0.0236
     96 H          -1.6437    6.4576   -0.9198 H       1  UNL1        0.0236
     97 H          -4.2112    6.6823    0.1066 H       1  UNL1        0.0277
     98 H          -4.5990    5.5134   -1.2033 H       1  UNL1        0.0277
     99 H          -6.3077    5.5991    0.3851 H       1  UNL1        0.0341
    100 H          -4.6066    5.9483    2.4172 H       1  UNL1        0.0235
    101 H          -4.8846    4.1122    2.5794 H       1  UNL1        0.0235
    102 H          -6.2526    5.2167    2.5942 H       1  UNL1        0.0235
    103 H          -4.7735    3.1282    0.6153 H       1  UNL1        0.0575
    104 H          -7.5338    3.9434   -0.5605 H       1  UNL1        0.0615
    105 H          -7.9267    1.6123   -1.2115 H       1  UNL1        0.0617
    106 H          -5.1500    1.2593    0.0665 H       1  UNL1        0.0618
    107 H          -5.1997   -1.0120   -0.3804 H       1  UNL1        0.0618
    108 H          -8.7827   -1.8007   -2.3193 H       1  UNL1        0.0275
    109 H          -8.0679   -0.2459   -2.6983 H       1  UNL1        0.0275
    110 H          -8.8213   -0.5831   -1.0271 H       1  UNL1        0.0275
    111 H          -7.2960   -3.5499   -1.0337 H       1  UNL1        0.0644
    112 H          -4.3833   -2.6351   -1.1807 H       1  UNL1        0.0318
    113 H          -5.2516   -2.8872    0.3544 H       1  UNL1        0.0318
    114 H          -4.8189   -4.8503   -1.8774 H       1  UNL1        0.0598
    115 H          -6.6078   -4.8725    0.3058 H       1  UNL1        0.0290
    116 H          -6.2202   -6.2448   -0.8570 H       1  UNL1        0.0290
    117 H          -5.9577   -7.0927    1.2605 H       1  UNL1        0.0270
    118 H          -5.0130   -5.7154    1.9051 H       1  UNL1        0.0270
    119 H          -3.6227   -7.6602    1.1708 H       1  UNL1        0.0355
    120 H          -3.8995   -8.7455   -0.8183 H       1  UNL1        0.0234
    121 H          -4.5779   -7.2539   -1.7028 H       1  UNL1        0.0234
    122 H          -5.5413   -8.1433   -0.5209 H       1  UNL1        0.0234
    123 H          -1.8060   -5.8546   -1.6101 H       1  UNL1        0.2132
    124 H           0.5522   -4.1994    3.4141 H       1  UNL1        0.0465
    125 H          -0.6100   -5.4280    3.0163 H       1  UNL1        0.0465
    126 H           1.6268   -6.3459    3.2633 H       1  UNL1        0.0280
    127 H           1.4355   -6.3899    1.4744 H       1  UNL1        0.0280
    128 H           2.7595   -4.3282    3.3221 H       1  UNL1        0.0266
    129 H           3.5449   -5.2733    1.9953 H       1  UNL1        0.0266
    130 H           2.3411   -4.1909    0.2749 H       1  UNL1        0.0288
    131 H           3.1356   -2.9316    1.3494 H       1  UNL1        0.0288
    132 H           0.9568   -2.5675    2.4119 H       1  UNL1        0.0616
    133 H          -8.3166   -3.9524   -3.1469 H       1  UNL1        0.0524
    134 H          -7.0799   -5.1345   -2.7593 H       1  UNL1        0.0524
    135 H          -7.0480   -4.3563   -4.3656 H       1  UNL1        0.0524
    136 H           6.4273    2.6429   -1.4300 H       1  UNL1        0.0269
    137 H           5.9298    1.9305   -3.0385 H       1  UNL1        0.0269
    138 H           8.1202    1.6570   -3.4902 H       1  UNL1        0.0291
    139 H           8.5436    2.2187   -1.8775 H       1  UNL1        0.0291
    140 H           9.3523   -0.0976   -2.4586 H       1  UNL1        0.0622
    141 H          10.5398    0.5269   -0.6361 H       1  UNL1        0.0583
    142 H          10.1079   -1.2138   -0.5806 H       1  UNL1        0.0583
    143 H          10.7911   -0.4249    1.7169 H       1  UNL1        0.0580
    144 H           9.3853    0.6924    1.7137 H       1  UNL1        0.0580
    145 H           9.4392   -1.9590    2.1812 H       1  UNL1        0.2095
    146 H           7.5528   -1.9088   -1.9353 H       1  UNL1        0.0622
    147 H           5.4179   -1.5358   -1.8933 H       1  UNL1        0.0294
    148 H           5.3865   -0.4580   -3.2957 H       1  UNL1        0.0294
    149 H           8.9424   -2.7944   -3.3450 H       1  UNL1        0.0524
    150 H           8.1399   -2.8843   -4.9978 H       1  UNL1        0.0524
    151 H           7.2352   -3.2328   -3.4184 H       1  UNL1        0.0524
@<TRIPOS>BOND
     1     1     2    1
     2     2     3    1
     3     3     4    1
     4     3     5    1
     5     5     6    1
     6     6     7    1
     7     7     8    2
     8     7     9    1
     9     9    10    1
    10     9    11    1
    11    11    12    2
    12    12    13    1
    13    12    14    1
    14    14    15    1
    15    14    16    1
    16    16    17    1
    17    17    18    1
    18    16    19    1
    19    19    20    2
    20    19    21    1
    21    21    22    1
    22    21    23    1
    23    23    24    1
    24    24    25    1
    25    24    26    1
    26    26    27    2
    27    27    28    1
    28    28    29    2
    29    29    30    1
    30    30    31    2
    31    31    32    1
    32    31    33    1
    33    33    34    1
    34    34    35    1
    35    35    36    1
    36    36    37    1
    37    37    38    1
    38    38    39    1
    39    38    40    1
    40    40    41    1
    41    40    42    1
    42    40    43    1
    43    43    44    2
    44    43    45    1
    45    45    46    2
    46    45    47   am
    47    47    48    1
    48    48    49    1
    49    49    50    1
    50    50    51    1
    51    51    52    1
    52    52    53    1
    53    53    54    2
    54    53    55    1
    55    33    56    1
    56    56    57    1
    57     1    58    1
    58    58    59    1
    59    59    60    1
    60    60    61    1
    61    61    62    1
    62    62    63    1
    63    63    64    1
    64    60    65    1
    65    65    66    1
    66    65    67    1
    67    67    68    1
    68    66     1    1
    69    55     5    1
    70    42    35    1
    71    52    47    1
    72     1    69    1
    73     2    70    1
    74     2    71    1
    75     3    72    1
    76     4    73    1
    77     4    74    1
    78     4    75    1
    79     5    76    1
    80     6    77    1
    81     6    78    1
    82     9    79    1
    83    10    80    1
    84    10    81    1
    85    10    82    1
    86    11    83    1
    87    13    84    1
    88    13    85    1
    89    13    86    1
    90    14    87    1
    91    15    88    1
    92    16    89    1
    93    18    90    1
    94    18    91    1
    95    18    92    1
    96    21    93    1
    97    22    94    1
    98    22    95    1
    99    22    96    1
   100    23    97    1
   101    23    98    1
   102    24    99    1
   103    25   100    1
   104    25   101    1
   105    25   102    1
   106    26   103    1
   107    27   104    1
   108    28   105    1
   109    29   106    1
   110    30   107    1
   111    32   108    1
   112    32   109    1
   113    32   110    1
   114    33   111    1
   115    34   112    1
   116    34   113    1
   117    35   114    1
   118    36   115    1
   119    36   116    1
   120    37   117    1
   121    37   118    1
   122    38   119    1
   123    39   120    1
   124    39   121    1
   125    39   122    1
   126    41   123    1
   127    48   124    1
   128    48   125    1
   129    49   126    1
   130    49   127    1
   131    50   128    1
   132    50   129    1
   133    51   130    1
   134    51   131    1
   135    52   132    1
   136    57   133    1
   137    57   134    1
   138    57   135    1
   139    58   136    1
   140    58   137    1
   141    59   138    1
   142    59   139    1
   143    60   140    1
   144    62   141    1
   145    62   142    1
   146    63   143    1
   147    63   144    1
   148    64   145    1
   149    65   146    1
   150    66   147    1
   151    66   148    1
   152    68   149    1
   153    68   150    1
   154    68   151    1
