
     RDKit          3D

 62 64  0  0  0  0  0  0  0  0999 V2000
   -6.6370    0.6335    0.0982 N   0  0  0  0  0  0  0  0  0  0  0  0
   -7.0835    1.3697    1.0848 C   0  0  0  0  0  0  0  0  0  0  0  0
   -8.1742    0.8531    1.8012 N   0  0  0  0  0  0  0  0  0  0  0  0
   -6.4278    2.5842    1.2978 N   0  0  0  0  0  0  0  0  0  0  0  0
   -5.1239    2.9008    1.6284 C   0  0  0  0  0  0  0  0  0  0  0  0
   -3.9595    2.6234    0.7377 C   0  0  0  0  0  0  0  0  0  0  0  0
   -3.6257    1.1813    0.6846 C   0  0  0  0  0  0  0  0  0  0  0  0
   -2.5700    0.7248   -0.2478 C   0  0  1  0  0  0  0  0  0  0  0  0
   -1.2795    1.2994   -0.1187 N   0  0  0  0  0  0  0  0  0  0  0  0
   -0.1774    0.8150   -0.8452 C   0  0  0  0  0  0  0  0  0  0  0  0
   -0.3962   -0.1740   -1.5944 O   0  0  0  0  0  0  0  0  0  0  0  0
    1.1847    1.3797   -0.7704 C   0  0  0  0  0  0  0  0  0  0  0  0
    2.0772    0.5118   -1.4886 N   0  0  0  0  0  0  0  0  0  0  0  0
    2.4103    0.5312   -2.8805 C   0  0  0  0  0  0  0  0  0  0  0  0
    3.9454    0.5339   -2.8663 C   0  0  0  0  0  0  0  0  0  0  0  0
    4.4457   -0.7043   -2.3999 N   0  0  0  0  0  0  0  0  0  0  0  0
    6.0941   -0.5234   -1.9156 S   0  0  0  0  0  6  0  0  0  0  0  0
    6.5935    0.8370   -2.3588 O   0  0  0  0  0  0  0  0  0  0  0  0
    6.9166   -1.5493   -2.6602 O   0  0  0  0  0  0  0  0  0  0  0  0
    6.2909   -0.6156   -0.1922 C   0  0  0  0  0  0  0  0  0  0  0  0
    6.5090   -1.8143    0.4515 C   0  0  0  0  0  0  0  0  0  0  0  0
    6.6567   -1.8799    1.7938 C   0  0  0  0  0  0  0  0  0  0  0  0
    6.5937   -0.7347    2.5922 C   0  0  0  0  0  0  0  0  0  0  0  0
    6.7882   -0.8097    4.3170 Cl  0  0  0  0  0  0  0  0  0  0  0  0
    6.3818    0.4657    1.9777 C   0  0  0  0  0  0  0  0  0  0  0  0
    6.2333    0.5227    0.5861 C   0  0  0  0  0  0  0  0  0  0  0  0
    3.7029   -1.4033   -1.4448 C   0  0  0  0  0  0  0  0  0  0  0  0
    2.7268   -0.5549   -0.7335 C   0  0  0  0  0  0  0  0  0  0  0  0
    2.4308   -0.7020    0.4862 O   0  0  0  0  0  0  0  0  0  0  0  0
   -2.3777   -0.8093    0.2490 C   0  0  0  0  0  0  0  0  0  0  0  0
   -1.2859   -1.0036    0.6354 O   0  0  0  0  0  0  0  0  0  0  0  0
   -3.5884   -1.5561    0.0959 C   0  0  0  0  0  0  0  0  0  0  0  0
   -2.7927   -3.0479    0.2756 N   0  0  0  0  0  0  0  0  0  0  0  0
   -3.3731   -4.0743    0.2281 C   0  0  0  0  0  0  0  0  0  0  0  0
   -4.7564   -4.1605    0.0280 C   0  0  0  0  0  0  0  0  0  0  0  0
   -4.9910   -2.4505   -0.0743 S   0  0  0  0  0  0  0  0  0  0  0  0
   -7.0548   -0.2624   -0.1383 H   0  0  0  0  0  0  0  0  0  0  0  0
   -9.1344    0.9211    1.4180 H   0  0  0  0  0  0  0  0  0  0  0  0
   -8.0370    0.3841    2.7501 H   0  0  0  0  0  0  0  0  0  0  0  0
   -7.1240    3.4371    1.1999 H   0  0  0  0  0  0  0  0  0  0  0  0
   -4.8557    2.5555    2.6997 H   0  0  0  0  0  0  0  0  0  0  0  0
   -5.0720    4.0402    1.7965 H   0  0  0  0  0  0  0  0  0  0  0  0
   -3.0393    3.1633    1.1723 H   0  0  0  0  0  0  0  0  0  0  0  0
   -4.0385    3.0979   -0.2659 H   0  0  0  0  0  0  0  0  0  0  0  0
   -4.4227    0.4611    0.8458 H   0  0  0  0  0  0  0  0  0  0  0  0
   -3.0649    1.0145    1.7504 H   0  0  0  0  0  0  0  0  0  0  0  0
   -2.8752    0.5908   -1.2835 H   0  0  0  0  0  0  0  0  0  0  0  0
   -1.1376    2.1297    0.5312 H   0  0  0  0  0  0  0  0  0  0  0  0
    1.2198    2.4057   -1.2299 H   0  0  0  0  0  0  0  0  0  0  0  0
    1.5109    1.4576    0.2902 H   0  0  0  0  0  0  0  0  0  0  0  0
    2.0741    1.3758   -3.4479 H   0  0  0  0  0  0  0  0  0  0  0  0
    2.0789   -0.4285   -3.3822 H   0  0  0  0  0  0  0  0  0  0  0  0
    4.3414    0.9438   -3.7879 H   0  0  0  0  0  0  0  0  0  0  0  0
    4.1818    1.3295   -2.0802 H   0  0  0  0  0  0  0  0  0  0  0  0
    6.5638   -2.7607   -0.1321 H   0  0  0  0  0  0  0  0  0  0  0  0
    6.8147   -2.8180    2.3386 H   0  0  0  0  0  0  0  0  0  0  0  0
    6.3271    1.3716    2.5615 H   0  0  0  0  0  0  0  0  0  0  0  0
    6.0838    1.5026    0.1690 H   0  0  0  0  0  0  0  0  0  0  0  0
    3.1618   -2.3059   -1.8604 H   0  0  0  0  0  0  0  0  0  0  0  0
    4.4357   -1.8048   -0.6675 H   0  0  0  0  0  0  0  0  0  0  0  0
   -2.8964   -5.1338    0.3146 H   0  0  0  0  0  0  0  0  0  0  0  0
   -5.4029   -5.0045   -0.0199 H   0  0  0  0  0  0  0  0  0  0  0  0
  1  2  2  3
  2  3  1  0
  2  4  1  0
  4  5  1  0
  5  6  1  0
  6  7  1  0
  7  8  1  0
  8  9  1  0
  9 10  1  0
 10 11  2  0
 10 12  1  0
 12 13  1  0
 13 14  1  0
 14 15  1  0
 15 16  1  0
 16 17  1  0
 17 18  2  0
 17 19  2  0
 17 20  1  0
 20 21  2  0
 21 22  1  0
 22 23  2  0
 23 24  1  0
 23 25  1  0
 25 26  2  0
 16 27  1  0
 27 28  1  0
 28 29  2  0
  8 30  1  0
 30 31  2  0
 30 32  1  0
 32 33  2  0
 33 34  1  0
 34 35  2  0
 35 36  1  0
 28 13  1  0
 36 32  1  0
 26 20  1  0
  1 37  1  0
  3 38  1  0
  3 39  1  0
  4 40  1  0
  5 41  1  0
  5 42  1  0
  6 43  1  0
  6 44  1  0
  7 45  1  0
  7 46  1  0
  8 47  1  6
  9 48  1  0
 12 49  1  0
 12 50  1  0
 14 51  1  0
 14 52  1  0
 15 53  1  0
 15 54  1  0
 21 55  1  0
 22 56  1  0
 25 57  1  0
 26 58  1  0
 27 59  1  0
 27 60  1  0
 34 61  1  0
 35 62  1  0
M  END
$$$$
