@<TRIPOS>MOLECULE
*****
 62 64 0 0 0
SMALL
GASTEIGER

@<TRIPOS>ATOM
      1 N          -6.6370    0.6335    0.0982 N.pl3   1  UNL1       -0.1298
      2 C          -7.0835    1.3697    1.0848 C.cat   1  UNL1        0.3762
      3 N          -8.1742    0.8531    1.8012 N.pl3   1  UNL1       -0.2893
      4 N          -6.4278    2.5842    1.2978 N.pl3   1  UNL1       -0.2761
      5 C          -5.1239    2.9008    1.6284 C.3     1  UNL1        0.0647
      6 C          -3.9595    2.6234    0.7377 C.3     1  UNL1       -0.0201
      7 C          -3.6257    1.1813    0.6846 C.3     1  UNL1       -0.0243
      8 C          -2.5700    0.7248   -0.2478 C.3     1  UNL1        0.0882
      9 N          -1.2795    1.2994   -0.1187 N.am    1  UNL1       -0.3039
     10 C          -0.1774    0.8150   -0.8452 C.2     1  UNL1        0.2310
     11 O          -0.3962   -0.1740   -1.5944 O.2     1  UNL1       -0.2741
     12 C           1.1847    1.3797   -0.7704 C.3     1  UNL1        0.0911
     13 N           2.0772    0.5118   -1.4886 N.am    1  UNL1       -0.2903
     14 C           2.4103    0.5312   -2.8805 C.3     1  UNL1        0.0297
     15 C           3.9454    0.5339   -2.8663 C.3     1  UNL1        0.0368
     16 N           4.4457   -0.7043   -2.3999 N.3     1  UNL1       -0.1663
     17 S           6.0941   -0.5234   -1.9156 S.O2    1  UNL1        0.0613
     18 O           6.5935    0.8370   -2.3588 O.2     1  UNL1       -0.1528
     19 O           6.9166   -1.5493   -2.6602 O.2     1  UNL1       -0.1528
     20 C           6.2909   -0.6156   -0.1922 C.ar    1  UNL1        0.1056
     21 C           6.5090   -1.8143    0.4515 C.ar    1  UNL1       -0.0340
     22 C           6.6567   -1.8799    1.7938 C.ar    1  UNL1       -0.0415
     23 C           6.5937   -0.7347    2.5922 C.ar    1  UNL1        0.0411
     24 CL          6.7882   -0.8097    4.3170 Cl      1  UNL1       -0.0835
     25 C           6.3818    0.4657    1.9777 C.ar    1  UNL1       -0.0415
     26 C           6.2333    0.5227    0.5861 C.ar    1  UNL1       -0.0340
     27 C           3.7029   -1.4033   -1.4448 C.3     1  UNL1        0.0971
     28 C           2.7268   -0.5549   -0.7335 C.2     1  UNL1        0.2318
     29 O           2.4308   -0.7020    0.4862 O.2     1  UNL1       -0.2741
     30 C          -2.3777   -0.8093    0.2490 C.2     1  UNL1        0.2079
     31 O          -1.2859   -1.0036    0.6354 O.2     1  UNL1       -0.2879
     32 C          -3.5884   -1.5561    0.0959 C.ar    1  UNL1        0.1453
     33 N          -2.7927   -3.0479    0.2756 N.ar    1  UNL1       -0.2443
     34 C          -3.3731   -4.0743    0.2281 C.ar    1  UNL1        0.0355
     35 C          -4.7564   -4.1605    0.0280 C.ar    1  UNL1       -0.0041
     36 S          -4.9910   -2.4505   -0.0743 S.2     1  UNL1       -0.0728
     37 H          -7.0548   -0.2624   -0.1383 H       1  UNL1        0.3062
     38 H          -9.1344    0.9211    1.4180 H       1  UNL1        0.2546
     39 H          -8.0370    0.3841    2.7501 H       1  UNL1        0.2546
     40 H          -7.1240    3.4371    1.1999 H       1  UNL1        0.2579
     41 H          -4.8557    2.5555    2.6997 H       1  UNL1        0.0655
     42 H          -5.0720    4.0402    1.7965 H       1  UNL1        0.0655
     43 H          -3.0393    3.1633    1.1723 H       1  UNL1        0.0296
     44 H          -4.0385    3.0979   -0.2659 H       1  UNL1        0.0296
     45 H          -4.4227    0.4611    0.8458 H       1  UNL1        0.0288
     46 H          -3.0649    1.0145    1.7504 H       1  UNL1        0.0288
     47 H          -2.8752    0.5908   -1.2835 H       1  UNL1        0.0582
     48 H          -1.1376    2.1297    0.5312 H       1  UNL1        0.1494
     49 H           1.2198    2.4057   -1.2299 H       1  UNL1        0.0560
     50 H           1.5109    1.4576    0.2902 H       1  UNL1        0.0560
     51 H           2.0741    1.3758   -3.4479 H       1  UNL1        0.0478
     52 H           2.0789   -0.4285   -3.3822 H       1  UNL1        0.0478
     53 H           4.3414    0.9438   -3.7879 H       1  UNL1        0.0459
     54 H           4.1818    1.3295   -2.0802 H       1  UNL1        0.0459
     55 H           6.5638   -2.7607   -0.1321 H       1  UNL1        0.0637
     56 H           6.8147   -2.8180    2.3386 H       1  UNL1        0.0633
     57 H           6.3271    1.3716    2.5615 H       1  UNL1        0.0633
     58 H           6.0838    1.5026    0.1690 H       1  UNL1        0.0637
     59 H           3.1618   -2.3059   -1.8604 H       1  UNL1        0.0539
     60 H           4.4357   -1.8048   -0.6675 H       1  UNL1        0.0539
     61 H          -2.8964   -5.1338    0.3146 H       1  UNL1        0.0835
     62 H          -5.4029   -5.0045   -0.0199 H       1  UNL1        0.0709
@<TRIPOS>BOND
     1     1     2    2
     2     2     3    1
     3     2     4    1
     4     4     5    1
     5     5     6    1
     6     6     7    1
     7     7     8    1
     8     8     9    1
     9     9    10   am
    10    10    11    2
    11    10    12    1
    12    12    13    1
    13    13    14    1
    14    14    15    1
    15    15    16    1
    16    16    17    1
    17    17    18    2
    18    17    19    2
    19    17    20    1
    20    20    21   ar
    21    21    22   ar
    22    22    23   ar
    23    23    24    1
    24    23    25   ar
    25    25    26   ar
    26    16    27    1
    27    27    28    1
    28    28    29    2
    29     8    30    1
    30    30    31    2
    31    30    32    1
    32    32    33   ar
    33    33    34   ar
    34    34    35   ar
    35    35    36   ar
    36    28    13   am
    37    36    32   ar
    38    26    20   ar
    39     1    37    1
    40     3    38    1
    41     3    39    1
    42     4    40    1
    43     5    41    1
    44     5    42    1
    45     6    43    1
    46     6    44    1
    47     7    45    1
    48     7    46    1
    49     8    47    1
    50     9    48    1
    51    12    49    1
    52    12    50    1
    53    14    51    1
    54    14    52    1
    55    15    53    1
    56    15    54    1
    57    21    55    1
    58    22    56    1
    59    25    57    1
    60    26    58    1
    61    27    59    1
    62    27    60    1
    63    34    61    1
    64    35    62    1
