@<TRIPOS>MOLECULE
*****
 28 28 0 0 0
SMALL
GASTEIGER

@<TRIPOS>ATOM
      1 N           4.1445    1.2710   -1.7512 N.pl3   1  UNL1        0.3300
      2 C           3.5552    0.3606   -0.8322 C.cat   1  UNL1        0.0000
      3 N           4.2456   -0.6842   -0.5292 N.pl3   1  UNL1        0.3300
      4 N           2.2872    0.4542   -0.1962 N.pl3   1  UNL1        0.3300
      5 C           1.9744   -0.6460    0.6948 C.3     1  UNL1        0.0000
      6 C           0.6045   -0.4011    1.2876 C.3     1  UNL1        0.0000
      7 C          -0.3851   -0.3328    0.1525 C.3     1  UNL1        0.0000
      8 O          -1.6811   -0.1046    0.6656 O.3     1  UNL1        0.0000
      9 B          -2.6514   -0.0377   -0.4438 B       1  UNL1        0.0000
     10 O          -3.6861   -1.0852   -0.5637 O.3     1  UNL1        0.0000
     11 C          -4.9132   -0.4148   -0.5888 C.3     1  UNL1        0.0000
     12 C          -4.5574    0.8991    0.0801 C.3     1  UNL1        0.0000
     13 O          -3.4020    1.2182   -0.6673 O.3     1  UNL1        0.0000
     14 H           4.0572    1.4768   -2.7910 H       1  UNL1        0.0000
     15 H           4.8178    1.8327   -1.1500 H       1  UNL1        0.0000
     16 H           5.1076   -1.2419   -0.6387 H       1  UNL1        0.0000
     17 H           4.0504   -1.4771    0.0964 H       1  UNL1        0.0000
     18 H           1.7330    1.3180   -0.4558 H       1  UNL1        0.0000
     19 H           2.0050   -1.6250    0.1912 H       1  UNL1        0.0000
     20 H           2.6858   -0.6747    1.5631 H       1  UNL1        0.0000
     21 H           0.3433   -1.1375    2.0453 H       1  UNL1        0.0000
     22 H           0.6429    0.6232    1.7548 H       1  UNL1        0.0000
     23 H          -0.1558    0.5502   -0.4785 H       1  UNL1        0.0000
     24 H          -0.3635   -1.2636   -0.4411 H       1  UNL1        0.0000
     25 H          -5.7035   -0.9624   -0.0443 H       1  UNL1        0.0000
     26 H          -5.1467   -0.2414   -1.6685 H       1  UNL1        0.0000
     27 H          -4.2819    0.6595    1.1232 H       1  UNL1        0.0000
     28 H          -5.3268    1.6664   -0.0194 H       1  UNL1        0.0000
@<TRIPOS>UNITY_ATOM_ATTR
3 1
charge 1
@<TRIPOS>BOND
     1     1     2    1
     2     2     3    2
     3     2     4    1
     4     4     5    1
     5     5     6    1
     6     6     7    1
     7     7     8    1
     8     8     9    1
     9     9    10    1
    10    10    11    1
    11    11    12    1
    12    12    13    1
    13    13     9    1
    14     1    14    1
    15     1    15    1
    16     3    16    1
    17     3    17    1
    18     4    18    1
    19     5    19    1
    20     5    20    1
    21     6    21    1
    22     6    22    1
    23     7    23    1
    24     7    24    1
    25    11    25    1
    26    11    26    1
    27    12    27    1
    28    12    28    1
