
     RDKit          3D

 45 46  0  0  0  0  0  0  0  0999 V2000
    4.5520    0.1046   -1.9704 C   0  0  0  0  0  0  0  0  0  0  0  0
    4.0917   -0.1470   -0.5257 C   0  0  0  0  0  0  0  0  0  0  0  0
    4.2987   -1.5957   -0.2385 C   0  0  0  0  0  0  0  0  0  0  0  0
    2.7453    0.3176   -0.4351 N   0  0  0  0  0  0  0  0  0  0  0  0
    2.1234    0.1344    0.8412 C   0  0  0  0  0  0  0  0  0  0  0  0
    0.7486    0.7205    0.7470 C   0  0  0  0  0  0  0  0  0  0  0  0
   -0.3904   -0.0132    0.6156 C   0  0  0  0  0  0  0  0  0  0  0  0
   -1.6219    0.5554    0.5304 C   0  0  0  0  0  0  0  0  0  0  0  0
   -2.9036   -0.1596    0.3829 C   0  0  2  0  0  0  0  0  0  0  0  0
   -3.8085    0.1931    1.5262 C   0  0  0  0  0  0  0  0  0  0  0  0
   -2.7461   -1.6381    0.2823 C   0  0  0  0  0  0  0  0  0  0  0  0
   -4.0838   -2.3319    0.4064 C   0  0  0  0  0  0  0  0  0  0  0  0
   -5.4238   -1.3002   -0.2582 S   0  0  0  0  0  0  0  0  0  0  0  0
   -4.6093   -0.0889   -1.3264 C   0  0  0  0  0  0  0  0  0  0  0  0
   -5.1909    0.3481   -2.5311 N   0  0  0  0  0  0  0  0  0  0  0  0
   -3.4695    0.3266   -0.8854 N   0  0  0  0  0  0  0  0  0  0  0  0
   -1.6995    1.9448    0.5816 C   0  0  0  0  0  0  0  0  0  0  0  0
   -2.9136    2.5800    0.5001 F   0  0  0  0  0  0  0  0  0  0  0  0
   -0.5848    2.7442    0.7135 C   0  0  0  0  0  0  0  0  0  0  0  0
    0.6369    2.1152    0.7952 C   0  0  0  0  0  0  0  0  0  0  0  0
    1.7294    2.9123    0.9251 F   0  0  0  0  0  0  0  0  0  0  0  0
    5.0520    0.6542    0.3310 C   0  0  0  0  0  0  0  0  0  0  0  0
    4.9592    1.9978   -0.0171 F   0  0  0  0  0  0  0  0  0  0  0  0
    6.3356    0.2537   -0.0344 F   0  0  0  0  0  0  0  0  0  0  0  0
    4.9150    0.4287    1.6657 F   0  0  0  0  0  0  0  0  0  0  0  0
    5.6606    0.1773   -2.0285 H   0  0  0  0  0  0  0  0  0  0  0  0
    4.1617   -0.7062   -2.6317 H   0  0  0  0  0  0  0  0  0  0  0  0
    4.0951    1.0646   -2.2696 H   0  0  0  0  0  0  0  0  0  0  0  0
    3.4843   -2.2356   -0.5883 H   0  0  0  0  0  0  0  0  0  0  0  0
    5.2226   -1.9749   -0.7636 H   0  0  0  0  0  0  0  0  0  0  0  0
    4.5351   -1.7447    0.8561 H   0  0  0  0  0  0  0  0  0  0  0  0
    2.1796   -0.1749   -1.1438 H   0  0  0  0  0  0  0  0  0  0  0  0
    2.6288    0.6452    1.6699 H   0  0  0  0  0  0  0  0  0  0  0  0
    1.9956   -0.9224    1.1412 H   0  0  0  0  0  0  0  0  0  0  0  0
   -0.3234   -1.0896    0.5771 H   0  0  0  0  0  0  0  0  0  0  0  0
   -4.2191   -0.6854    2.0644 H   0  0  0  0  0  0  0  0  0  0  0  0
   -4.6421    0.8370    1.1321 H   0  0  0  0  0  0  0  0  0  0  0  0
   -3.2348    0.7648    2.2809 H   0  0  0  0  0  0  0  0  0  0  0  0
   -2.2416   -1.9733   -0.6325 H   0  0  0  0  0  0  0  0  0  0  0  0
   -2.1325   -1.9860    1.1483 H   0  0  0  0  0  0  0  0  0  0  0  0
   -4.3343   -2.6263    1.4455 H   0  0  0  0  0  0  0  0  0  0  0  0
   -4.0703   -3.2661   -0.1955 H   0  0  0  0  0  0  0  0  0  0  0  0
   -6.1380    0.7584   -2.5255 H   0  0  0  0  0  0  0  0  0  0  0  0
   -4.6701    0.2570   -3.4173 H   0  0  0  0  0  0  0  0  0  0  0  0
   -0.6994    3.8248    0.7481 H   0  0  0  0  0  0  0  0  0  0  0  0
  1  2  1  0
  2  3  1  0
  2  4  1  0
  4  5  1  0
  5  6  1  0
  6  7  2  0
  7  8  1  0
  8  9  1  0
  9 10  1  1
  9 11  1  0
 11 12  1  0
 12 13  1  0
 13 14  1  0
 14 15  1  0
 14 16  2  0
  8 17  2  0
 17 18  1  0
 17 19  1  0
 19 20  2  0
 20 21  1  0
  2 22  1  0
 22 23  1  0
 22 24  1  0
 22 25  1  0
 20  6  1  0
 16  9  1  0
  1 26  1  0
  1 27  1  0
  1 28  1  0
  3 29  1  0
  3 30  1  0
  3 31  1  0
  4 32  1  0
  5 33  1  0
  5 34  1  0
  7 35  1  0
 10 36  1  0
 10 37  1  0
 10 38  1  0
 11 39  1  0
 11 40  1  0
 12 41  1  0
 12 42  1  0
 15 43  1  0
 15 44  1  0
 19 45  1  0
M  END
$$$$
