@<TRIPOS>MOLECULE
*****
 45 46 0 0 0
SMALL
GASTEIGER

@<TRIPOS>ATOM
      1 C           4.5520    0.1046   -1.9704 C.3     1  UNL1       -0.0386
      2 C           4.0917   -0.1470   -0.5257 C.3     1  UNL1        0.1096
      3 C           4.2987   -1.5957   -0.2385 C.3     1  UNL1       -0.0386
      4 N           2.7453    0.3176   -0.4351 N.3     1  UNL1       -0.2997
      5 C           2.1234    0.1344    0.8412 C.3     1  UNL1        0.0247
      6 C           0.7486    0.7205    0.7470 C.ar    1  UNL1        0.0021
      7 C          -0.3904   -0.0132    0.6156 C.ar    1  UNL1       -0.0464
      8 C          -1.6219    0.5554    0.5304 C.ar    1  UNL1        0.0154
      9 C          -2.9036   -0.1596    0.3829 C.3     1  UNL1        0.0897
     10 C          -3.8085    0.1931    1.5262 C.3     1  UNL1       -0.0354
     11 C          -2.7461   -1.6381    0.2823 C.3     1  UNL1       -0.0142
     12 C          -4.0838   -2.3319    0.4064 C.3     1  UNL1        0.0034
     13 S          -5.4238   -1.3002   -0.2582 S.3     1  UNL1       -0.0910
     14 C          -4.6093   -0.0889   -1.3264 C.2     1  UNL1        0.1475
     15 N          -5.1909    0.3481   -2.5311 N.pl3   1  UNL1       -0.3380
     16 N          -3.4695    0.3266   -0.8854 N.2     1  UNL1       -0.2524
     17 C          -1.6995    1.9448    0.5816 C.ar    1  UNL1        0.1316
     18 F          -2.9136    2.5800    0.5001 F       1  UNL1       -0.2050
     19 C          -0.5848    2.7442    0.7135 C.ar    1  UNL1        0.0095
     20 C           0.6369    2.1152    0.7952 C.ar    1  UNL1        0.1305
     21 F           1.7294    2.9123    0.9251 F       1  UNL1       -0.2051
     22 C           5.0520    0.6542    0.3310 C.3     1  UNL1        0.4071
     23 F           4.9592    1.9978   -0.0171 F       1  UNL1       -0.1687
     24 F           6.3356    0.2537   -0.0344 F       1  UNL1       -0.1687
     25 F           4.9150    0.4287    1.6657 F       1  UNL1       -0.1687
     26 H           5.6606    0.1773   -2.0285 H       1  UNL1        0.0250
     27 H           4.1617   -0.7062   -2.6317 H       1  UNL1        0.0250
     28 H           4.0951    1.0646   -2.2696 H       1  UNL1        0.0250
     29 H           3.4843   -2.2356   -0.5883 H       1  UNL1        0.0250
     30 H           5.2226   -1.9749   -0.7636 H       1  UNL1        0.0250
     31 H           4.5351   -1.7447    0.8561 H       1  UNL1        0.0250
     32 H           2.1796   -0.1749   -1.1438 H       1  UNL1        0.1230
     33 H           2.6288    0.6452    1.6699 H       1  UNL1        0.0475
     34 H           1.9956   -0.9224    1.1412 H       1  UNL1        0.0475
     35 H          -0.3234   -1.0896    0.5771 H       1  UNL1        0.0626
     36 H          -4.2191   -0.6854    2.0644 H       1  UNL1        0.0256
     37 H          -4.6421    0.8370    1.1321 H       1  UNL1        0.0256
     38 H          -3.2348    0.7648    2.2809 H       1  UNL1        0.0256
     39 H          -2.2416   -1.9733   -0.6325 H       1  UNL1        0.0300
     40 H          -2.1325   -1.9860    1.1483 H       1  UNL1        0.0300
     41 H          -4.3343   -2.6263    1.4455 H       1  UNL1        0.0381
     42 H          -4.0703   -3.2661   -0.1955 H       1  UNL1        0.0381
     43 H          -6.1380    0.7584   -2.5255 H       1  UNL1        0.1442
     44 H          -4.6701    0.2570   -3.4173 H       1  UNL1        0.1442
     45 H          -0.6994    3.8248    0.7481 H       1  UNL1        0.0675
@<TRIPOS>BOND
     1     1     2    1
     2     2     3    1
     3     2     4    1
     4     4     5    1
     5     5     6    1
     6     6     7   ar
     7     7     8   ar
     8     8     9    1
     9     9    10    1
    10     9    11    1
    11    11    12    1
    12    12    13    1
    13    13    14    1
    14    14    15    1
    15    14    16    2
    16     8    17   ar
    17    17    18    1
    18    17    19   ar
    19    19    20   ar
    20    20    21    1
    21     2    22    1
    22    22    23    1
    23    22    24    1
    24    22    25    1
    25    20     6   ar
    26    16     9    1
    27     1    26    1
    28     1    27    1
    29     1    28    1
    30     3    29    1
    31     3    30    1
    32     3    31    1
    33     4    32    1
    34     5    33    1
    35     5    34    1
    36     7    35    1
    37    10    36    1
    38    10    37    1
    39    10    38    1
    40    11    39    1
    41    11    40    1
    42    12    41    1
    43    12    42    1
    44    15    43    1
    45    15    44    1
    46    19    45    1
