@<TRIPOS>MOLECULE
*****
 38 40 0 0 0
SMALL
GASTEIGER

@<TRIPOS>ATOM
      1 C           5.8544   -0.1109    1.8838 C.3     1  UNL1        0.0059
      2 N           5.6997    1.2588    1.4654 N.3     1  UNL1       -0.1930
      3 S           5.1666    1.2797   -0.1744 S.O2    1  UNL1        0.0582
      4 O           6.1796    0.7045   -1.1009 O.2     1  UNL1       -0.1531
      5 O           4.9769    2.7417   -0.5433 O.2     1  UNL1       -0.1531
      6 C           3.6214    0.5044   -0.3819 C.ar    1  UNL1        0.1053
      7 C           3.4234   -0.8497   -0.6171 C.ar    1  UNL1       -0.0336
      8 C           2.1937   -1.4242   -0.7792 C.ar    1  UNL1       -0.0387
      9 C           1.0781   -0.6039   -0.7043 C.ar    1  UNL1        0.0310
     10 N          -0.2584   -1.0695   -0.8505 N.pl3   1  UNL1       -0.3198
     11 C          -1.4860   -1.0793   -0.1386 C.2     1  UNL1        0.0065
     12 C          -2.5538   -0.4328   -0.5778 C.2     1  UNL1        0.0596
     13 C          -2.7307    0.3608   -1.7595 C.2     1  UNL1        0.2501
     14 O          -1.7956    0.5422   -2.5752 O.2     1  UNL1       -0.2698
     15 N          -4.0643    0.8403   -1.7880 N.am    1  UNL1       -0.2809
     16 C          -4.7341    0.3431   -0.6118 C.ar    1  UNL1        0.0416
     17 C          -3.8528   -0.4205    0.1277 C.ar    1  UNL1        0.0095
     18 C          -4.2671   -1.0079    1.3063 C.ar    1  UNL1       -0.0521
     19 C          -5.5765   -0.8467    1.7764 C.ar    1  UNL1       -0.0611
     20 C          -6.4648   -0.0822    1.0387 C.ar    1  UNL1       -0.0600
     21 C          -6.0436    0.5054   -0.1431 C.ar    1  UNL1       -0.0399
     22 C           1.1808    0.7549   -0.4738 C.ar    1  UNL1       -0.0387
     23 C           2.4593    1.2415   -0.3232 C.ar    1  UNL1       -0.0336
     24 H           6.7795   -0.1453    2.5008 H       1  UNL1        0.0405
     25 H           4.9466   -0.3947    2.4629 H       1  UNL1        0.0405
     26 H           5.9975   -0.7950    1.0155 H       1  UNL1        0.0405
     27 H           5.0918    1.8318    2.0612 H       1  UNL1        0.1477
     28 H           4.3231   -1.4639   -0.6706 H       1  UNL1        0.0638
     29 H           2.0582   -2.4800   -0.9583 H       1  UNL1        0.0637
     30 H          -0.3603   -1.5552   -1.7744 H       1  UNL1        0.1516
     31 H          -1.5535   -1.6350    0.7969 H       1  UNL1        0.0789
     32 H          -4.4838    1.4463   -2.5294 H       1  UNL1        0.1552
     33 H          -3.6165   -1.6115    1.9146 H       1  UNL1        0.0624
     34 H          -5.9147   -1.3131    2.7157 H       1  UNL1        0.0618
     35 H          -7.4935    0.0671    1.3723 H       1  UNL1        0.0618
     36 H          -6.7140    1.1204   -0.7626 H       1  UNL1        0.0636
     37 H           0.3525    1.4573   -0.4022 H       1  UNL1        0.0637
     38 H           2.5808    2.3211   -0.1385 H       1  UNL1        0.0638
@<TRIPOS>BOND
     1     1     2    1
     2     2     3    1
     3     3     4    2
     4     3     5    2
     5     3     6    1
     6     6     7   ar
     7     7     8   ar
     8     8     9   ar
     9     9    10    1
    10    10    11    1
    11    11    12    2
    12    12    13    1
    13    13    14    2
    14    13    15   am
    15    15    16    1
    16    16    17   ar
    17    17    18   ar
    18    18    19   ar
    19    19    20   ar
    20    20    21   ar
    21     9    22   ar
    22    22    23   ar
    23    23     6   ar
    24    17    12    1
    25    21    16   ar
    26     1    24    1
    27     1    25    1
    28     1    26    1
    29     2    27    1
    30     7    28    1
    31     8    29    1
    32    10    30    1
    33    11    31    1
    34    15    32    1
    35    18    33    1
    36    19    34    1
    37    20    35    1
    38    21    36    1
    39    22    37    1
    40    23    38    1
