@<TRIPOS>MOLECULE
*****
 43 47 0 0 0
SMALL
GASTEIGER

@<TRIPOS>ATOM
      1 C          -5.7012    1.9303   -2.0803 C.3     1  UNL1        0.0790
      2 O          -6.2227    0.8903   -1.3129 O.3     1  UNL1       -0.4914
      3 C          -5.4199    0.0725   -0.5508 C.ar    1  UNL1        0.1618
      4 C          -4.0435    0.1903   -0.4671 C.ar    1  UNL1       -0.0086
      5 C          -3.2713   -0.6673    0.3239 C.ar    1  UNL1       -0.0141
      6 C          -1.8309   -0.5560    0.4187 C.ar    1  UNL1       -0.0157
      7 C          -1.0006   -0.1280   -0.5903 C.ar    1  UNL1       -0.0533
      8 C           0.3884   -0.0474   -0.4132 C.ar    1  UNL1       -0.0498
      9 C           0.9721   -0.3939    0.7781 C.ar    1  UNL1        0.0304
     10 C           2.2315   -0.4278    1.2549 C.ar    1  UNL1        0.1352
     11 C           3.4921   -0.0813    0.6168 C.ar    1  UNL1        0.1600
     12 N           4.7027   -0.1710    1.2612 N.ar    1  UNL1       -0.2261
     13 C           5.6804    0.2062    0.4519 C.ar    1  UNL1        0.0895
     14 C           7.0783    0.2979    0.6197 C.ar    1  UNL1       -0.0342
     15 C           7.8735    0.7296   -0.4085 C.ar    1  UNL1       -0.0596
     16 C           7.2837    1.0715   -1.6043 C.ar    1  UNL1       -0.0597
     17 C           5.9102    0.9877   -1.7869 C.ar    1  UNL1       -0.0362
     18 C           5.1204    0.5517   -0.7455 C.ar    1  UNL1        0.0665
     19 N           3.7809    0.3632   -0.6076 N.ar    1  UNL1       -0.3366
     20 N           2.1518   -0.8727    2.5394 N.ar    1  UNL1       -0.1696
     21 N           0.9280   -1.1153    2.8856 N.ar    1  UNL1       -0.2763
     22 C           0.1435   -0.8303    1.8125 C.ar    1  UNL1        0.0670
     23 C          -1.2149   -0.8970    1.6035 C.ar    1  UNL1       -0.0286
     24 C          -3.9641   -1.6412    1.0183 C.ar    1  UNL1       -0.0503
     25 C          -5.3137   -1.7953    0.9673 C.ar    1  UNL1       -0.0159
     26 C          -6.0473   -0.9272    0.1729 C.ar    1  UNL1        0.1585
     27 O          -7.4311   -1.0611    0.1012 O.3     1  UNL1       -0.5033
     28 H          -5.3199    1.6281   -3.0777 H       1  UNL1        0.0660
     29 H          -4.8764    2.4056   -1.5294 H       1  UNL1        0.0660
     30 H          -6.4879    2.7329   -2.1795 H       1  UNL1        0.0660
     31 H          -3.5496    0.9533   -1.0180 H       1  UNL1        0.0661
     32 H          -1.4376    0.1473   -1.5284 H       1  UNL1        0.0624
     33 H           1.0196    0.2867   -1.2061 H       1  UNL1        0.0625
     34 H           7.4879    0.0171    1.5790 H       1  UNL1        0.0639
     35 H           8.9512    0.7915   -0.2521 H       1  UNL1        0.0618
     36 H           7.9235    1.4093   -2.4032 H       1  UNL1        0.0618
     37 H           5.4291    1.2540   -2.7262 H       1  UNL1        0.0639
     38 H           3.1313    0.5570   -1.3869 H       1  UNL1        0.1674
     39 H           0.5362   -1.4601    3.7819 H       1  UNL1        0.1889
     40 H          -1.8414   -1.2386    2.4237 H       1  UNL1        0.0645
     41 H          -3.3765   -2.3144    1.6360 H       1  UNL1        0.0625
     42 H          -5.8017   -2.5775    1.5346 H       1  UNL1        0.0655
     43 H          -8.0642   -0.2703    0.1106 H       1  UNL1        0.2923
@<TRIPOS>BOND
     1     1     2    1
     2     2     3    1
     3     3     4   ar
     4     4     5   ar
     5     5     6    1
     6     6     7   ar
     7     7     8   ar
     8     8     9   ar
     9     9    10   ar
    10    10    11    1
    11    11    12   ar
    12    12    13   ar
    13    13    14   ar
    14    14    15   ar
    15    15    16   ar
    16    16    17   ar
    17    17    18   ar
    18    18    19   ar
    19    10    20   ar
    20    20    21   ar
    21    21    22   ar
    22    22    23   ar
    23     5    24   ar
    24    24    25   ar
    25    25    26   ar
    26    26    27    1
    27    26     3   ar
    28    23     6   ar
    29    22     9   ar
    30    19    11   ar
    31    18    13   ar
    32     1    28    1
    33     1    29    1
    34     1    30    1
    35     4    31    1
    36     7    32    1
    37     8    33    1
    38    14    34    1
    39    15    35    1
    40    16    36    1
    41    17    37    1
    42    19    38    1
    43    21    39    1
    44    23    40    1
    45    24    41    1
    46    25    42    1
    47    27    43    1
