@<TRIPOS>MOLECULE
*****
 74 77 0 0 0
SMALL
GASTEIGER

@<TRIPOS>ATOM
      1 C          -5.0442    1.5021    2.6900 C.3     1  UNL1        0.0790
      2 O          -3.7602    0.9254    2.5454 O.3     1  UNL1       -0.4913
      3 C          -3.5714    0.0518    1.4744 C.ar    1  UNL1        0.1654
      4 C          -4.5830   -0.2498    0.5826 C.ar    1  UNL1       -0.0126
      5 C          -4.3980   -1.1109   -0.4742 C.ar    1  UNL1       -0.0359
      6 C          -5.4877   -1.4184   -1.4292 C.3     1  UNL1       -0.0004
      7 C          -6.7469   -0.8338   -0.9363 C.ar    1  UNL1       -0.0223
      8 C          -7.6669   -1.6472   -0.3190 C.ar    1  UNL1       -0.0548
      9 C          -8.8526   -1.1785    0.1637 C.ar    1  UNL1       -0.0407
     10 C          -9.1414    0.1689    0.0268 C.ar    1  UNL1        0.0263
     11 N         -10.3597    0.7134    0.5095 N.pl3   1  UNL1       -0.3579
     12 C          -8.2502    1.0255   -0.5854 C.ar    1  UNL1       -0.0201
     13 C          -7.0613    0.5089   -1.0597 C.ar    1  UNL1        0.0298
     14 N          -6.1400    1.3963   -1.6947 N.pl3   1  UNL1       -0.3577
     15 C          -3.1323   -1.6977   -0.6406 C.ar    1  UNL1       -0.0126
     16 C          -2.1085   -1.4192    0.2270 C.ar    1  UNL1        0.1654
     17 O          -0.8477   -2.0160    0.0473 O.3     1  UNL1       -0.4913
     18 C          -0.6623   -2.8894   -1.0228 C.3     1  UNL1        0.0790
     19 C          -2.3276   -0.5526    1.2733 C.ar    1  UNL1        0.2038
     20 O          -1.3426   -0.2245    2.1885 O.3     1  UNL1       -0.4852
     21 C          -0.4980    0.8950    2.0803 C.3     1  UNL1        0.0913
     22 C           0.3132    0.8254    0.8227 C.3     1  UNL1       -0.0031
     23 C           1.2198    2.0260    0.6626 C.3     1  UNL1        0.0122
     24 N           1.9957    1.9360   -0.5368 N.pl3   1  UNL1       -0.3437
     25 C           3.1009    1.0392   -0.6148 C.ar    1  UNL1        0.0272
     26 C           3.8024    0.8988   -1.8145 C.ar    1  UNL1       -0.0390
     27 C           4.8844    0.0595   -1.8961 C.ar    1  UNL1       -0.0347
     28 C           5.3237   -0.6722   -0.8192 C.ar    1  UNL1        0.0937
     29 S           6.6925   -1.7470   -0.8870 S.O2    1  UNL1        0.0251
     30 O           6.4871   -2.8511    0.1201 O.2     1  UNL1       -0.1643
     31 O           6.8917   -2.2884   -2.2708 O.2     1  UNL1       -0.1643
     32 C           8.1136   -0.8107   -0.4714 C.ar    1  UNL1        0.0937
     33 C           8.5802   -0.6775    0.8159 C.ar    1  UNL1       -0.0347
     34 C           9.7071    0.0755    1.0833 C.ar    1  UNL1       -0.0392
     35 C          10.4143    0.7241    0.0915 C.ar    1  UNL1        0.0246
     36 N          11.5740    1.4997    0.3638 N.pl3   1  UNL1       -0.3580
     37 C           9.9321    0.5799   -1.1953 C.ar    1  UNL1       -0.0392
     38 C           8.8076   -0.1694   -1.4763 C.ar    1  UNL1       -0.0347
     39 C           4.6185   -0.5183    0.3522 C.ar    1  UNL1       -0.0347
     40 C           3.5299    0.3147    0.4679 C.ar    1  UNL1       -0.0390
     41 H          -5.8069    0.7547    2.9936 H       1  UNL1        0.0660
     42 H          -5.0542    2.2854    3.4748 H       1  UNL1        0.0660
     43 H          -5.3347    2.0225    1.7424 H       1  UNL1        0.0660
     44 H          -5.5455    0.2397    0.7781 H       1  UNL1        0.0658
     45 H          -5.2441   -1.0396   -2.4546 H       1  UNL1        0.0362
     46 H          -5.5972   -2.5428   -1.4667 H       1  UNL1        0.0362
     47 H          -7.4348   -2.6935   -0.2166 H       1  UNL1        0.0622
     48 H          -9.5630   -1.8201    0.6432 H       1  UNL1        0.0636
     49 H         -10.3709    1.2411    1.4193 H       1  UNL1        0.1423
     50 H         -11.2181    0.5742   -0.0567 H       1  UNL1        0.1423
     51 H          -8.4781    2.0952   -0.6949 H       1  UNL1        0.0654
     52 H          -5.8581    1.2036   -2.6776 H       1  UNL1        0.1423
     53 H          -5.7276    2.2320   -1.2341 H       1  UNL1        0.1423
     54 H          -3.0128   -2.3651   -1.4708 H       1  UNL1        0.0658
     55 H           0.2812   -3.4729   -0.8356 H       1  UNL1        0.0660
     56 H          -0.5221   -2.3989   -1.9969 H       1  UNL1        0.0660
     57 H          -1.4844   -3.6487   -1.0472 H       1  UNL1        0.0660
     58 H           0.2194    0.8752    2.9323 H       1  UNL1        0.0697
     59 H          -1.0510    1.8549    2.1409 H       1  UNL1        0.0697
     60 H          -0.4148    0.8668   -0.0279 H       1  UNL1        0.0313
     61 H           0.8930   -0.1047    0.8269 H       1  UNL1        0.0313
     62 H           0.6103    2.9566    0.6190 H       1  UNL1        0.0462
     63 H           1.9158    2.1247    1.5387 H       1  UNL1        0.0462
     64 H           1.7781    2.5112   -1.3669 H       1  UNL1        0.1461
     65 H           3.4721    1.4668   -2.6744 H       1  UNL1        0.0637
     66 H           5.4372   -0.0571   -2.8254 H       1  UNL1        0.0637
     67 H           8.0303   -1.1870    1.6188 H       1  UNL1        0.0637
     68 H          10.0566    0.1668    2.1036 H       1  UNL1        0.0636
     69 H          11.6901    2.1098    1.1936 H       1  UNL1        0.1423
     70 H          12.3588    1.4491   -0.3194 H       1  UNL1        0.1423
     71 H          10.4770    1.0854   -1.9962 H       1  UNL1        0.0636
     72 H           8.4690   -0.2492   -2.5211 H       1  UNL1        0.0637
     73 H           4.9721   -1.1056    1.2152 H       1  UNL1        0.0637
     74 H           3.0509    0.3767    1.4489 H       1  UNL1        0.0637
@<TRIPOS>BOND
     1     1     2    1
     2     2     3    1
     3     3     4   ar
     4     4     5   ar
     5     5     6    1
     6     6     7    1
     7     7     8   ar
     8     8     9   ar
     9     9    10   ar
    10    10    11    1
    11    10    12   ar
    12    12    13   ar
    13    13    14    1
    14     5    15   ar
    15    15    16   ar
    16    16    17    1
    17    17    18    1
    18    16    19   ar
    19    19    20    1
    20    20    21    1
    21    21    22    1
    22    22    23    1
    23    23    24    1
    24    24    25    1
    25    25    26   ar
    26    26    27   ar
    27    27    28   ar
    28    28    29    1
    29    29    30    2
    30    29    31    2
    31    29    32    1
    32    32    33   ar
    33    33    34   ar
    34    34    35   ar
    35    35    36    1
    36    35    37   ar
    37    37    38   ar
    38    28    39   ar
    39    39    40   ar
    40    19     3   ar
    41    40    25   ar
    42    13     7   ar
    43    38    32   ar
    44     1    41    1
    45     1    42    1
    46     1    43    1
    47     4    44    1
    48     6    45    1
    49     6    46    1
    50     8    47    1
    51     9    48    1
    52    11    49    1
    53    11    50    1
    54    12    51    1
    55    14    52    1
    56    14    53    1
    57    15    54    1
    58    18    55    1
    59    18    56    1
    60    18    57    1
    61    21    58    1
    62    21    59    1
    63    22    60    1
    64    22    61    1
    65    23    62    1
    66    23    63    1
    67    24    64    1
    68    26    65    1
    69    27    66    1
    70    33    67    1
    71    34    68    1
    72    36    69    1
    73    36    70    1
    74    37    71    1
    75    38    72    1
    76    39    73    1
    77    40    74    1
