
     RDKit          3D

 74 77  0  0  0  0  0  0  0  0999 V2000
   -5.0442    1.5021    2.6900 C   0  0  0  0  0  0  0  0  0  0  0  0
   -3.7602    0.9254    2.5454 O   0  0  0  0  0  0  0  0  0  0  0  0
   -3.5714    0.0518    1.4744 C   0  0  0  0  0  0  0  0  0  0  0  0
   -4.5830   -0.2498    0.5826 C   0  0  0  0  0  0  0  0  0  0  0  0
   -4.3980   -1.1109   -0.4742 C   0  0  0  0  0  0  0  0  0  0  0  0
   -5.4877   -1.4184   -1.4292 C   0  0  0  0  0  0  0  0  0  0  0  0
   -6.7469   -0.8338   -0.9363 C   0  0  0  0  0  0  0  0  0  0  0  0
   -7.6669   -1.6472   -0.3190 C   0  0  0  0  0  0  0  0  0  0  0  0
   -8.8526   -1.1785    0.1637 C   0  0  0  0  0  0  0  0  0  0  0  0
   -9.1414    0.1689    0.0268 C   0  0  0  0  0  0  0  0  0  0  0  0
  -10.3597    0.7134    0.5095 N   0  0  0  0  0  0  0  0  0  0  0  0
   -8.2502    1.0255   -0.5854 C   0  0  0  0  0  0  0  0  0  0  0  0
   -7.0613    0.5089   -1.0597 C   0  0  0  0  0  0  0  0  0  0  0  0
   -6.1400    1.3963   -1.6947 N   0  0  0  0  0  0  0  0  0  0  0  0
   -3.1323   -1.6977   -0.6406 C   0  0  0  0  0  0  0  0  0  0  0  0
   -2.1085   -1.4192    0.2270 C   0  0  0  0  0  0  0  0  0  0  0  0
   -0.8477   -2.0160    0.0473 O   0  0  0  0  0  0  0  0  0  0  0  0
   -0.6623   -2.8894   -1.0228 C   0  0  0  0  0  0  0  0  0  0  0  0
   -2.3276   -0.5526    1.2733 C   0  0  0  0  0  0  0  0  0  0  0  0
   -1.3426   -0.2245    2.1885 O   0  0  0  0  0  0  0  0  0  0  0  0
   -0.4980    0.8950    2.0803 C   0  0  0  0  0  0  0  0  0  0  0  0
    0.3132    0.8254    0.8227 C   0  0  0  0  0  0  0  0  0  0  0  0
    1.2198    2.0260    0.6626 C   0  0  0  0  0  0  0  0  0  0  0  0
    1.9957    1.9360   -0.5368 N   0  0  0  0  0  0  0  0  0  0  0  0
    3.1009    1.0392   -0.6148 C   0  0  0  0  0  0  0  0  0  0  0  0
    3.8024    0.8988   -1.8145 C   0  0  0  0  0  0  0  0  0  0  0  0
    4.8844    0.0595   -1.8961 C   0  0  0  0  0  0  0  0  0  0  0  0
    5.3237   -0.6722   -0.8192 C   0  0  0  0  0  0  0  0  0  0  0  0
    6.6925   -1.7470   -0.8870 S   0  0  0  0  0  6  0  0  0  0  0  0
    6.4871   -2.8511    0.1201 O   0  0  0  0  0  0  0  0  0  0  0  0
    6.8917   -2.2884   -2.2708 O   0  0  0  0  0  0  0  0  0  0  0  0
    8.1136   -0.8107   -0.4714 C   0  0  0  0  0  0  0  0  0  0  0  0
    8.5802   -0.6775    0.8159 C   0  0  0  0  0  0  0  0  0  0  0  0
    9.7071    0.0755    1.0833 C   0  0  0  0  0  0  0  0  0  0  0  0
   10.4143    0.7241    0.0915 C   0  0  0  0  0  0  0  0  0  0  0  0
   11.5740    1.4997    0.3638 N   0  0  0  0  0  0  0  0  0  0  0  0
    9.9321    0.5799   -1.1953 C   0  0  0  0  0  0  0  0  0  0  0  0
    8.8076   -0.1694   -1.4763 C   0  0  0  0  0  0  0  0  0  0  0  0
    4.6185   -0.5183    0.3522 C   0  0  0  0  0  0  0  0  0  0  0  0
    3.5299    0.3147    0.4679 C   0  0  0  0  0  0  0  0  0  0  0  0
   -5.8069    0.7547    2.9936 H   0  0  0  0  0  0  0  0  0  0  0  0
   -5.0542    2.2854    3.4748 H   0  0  0  0  0  0  0  0  0  0  0  0
   -5.3347    2.0225    1.7424 H   0  0  0  0  0  0  0  0  0  0  0  0
   -5.5455    0.2397    0.7781 H   0  0  0  0  0  0  0  0  0  0  0  0
   -5.2441   -1.0396   -2.4546 H   0  0  0  0  0  0  0  0  0  0  0  0
   -5.5972   -2.5428   -1.4667 H   0  0  0  0  0  0  0  0  0  0  0  0
   -7.4348   -2.6935   -0.2166 H   0  0  0  0  0  0  0  0  0  0  0  0
   -9.5630   -1.8201    0.6432 H   0  0  0  0  0  0  0  0  0  0  0  0
  -10.3709    1.2411    1.4193 H   0  0  0  0  0  0  0  0  0  0  0  0
  -11.2181    0.5742   -0.0567 H   0  0  0  0  0  0  0  0  0  0  0  0
   -8.4781    2.0952   -0.6949 H   0  0  0  0  0  0  0  0  0  0  0  0
   -5.8581    1.2036   -2.6776 H   0  0  0  0  0  0  0  0  0  0  0  0
   -5.7276    2.2320   -1.2341 H   0  0  0  0  0  0  0  0  0  0  0  0
   -3.0128   -2.3651   -1.4708 H   0  0  0  0  0  0  0  0  0  0  0  0
    0.2812   -3.4729   -0.8356 H   0  0  0  0  0  0  0  0  0  0  0  0
   -0.5221   -2.3989   -1.9969 H   0  0  0  0  0  0  0  0  0  0  0  0
   -1.4844   -3.6487   -1.0472 H   0  0  0  0  0  0  0  0  0  0  0  0
    0.2194    0.8752    2.9323 H   0  0  0  0  0  0  0  0  0  0  0  0
   -1.0510    1.8549    2.1409 H   0  0  0  0  0  0  0  0  0  0  0  0
   -0.4148    0.8668   -0.0279 H   0  0  0  0  0  0  0  0  0  0  0  0
    0.8930   -0.1047    0.8269 H   0  0  0  0  0  0  0  0  0  0  0  0
    0.6103    2.9566    0.6190 H   0  0  0  0  0  0  0  0  0  0  0  0
    1.9158    2.1247    1.5387 H   0  0  0  0  0  0  0  0  0  0  0  0
    1.7781    2.5112   -1.3669 H   0  0  0  0  0  0  0  0  0  0  0  0
    3.4721    1.4668   -2.6744 H   0  0  0  0  0  0  0  0  0  0  0  0
    5.4372   -0.0571   -2.8254 H   0  0  0  0  0  0  0  0  0  0  0  0
    8.0303   -1.1870    1.6188 H   0  0  0  0  0  0  0  0  0  0  0  0
   10.0566    0.1668    2.1036 H   0  0  0  0  0  0  0  0  0  0  0  0
   11.6901    2.1098    1.1936 H   0  0  0  0  0  0  0  0  0  0  0  0
   12.3588    1.4491   -0.3194 H   0  0  0  0  0  0  0  0  0  0  0  0
   10.4770    1.0854   -1.9962 H   0  0  0  0  0  0  0  0  0  0  0  0
    8.4690   -0.2492   -2.5211 H   0  0  0  0  0  0  0  0  0  0  0  0
    4.9721   -1.1056    1.2152 H   0  0  0  0  0  0  0  0  0  0  0  0
    3.0509    0.3767    1.4489 H   0  0  0  0  0  0  0  0  0  0  0  0
  1  2  1  0
  2  3  1  0
  3  4  2  0
  4  5  1  0
  5  6  1  0
  6  7  1  0
  7  8  2  0
  8  9  1  0
  9 10  2  0
 10 11  1  0
 10 12  1  0
 12 13  2  0
 13 14  1  0
  5 15  2  0
 15 16  1  0
 16 17  1  0
 17 18  1  0
 16 19  2  0
 19 20  1  0
 20 21  1  0
 21 22  1  0
 22 23  1  0
 23 24  1  0
 24 25  1  0
 25 26  2  0
 26 27  1  0
 27 28  2  0
 28 29  1  0
 29 30  2  0
 29 31  2  0
 29 32  1  0
 32 33  2  0
 33 34  1  0
 34 35  2  0
 35 36  1  0
 35 37  1  0
 37 38  2  0
 28 39  1  0
 39 40  2  0
 19  3  1  0
 40 25  1  0
 13  7  1  0
 38 32  1  0
  1 41  1  0
  1 42  1  0
  1 43  1  0
  4 44  1  0
  6 45  1  0
  6 46  1  0
  8 47  1  0
  9 48  1  0
 11 49  1  0
 11 50  1  0
 12 51  1  0
 14 52  1  0
 14 53  1  0
 15 54  1  0
 18 55  1  0
 18 56  1  0
 18 57  1  0
 21 58  1  0
 21 59  1  0
 22 60  1  0
 22 61  1  0
 23 62  1  0
 23 63  1  0
 24 64  1  0
 26 65  1  0
 27 66  1  0
 33 67  1  0
 34 68  1  0
 36 69  1  0
 36 70  1  0
 37 71  1  0
 38 72  1  0
 39 73  1  0
 40 74  1  0
M  END
$$$$
