@<TRIPOS>MOLECULE
*****
 48 51 0 0 0
SMALL
GASTEIGER

@<TRIPOS>ATOM
      1 C           8.8335    0.4668    1.1270 C.3     1  UNL1       -0.0397
      2 C           7.6113    0.1671    0.3146 C.ar    1  UNL1       -0.0487
      3 C           7.7531   -0.1641   -1.0160 C.ar    1  UNL1       -0.0587
      4 C           6.6494   -0.4448   -1.7890 C.ar    1  UNL1       -0.0598
      5 C           5.3743   -0.3889   -1.2013 C.ar    1  UNL1       -0.0404
      6 C           5.1864   -0.0677    0.1037 C.ar    1  UNL1        0.0350
      7 N           3.9767    0.0188    0.7916 N.am    1  UNL1       -0.2692
      8 C           2.6906   -0.2166    0.2481 C.2     1  UNL1        0.3081
      9 O           2.5944   -0.5285   -0.9385 O.2     1  UNL1       -0.2522
     10 N           1.5149   -0.1063    1.0185 N.am    1  UNL1       -0.2692
     11 C           0.1819   -0.3145    0.5943 C.ar    1  UNL1        0.0348
     12 C          -0.8620   -0.1528    1.5261 C.ar    1  UNL1       -0.0399
     13 C          -2.1734   -0.3395    1.1796 C.ar    1  UNL1       -0.0522
     14 C          -2.5747   -0.6951   -0.0909 C.ar    1  UNL1       -0.0156
     15 C          -3.9672   -0.8659   -0.4357 C.ar    1  UNL1        0.0127
     16 C          -4.3971   -2.0717   -0.9464 C.ar    1  UNL1        0.0361
     17 N          -5.7048   -2.2791   -1.2488 N.ar    1  UNL1       -0.2605
     18 C          -6.6430   -1.3251   -1.0672 C.ar    1  UNL1        0.0532
     19 C          -6.2513   -0.1195   -0.5641 C.ar    1  UNL1        0.0891
     20 C          -4.9218    0.1081   -0.2509 C.ar    1  UNL1        0.0518
     21 C          -4.8433    1.4003    0.2153 C.ar    1  UNL1        0.1465
     22 N          -3.6637    2.0615    0.6364 N.pl3   1  UNL1       -0.3412
     23 N          -6.1063    1.9214    0.1779 N.ar    1  UNL1       -0.1556
     24 N          -6.9291    0.9980   -0.2898 N.ar    1  UNL1       -0.2635
     25 C          -8.3698    1.1805   -0.4768 C.3     1  UNL1        0.0310
     26 C          -1.5576   -0.8548   -1.0057 C.ar    1  UNL1       -0.0522
     27 C          -0.2096   -0.6690   -0.6715 C.ar    1  UNL1       -0.0399
     28 C           6.3581    0.2066    0.8320 C.ar    1  UNL1       -0.0375
     29 H           9.4157    1.2918    0.6660 H       1  UNL1        0.0278
     30 H           9.4303   -0.4269    1.3384 H       1  UNL1        0.0278
     31 H           8.4745    0.8620    2.1072 H       1  UNL1        0.0278
     32 H           8.7720   -0.1924   -1.4219 H       1  UNL1        0.0620
     33 H           6.7952   -0.6988   -2.8201 H       1  UNL1        0.0618
     34 H           4.5381   -0.6119   -1.8270 H       1  UNL1        0.0636
     35 H           3.9812    0.2848    1.8261 H       1  UNL1        0.1564
     36 H           1.6520    0.1664    2.0407 H       1  UNL1        0.1564
     37 H          -0.5848    0.1317    2.5530 H       1  UNL1        0.0636
     38 H          -2.9567   -0.2234    1.9268 H       1  UNL1        0.0624
     39 H          -3.7014   -2.8819   -1.1185 H       1  UNL1        0.0836
     40 H          -7.6961   -1.5363   -1.3260 H       1  UNL1        0.0851
     41 H          -3.5240    2.1897    1.6727 H       1  UNL1        0.1438
     42 H          -2.9306    2.4263   -0.0113 H       1  UNL1        0.1438
     43 H          -8.7977    0.3078   -0.9798 H       1  UNL1        0.0473
     44 H          -8.8743    1.3797    0.4969 H       1  UNL1        0.0473
     45 H          -8.5581    2.0826   -1.1009 H       1  UNL1        0.0473
     46 H          -1.7903   -1.1334   -2.0223 H       1  UNL1        0.0624
     47 H           0.5446   -0.8122   -1.4459 H       1  UNL1        0.0636
     48 H           6.2606    0.4689    1.8816 H       1  UNL1        0.0639
@<TRIPOS>BOND
     1     1     2    1
     2     2     3   ar
     3     3     4   ar
     4     4     5   ar
     5     5     6   ar
     6     6     7    1
     7     7     8   am
     8     8     9    2
     9     8    10   am
    10    10    11    1
    11    11    12   ar
    12    12    13   ar
    13    13    14   ar
    14    14    15    1
    15    15    16   ar
    16    16    17   ar
    17    17    18   ar
    18    18    19   ar
    19    19    20   ar
    20    20    21   ar
    21    21    22    1
    22    21    23   ar
    23    23    24   ar
    24    24    25    1
    25    14    26   ar
    26    26    27   ar
    27     6    28   ar
    28    28     2   ar
    29    27    11   ar
    30    20    15   ar
    31    24    19   ar
    32     1    29    1
    33     1    30    1
    34     1    31    1
    35     3    32    1
    36     4    33    1
    37     5    34    1
    38     7    35    1
    39    10    36    1
    40    12    37    1
    41    13    38    1
    42    16    39    1
    43    18    40    1
    44    22    41    1
    45    22    42    1
    46    25    43    1
    47    25    44    1
    48    25    45    1
    49    26    46    1
    50    27    47    1
    51    28    48    1
