
     RDKit          3D

 48 51  0  0  0  0  0  0  0  0999 V2000
    8.8335    0.4668    1.1270 C   0  0  0  0  0  0  0  0  0  0  0  0
    7.6113    0.1671    0.3146 C   0  0  0  0  0  0  0  0  0  0  0  0
    7.7531   -0.1641   -1.0160 C   0  0  0  0  0  0  0  0  0  0  0  0
    6.6494   -0.4448   -1.7890 C   0  0  0  0  0  0  0  0  0  0  0  0
    5.3743   -0.3889   -1.2013 C   0  0  0  0  0  0  0  0  0  0  0  0
    5.1864   -0.0677    0.1037 C   0  0  0  0  0  0  0  0  0  0  0  0
    3.9767    0.0188    0.7916 N   0  0  0  0  0  0  0  0  0  0  0  0
    2.6906   -0.2166    0.2481 C   0  0  0  0  0  0  0  0  0  0  0  0
    2.5944   -0.5285   -0.9385 O   0  0  0  0  0  0  0  0  0  0  0  0
    1.5149   -0.1063    1.0185 N   0  0  0  0  0  0  0  0  0  0  0  0
    0.1819   -0.3145    0.5943 C   0  0  0  0  0  0  0  0  0  0  0  0
   -0.8620   -0.1528    1.5261 C   0  0  0  0  0  0  0  0  0  0  0  0
   -2.1734   -0.3395    1.1796 C   0  0  0  0  0  0  0  0  0  0  0  0
   -2.5747   -0.6951   -0.0909 C   0  0  0  0  0  0  0  0  0  0  0  0
   -3.9672   -0.8659   -0.4357 C   0  0  0  0  0  0  0  0  0  0  0  0
   -4.3971   -2.0717   -0.9464 C   0  0  0  0  0  0  0  0  0  0  0  0
   -5.7048   -2.2791   -1.2488 N   0  0  0  0  0  0  0  0  0  0  0  0
   -6.6430   -1.3251   -1.0672 C   0  0  0  0  0  0  0  0  0  0  0  0
   -6.2513   -0.1195   -0.5641 C   0  0  0  0  0  0  0  0  0  0  0  0
   -4.9218    0.1081   -0.2509 C   0  0  0  0  0  0  0  0  0  0  0  0
   -4.8433    1.4003    0.2153 C   0  0  0  0  0  0  0  0  0  0  0  0
   -3.6637    2.0615    0.6364 N   0  0  0  0  0  0  0  0  0  0  0  0
   -6.1063    1.9214    0.1779 N   0  0  0  0  0  0  0  0  0  0  0  0
   -6.9291    0.9980   -0.2898 N   0  0  0  0  0  0  0  0  0  0  0  0
   -8.3698    1.1805   -0.4768 C   0  0  0  0  0  0  0  0  0  0  0  0
   -1.5576   -0.8548   -1.0057 C   0  0  0  0  0  0  0  0  0  0  0  0
   -0.2096   -0.6690   -0.6715 C   0  0  0  0  0  0  0  0  0  0  0  0
    6.3581    0.2066    0.8320 C   0  0  0  0  0  0  0  0  0  0  0  0
    9.4157    1.2918    0.6660 H   0  0  0  0  0  0  0  0  0  0  0  0
    9.4303   -0.4269    1.3384 H   0  0  0  0  0  0  0  0  0  0  0  0
    8.4745    0.8620    2.1072 H   0  0  0  0  0  0  0  0  0  0  0  0
    8.7720   -0.1924   -1.4219 H   0  0  0  0  0  0  0  0  0  0  0  0
    6.7952   -0.6988   -2.8201 H   0  0  0  0  0  0  0  0  0  0  0  0
    4.5381   -0.6119   -1.8270 H   0  0  0  0  0  0  0  0  0  0  0  0
    3.9812    0.2848    1.8261 H   0  0  0  0  0  0  0  0  0  0  0  0
    1.6520    0.1664    2.0407 H   0  0  0  0  0  0  0  0  0  0  0  0
   -0.5848    0.1317    2.5530 H   0  0  0  0  0  0  0  0  0  0  0  0
   -2.9567   -0.2234    1.9268 H   0  0  0  0  0  0  0  0  0  0  0  0
   -3.7014   -2.8819   -1.1185 H   0  0  0  0  0  0  0  0  0  0  0  0
   -7.6961   -1.5363   -1.3260 H   0  0  0  0  0  0  0  0  0  0  0  0
   -3.5240    2.1897    1.6727 H   0  0  0  0  0  0  0  0  0  0  0  0
   -2.9306    2.4263   -0.0113 H   0  0  0  0  0  0  0  0  0  0  0  0
   -8.7977    0.3078   -0.9798 H   0  0  0  0  0  0  0  0  0  0  0  0
   -8.8743    1.3797    0.4969 H   0  0  0  0  0  0  0  0  0  0  0  0
   -8.5581    2.0826   -1.1009 H   0  0  0  0  0  0  0  0  0  0  0  0
   -1.7903   -1.1334   -2.0223 H   0  0  0  0  0  0  0  0  0  0  0  0
    0.5446   -0.8122   -1.4459 H   0  0  0  0  0  0  0  0  0  0  0  0
    6.2606    0.4689    1.8816 H   0  0  0  0  0  0  0  0  0  0  0  0
  1  2  1  0
  2  3  2  0
  3  4  1  0
  4  5  2  0
  5  6  1  0
  6  7  1  0
  7  8  1  0
  8  9  2  0
  8 10  1  0
 10 11  1  0
 11 12  2  0
 12 13  1  0
 13 14  2  0
 14 15  1  0
 15 16  2  0
 16 17  1  0
 17 18  2  0
 18 19  1  0
 19 20  2  0
 20 21  1  0
 21 22  1  0
 21 23  2  0
 23 24  1  0
 24 25  1  0
 14 26  1  0
 26 27  2  0
  6 28  2  0
 28  2  1  0
 27 11  1  0
 20 15  1  0
 24 19  1  0
  1 29  1  0
  1 30  1  0
  1 31  1  0
  3 32  1  0
  4 33  1  0
  5 34  1  0
  7 35  1  0
 10 36  1  0
 12 37  1  0
 13 38  1  0
 16 39  1  0
 18 40  1  0
 22 41  1  0
 22 42  1  0
 25 43  1  0
 25 44  1  0
 25 45  1  0
 26 46  1  0
 27 47  1  0
 28 48  1  0
M  END
$$$$
