@<TRIPOS>MOLECULE
*****
 40 42 0 0 0
SMALL
GASTEIGER

@<TRIPOS>ATOM
      1 C          -3.7874    3.0656    0.7778 C.3     1  UNL1       -0.0155
      2 N          -3.5618    1.6284    0.6061 N.3     1  UNL1       -0.3150
      3 C          -2.1185    1.4925    0.4338 C.3     1  UNL1        0.0213
      4 C          -1.7185    0.0946    0.3024 C.ar    1  UNL1       -0.0282
      5 C          -2.6371   -0.9151    0.1152 C.ar    1  UNL1       -0.0454
      6 C          -2.1958   -2.2383    0.0085 C.ar    1  UNL1        0.0551
      7 C          -3.1640   -3.3517   -0.1995 C.3     1  UNL1        0.4174
      8 F          -3.6464   -3.3112   -1.5030 F       1  UNL1       -0.1659
      9 F          -2.5340   -4.5714   -0.0661 F       1  UNL1       -0.1659
     10 F          -4.2089   -3.3298    0.7065 F       1  UNL1       -0.1659
     11 C          -0.8616   -2.5715    0.0842 C.ar    1  UNL1       -0.0498
     12 C           0.0633   -1.5312    0.2746 C.ar    1  UNL1       -0.0560
     13 C          -0.3601   -0.2251    0.3811 C.ar    1  UNL1       -0.0233
     14 C           0.5506    0.9170    0.5324 C.3     1  UNL1        0.0510
     15 N           1.7288    0.7032   -0.2616 N.ar    1  UNL1       -0.3149
     16 C           1.7736    1.0484   -1.5420 C.ar    1  UNL1        0.1614
     17 S           0.4593    1.6798   -2.3345 S.2     1  UNL1       -0.0128
     18 N           2.9463    0.8556   -2.2155 N.ar    1  UNL1       -0.3009
     19 C           4.0412    0.3383   -1.6479 C.ar    1  UNL1        0.2761
     20 O           5.1132    0.1700   -2.2950 O.2     1  UNL1       -0.2655
     21 C           4.0180   -0.0280   -0.3213 C.ar    1  UNL1        0.1283
     22 N           4.9424   -0.5535    0.4898 N.ar    1  UNL1       -0.3553
     23 C           4.3606   -0.6979    1.6951 C.ar    1  UNL1        0.0043
     24 C           3.0547   -0.2600    1.6460 C.ar    1  UNL1       -0.0200
     25 C           2.8344    0.1704    0.3482 C.ar    1  UNL1        0.0743
     26 H          -4.5704    3.2772    1.5365 H       1  UNL1        0.0388
     27 H          -4.1485    3.4346   -0.2022 H       1  UNL1        0.0388
     28 H          -2.8595    3.6043    1.0388 H       1  UNL1        0.0388
     29 H          -3.8360    1.2160    1.5425 H       1  UNL1        0.1219
     30 H          -1.6710    2.0507    1.2674 H       1  UNL1        0.0473
     31 H          -1.8600    2.0518   -0.5030 H       1  UNL1        0.0473
     32 H          -3.7147   -0.7141    0.0537 H       1  UNL1        0.0626
     33 H          -0.5150   -3.5924    0.0035 H       1  UNL1        0.0623
     34 H           1.1210   -1.7944    0.3173 H       1  UNL1        0.0621
     35 H           0.1010    1.8650    0.1480 H       1  UNL1        0.0542
     36 H           0.8564    1.0159    1.5893 H       1  UNL1        0.0542
     37 H           2.9645    1.1403   -3.2269 H       1  UNL1        0.1709
     38 H           5.9428   -0.8174    0.2893 H       1  UNL1        0.1655
     39 H           4.7978   -1.0906    2.6029 H       1  UNL1        0.0807
     40 H           2.2990   -0.2259    2.4143 H       1  UNL1        0.0653
@<TRIPOS>BOND
     1     1     2    1
     2     2     3    1
     3     3     4    1
     4     4     5   ar
     5     5     6   ar
     6     6     7    1
     7     7     8    1
     8     7     9    1
     9     7    10    1
    10     6    11   ar
    11    11    12   ar
    12    12    13   ar
    13    13    14    1
    14    14    15    1
    15    15    16   ar
    16    16    17    2
    17    16    18   ar
    18    18    19   ar
    19    19    20    2
    20    19    21   ar
    21    21    22   ar
    22    22    23   ar
    23    23    24   ar
    24    24    25   ar
    25    13     4   ar
    26    25    15   ar
    27    25    21   ar
    28     1    26    1
    29     1    27    1
    30     1    28    1
    31     2    29    1
    32     3    30    1
    33     3    31    1
    34     5    32    1
    35    11    33    1
    36    12    34    1
    37    14    35    1
    38    14    36    1
    39    18    37    1
    40    22    38    1
    41    23    39    1
    42    24    40    1
