
     RDKit          3D

 40 42  0  0  0  0  0  0  0  0999 V2000
   -3.7874    3.0656    0.7778 C   0  0  0  0  0  0  0  0  0  0  0  0
   -3.5618    1.6284    0.6061 N   0  0  0  0  0  0  0  0  0  0  0  0
   -2.1185    1.4925    0.4338 C   0  0  0  0  0  0  0  0  0  0  0  0
   -1.7185    0.0946    0.3024 C   0  0  0  0  0  0  0  0  0  0  0  0
   -2.6371   -0.9151    0.1152 C   0  0  0  0  0  0  0  0  0  0  0  0
   -2.1958   -2.2383    0.0085 C   0  0  0  0  0  0  0  0  0  0  0  0
   -3.1640   -3.3517   -0.1995 C   0  0  0  0  0  0  0  0  0  0  0  0
   -3.6464   -3.3112   -1.5030 F   0  0  0  0  0  0  0  0  0  0  0  0
   -2.5340   -4.5714   -0.0661 F   0  0  0  0  0  0  0  0  0  0  0  0
   -4.2089   -3.3298    0.7065 F   0  0  0  0  0  0  0  0  0  0  0  0
   -0.8616   -2.5715    0.0842 C   0  0  0  0  0  0  0  0  0  0  0  0
    0.0633   -1.5312    0.2746 C   0  0  0  0  0  0  0  0  0  0  0  0
   -0.3601   -0.2251    0.3811 C   0  0  0  0  0  0  0  0  0  0  0  0
    0.5506    0.9170    0.5324 C   0  0  0  0  0  0  0  0  0  0  0  0
    1.7288    0.7032   -0.2616 N   0  0  0  0  0  0  0  0  0  0  0  0
    1.7736    1.0484   -1.5420 C   0  0  0  0  0  0  0  0  0  0  0  0
    0.4593    1.6798   -2.3345 S   0  0  0  0  0  0  0  0  0  0  0  0
    2.9463    0.8556   -2.2155 N   0  0  0  0  0  0  0  0  0  0  0  0
    4.0412    0.3383   -1.6479 C   0  0  0  0  0  0  0  0  0  0  0  0
    5.1132    0.1700   -2.2950 O   0  0  0  0  0  0  0  0  0  0  0  0
    4.0180   -0.0280   -0.3213 C   0  0  0  0  0  0  0  0  0  0  0  0
    4.9424   -0.5535    0.4898 N   0  0  0  0  0  0  0  0  0  0  0  0
    4.3606   -0.6979    1.6951 C   0  0  0  0  0  0  0  0  0  0  0  0
    3.0547   -0.2600    1.6460 C   0  0  0  0  0  0  0  0  0  0  0  0
    2.8344    0.1704    0.3482 C   0  0  0  0  0  0  0  0  0  0  0  0
   -4.5704    3.2772    1.5365 H   0  0  0  0  0  0  0  0  0  0  0  0
   -4.1485    3.4346   -0.2022 H   0  0  0  0  0  0  0  0  0  0  0  0
   -2.8595    3.6043    1.0388 H   0  0  0  0  0  0  0  0  0  0  0  0
   -3.8360    1.2160    1.5425 H   0  0  0  0  0  0  0  0  0  0  0  0
   -1.6710    2.0507    1.2674 H   0  0  0  0  0  0  0  0  0  0  0  0
   -1.8600    2.0518   -0.5030 H   0  0  0  0  0  0  0  0  0  0  0  0
   -3.7147   -0.7141    0.0537 H   0  0  0  0  0  0  0  0  0  0  0  0
   -0.5150   -3.5924    0.0035 H   0  0  0  0  0  0  0  0  0  0  0  0
    1.1210   -1.7944    0.3173 H   0  0  0  0  0  0  0  0  0  0  0  0
    0.1010    1.8650    0.1480 H   0  0  0  0  0  0  0  0  0  0  0  0
    0.8564    1.0159    1.5893 H   0  0  0  0  0  0  0  0  0  0  0  0
    2.9645    1.1403   -3.2269 H   0  0  0  0  0  0  0  0  0  0  0  0
    5.9428   -0.8174    0.2893 H   0  0  0  0  0  0  0  0  0  0  0  0
    4.7978   -1.0906    2.6029 H   0  0  0  0  0  0  0  0  0  0  0  0
    2.2990   -0.2259    2.4143 H   0  0  0  0  0  0  0  0  0  0  0  0
  1  2  1  0
  2  3  1  0
  3  4  1  0
  4  5  2  0
  5  6  1  0
  6  7  1  0
  7  8  1  0
  7  9  1  0
  7 10  1  0
  6 11  2  0
 11 12  1  0
 12 13  2  0
 13 14  1  0
 14 15  1  0
 15 16  1  0
 16 17  2  0
 16 18  1  0
 18 19  1  0
 19 20  2  0
 19 21  1  0
 21 22  1  0
 22 23  1  0
 23 24  2  0
 24 25  1  0
 13  4  1  0
 25 15  1  0
 25 21  2  0
  1 26  1  0
  1 27  1  0
  1 28  1  0
  2 29  1  0
  3 30  1  0
  3 31  1  0
  5 32  1  0
 11 33  1  0
 12 34  1  0
 14 35  1  0
 14 36  1  0
 18 37  1  0
 22 38  1  0
 23 39  1  0
 24 40  1  0
M  END
$$$$
