
     RDKit          3D

 49 53  0  0  0  0  0  0  0  0999 V2000
   -0.4782    4.6036    3.0501 C   0  0  0  0  0  3  0  0  0  0  0  0
   -1.1358    4.2337    2.0984 C   0  0  0  0  0  0  0  0  0  0  0  0
   -1.9411    3.8044    0.9713 C   0  0  0  0  0  0  0  0  0  0  0  0
   -2.9439    4.5116    0.3521 C   0  0  0  0  0  0  0  0  0  0  0  0
   -3.4233    3.7420   -0.6448 N   0  0  0  0  0  0  0  0  0  0  0  0
   -2.7715    2.5806   -0.6865 C   0  0  0  0  0  0  0  0  0  0  0  0
   -2.8955    1.4803   -1.5137 C   0  0  0  0  0  0  0  0  0  0  0  0
   -2.0365    0.4225   -1.2685 C   0  0  0  0  0  0  0  0  0  0  0  0
   -1.1054    0.4737   -0.2455 C   0  0  0  0  0  0  0  0  0  0  0  0
   -0.2234   -0.6662   -0.0242 C   0  0  0  0  0  0  0  0  0  0  0  0
   -0.6023   -1.9682    0.3291 C   0  0  0  0  0  0  0  0  0  0  0  0
   -1.9878   -2.3707    0.5342 C   0  0  0  0  0  0  0  0  0  0  0  0
   -2.7016   -1.7701    1.5474 C   0  0  0  0  0  0  0  0  0  0  0  0
   -4.0200   -2.1001    1.8036 C   0  0  0  0  0  0  0  0  0  0  0  0
   -4.6545   -3.0619    1.0261 C   0  0  0  0  0  0  0  0  0  0  0  0
   -5.9384   -3.3806    1.2794 F   0  0  0  0  0  0  0  0  0  0  0  0
   -3.9447   -3.6595    0.0183 C   0  0  0  0  0  0  0  0  0  0  0  0
   -2.6333   -3.3283   -0.2335 C   0  0  0  0  0  0  0  0  0  0  0  0
    0.4704   -2.7360    0.4442 N   0  0  0  0  0  0  0  0  0  0  0  0
    1.5445   -1.9679    0.1749 C   0  0  0  0  0  0  0  0  0  0  0  0
    1.1204   -0.7245   -0.1059 N   0  0  0  0  0  0  0  0  0  0  0  0
    2.0110    0.3728   -0.4393 C   0  0  0  0  0  0  0  0  0  0  0  0
    2.8904    0.0096   -1.5917 C   0  0  0  0  0  0  0  0  0  0  0  0
    3.6751   -1.0875   -1.3444 O   0  0  0  0  0  0  0  0  0  0  0  0
    4.4999   -1.4504   -2.3764 C   0  0  0  0  0  0  0  0  0  0  0  0
    2.8111    0.7953    0.7574 C   0  0  0  0  0  0  0  0  0  0  0  0
    3.7717    1.9213    0.5814 C   0  0  0  0  0  0  0  0  0  0  0  0
    4.2439    0.5365    0.9234 C   0  0  0  0  0  0  0  0  0  0  0  0
   -1.0597    1.5877    0.5071 N   0  0  0  0  0  0  0  0  0  0  0  0
   -1.8599    2.6275    0.3130 N   0  0  0  0  0  0  0  0  0  0  0  0
   -3.2853    5.4927    0.6097 H   0  0  0  0  0  0  0  0  0  0  0  0
   -3.6326    1.4448   -2.3205 H   0  0  0  0  0  0  0  0  0  0  0  0
   -2.0690   -0.4831   -1.8747 H   0  0  0  0  0  0  0  0  0  0  0  0
   -2.2107   -1.0235    2.1508 H   0  0  0  0  0  0  0  0  0  0  0  0
   -4.6042   -1.6495    2.5864 H   0  0  0  0  0  0  0  0  0  0  0  0
   -4.4764   -4.4095   -0.5709 H   0  0  0  0  0  0  0  0  0  0  0  0
   -2.0973   -3.8155   -1.0355 H   0  0  0  0  0  0  0  0  0  0  0  0
    2.5445   -2.3792    0.2076 H   0  0  0  0  0  0  0  0  0  0  0  0
    1.3493    1.2400   -0.7291 H   0  0  0  0  0  0  0  0  0  0  0  0
    2.3232   -0.1417   -2.5332 H   0  0  0  0  0  0  0  0  0  0  0  0
    3.5792    0.8614   -1.8125 H   0  0  0  0  0  0  0  0  0  0  0  0
    5.0716   -2.3583   -2.0198 H   0  0  0  0  0  0  0  0  0  0  0  0
    5.2842   -0.6996   -2.6050 H   0  0  0  0  0  0  0  0  0  0  0  0
    3.9694   -1.7905   -3.2906 H   0  0  0  0  0  0  0  0  0  0  0  0
    2.2113    0.7952    1.7115 H   0  0  0  0  0  0  0  0  0  0  0  0
    3.9585    2.3110   -0.4394 H   0  0  0  0  0  0  0  0  0  0  0  0
    3.8517    2.6776    1.3798 H   0  0  0  0  0  0  0  0  0  0  0  0
    4.6397    0.4059    1.9748 H   0  0  0  0  0  0  0  0  0  0  0  0
    4.9111    0.0906    0.1885 H   0  0  0  0  0  0  0  0  0  0  0  0
  1  2  3  0
  2  3  1  0
  3  4  2  0
  4  5  1  0
  5  6  2  0
  6  7  1  0
  7  8  2  0
  8  9  1  0
  9 10  1  0
 10 11  2  0
 11 12  1  0
 12 13  2  0
 13 14  1  0
 14 15  2  0
 15 16  1  0
 15 17  1  0
 17 18  2  0
 11 19  1  0
 19 20  2  0
 20 21  1  0
 21 22  1  0
 22 23  1  0
 23 24  1  0
 24 25  1  0
 22 26  1  0
 26 27  1  0
 27 28  1  0
  9 29  2  0
 29 30  1  0
 30  3  1  0
 30  6  1  0
 21 10  1  0
 28 26  1  0
 18 12  1  0
  4 31  1  0
  7 32  1  0
  8 33  1  0
 13 34  1  0
 14 35  1  0
 17 36  1  0
 18 37  1  0
 20 38  1  0
 22 39  1  0
 23 40  1  0
 23 41  1  0
 25 42  1  0
 25 43  1  0
 25 44  1  0
 26 45  1  0
 27 46  1  0
 27 47  1  0
 28 48  1  0
 28 49  1  0
M  CHG  1   1  -1
M  END
$$$$
