@<TRIPOS>MOLECULE
*****
 49 53 0 0 0
SMALL
GASTEIGER

@<TRIPOS>ATOM
      1 C          -0.4782    4.6036    3.0501 C.2     1  UNL1       -0.6890
      2 C          -1.1358    4.2337    2.0984 C.1     1  UNL1       -0.3021
      3 C          -1.9411    3.8044    0.9713 C.ar    1  UNL1        0.0952
      4 C          -2.9439    4.5116    0.3521 C.ar    1  UNL1        0.0608
      5 N          -3.4233    3.7420   -0.6448 N.ar    1  UNL1       -0.2335
      6 C          -2.7715    2.5806   -0.6865 C.ar    1  UNL1        0.1554
      7 C          -2.8955    1.4803   -1.5137 C.ar    1  UNL1       -0.0153
      8 C          -2.0365    0.4225   -1.2685 C.ar    1  UNL1       -0.0290
      9 C          -1.1054    0.4737   -0.2455 C.ar    1  UNL1        0.1103
     10 C          -0.2234   -0.6662   -0.0242 C.ar    1  UNL1        0.0969
     11 C          -0.6023   -1.9682    0.3291 C.ar    1  UNL1        0.0982
     12 C          -1.9878   -2.3707    0.5342 C.ar    1  UNL1        0.0027
     13 C          -2.7016   -1.7701    1.5474 C.ar    1  UNL1       -0.0498
     14 C          -4.0200   -2.1001    1.8036 C.ar    1  UNL1       -0.0258
     15 C          -4.6545   -3.0619    1.0261 C.ar    1  UNL1        0.1234
     16 F          -5.9384   -3.3806    1.2794 F       1  UNL1       -0.2055
     17 C          -3.9447   -3.6595    0.0183 C.ar    1  UNL1       -0.0258
     18 C          -2.6333   -3.3283   -0.2335 C.ar    1  UNL1       -0.0498
     19 N           0.4704   -2.7360    0.4442 N.ar    1  UNL1       -0.2351
     20 C           1.5445   -1.9679    0.1749 C.ar    1  UNL1        0.0974
     21 N           1.1204   -0.7245   -0.1059 N.ar    1  UNL1       -0.3228
     22 C           2.0110    0.3728   -0.4393 C.3     1  UNL1        0.0621
     23 C           2.8904    0.0096   -1.5917 C.3     1  UNL1        0.0683
     24 O           3.6751   -1.0875   -1.3444 O.3     1  UNL1       -0.3809
     25 C           4.4999   -1.4504   -2.3764 C.3     1  UNL1        0.0365
     26 C           2.8111    0.7953    0.7574 C.3     1  UNL1       -0.0180
     27 C           3.7717    1.9213    0.5814 C.3     1  UNL1       -0.0479
     28 C           4.2439    0.5365    0.9234 C.3     1  UNL1       -0.0479
     29 N          -1.0597    1.5877    0.5071 N.ar    1  UNL1       -0.1624
     30 N          -1.8599    2.6275    0.3130 N.ar    1  UNL1       -0.2074
     31 H          -3.2853    5.4927    0.6097 H       1  UNL1        0.0858
     32 H          -3.6326    1.4448   -2.3205 H       1  UNL1        0.0655
     33 H          -2.0690   -0.4831   -1.8747 H       1  UNL1        0.0641
     34 H          -2.2107   -1.0235    2.1508 H       1  UNL1        0.0625
     35 H          -4.6042   -1.6495    2.5864 H       1  UNL1        0.0646
     36 H          -4.4764   -4.4095   -0.5709 H       1  UNL1        0.0646
     37 H          -2.0973   -3.8155   -1.0355 H       1  UNL1        0.0625
     38 H           2.5445   -2.3792    0.2076 H       1  UNL1        0.1029
     39 H           1.3493    1.2400   -0.7291 H       1  UNL1        0.0554
     40 H           2.3232   -0.1417   -2.5332 H       1  UNL1        0.0580
     41 H           3.5792    0.8614   -1.8125 H       1  UNL1        0.0580
     42 H           5.0716   -2.3583   -2.0198 H       1  UNL1        0.0523
     43 H           5.2842   -0.6996   -2.6050 H       1  UNL1        0.0523
     44 H           3.9694   -1.7905   -3.2906 H       1  UNL1        0.0523
     45 H           2.2113    0.7952    1.7115 H       1  UNL1        0.0321
     46 H           3.9585    2.3110   -0.4394 H       1  UNL1        0.0269
     47 H           3.8517    2.6776    1.3798 H       1  UNL1        0.0269
     48 H           4.6397    0.4059    1.9748 H       1  UNL1        0.0269
     49 H           4.9111    0.0906    0.1885 H       1  UNL1        0.0269
@<TRIPOS>UNITY_ATOM_ATTR
1 1
charge -1
@<TRIPOS>BOND
     1     1     2    3
     2     2     3    1
     3     3     4   ar
     4     4     5   ar
     5     5     6   ar
     6     6     7   ar
     7     7     8   ar
     8     8     9   ar
     9     9    10    1
    10    10    11   ar
    11    11    12    1
    12    12    13   ar
    13    13    14   ar
    14    14    15   ar
    15    15    16    1
    16    15    17   ar
    17    17    18   ar
    18    11    19   ar
    19    19    20   ar
    20    20    21   ar
    21    21    22    1
    22    22    23    1
    23    23    24    1
    24    24    25    1
    25    22    26    1
    26    26    27    1
    27    27    28    1
    28     9    29   ar
    29    29    30   ar
    30    30     3   ar
    31    30     6   ar
    32    21    10   ar
    33    28    26    1
    34    18    12   ar
    35     4    31    1
    36     7    32    1
    37     8    33    1
    38    13    34    1
    39    14    35    1
    40    17    36    1
    41    18    37    1
    42    20    38    1
    43    22    39    1
    44    23    40    1
    45    23    41    1
    46    25    42    1
    47    25    43    1
    48    25    44    1
    49    26    45    1
    50    27    46    1
    51    27    47    1
    52    28    48    1
    53    28    49    1
