
     RDKit          3D

 53 56  0  0  0  0  0  0  0  0999 V2000
   -5.3310   -1.2524    2.4426 C   0  0  0  0  0  0  0  0  0  0  0  0
   -5.2702   -1.2991    0.9524 C   0  0  0  0  0  0  0  0  0  0  0  0
   -4.2343   -0.3906    0.3639 C   0  0  0  0  0  0  0  0  0  0  0  0
   -3.3922    0.4296    1.0366 N   0  0  0  0  0  0  0  0  0  0  0  0
   -2.6075    1.0875    0.1653 C   0  0  0  0  0  0  0  0  0  0  0  0
   -1.5346    2.0888    0.3944 C   0  0  2  0  0  0  0  0  0  0  0  0
   -1.9998    3.4720   -0.0013 C   0  0  0  0  0  0  0  0  0  0  0  0
   -1.4720    3.6101   -1.3932 C   0  0  0  0  0  0  0  0  0  0  0  0
   -0.6322    2.3958   -1.7056 C   0  0  0  0  0  0  0  0  0  0  0  0
   -0.3863    1.7913   -0.4124 N   0  0  0  0  0  0  0  0  0  0  0  0
    0.7767    1.0393   -0.0091 C   0  0  0  0  0  0  0  0  0  0  0  0
    0.8115    0.5889    1.1646 O   0  0  0  0  0  0  0  0  0  0  0  0
    1.8926    0.8155   -0.9736 C   0  0  0  0  0  0  0  0  0  0  0  0
    2.9522    0.0019   -0.2647 C   0  0  2  0  0  0  0  0  0  0  0  0
    3.3851    0.7710    0.8754 N   0  0  0  0  0  0  0  0  0  0  0  0
    4.1027   -0.3480   -1.1381 C   0  0  0  0  0  0  0  0  0  0  0  0
    5.0851   -1.1438   -0.3582 C   0  0  0  0  0  0  0  0  0  0  0  0
    5.1456   -2.5297   -0.5020 C   0  0  0  0  0  0  0  0  0  0  0  0
    6.0195   -3.3305    0.1914 C   0  0  0  0  0  0  0  0  0  0  0  0
    6.0448   -4.6731    0.0214 F   0  0  0  0  0  0  0  0  0  0  0  0
    6.8832   -2.7455    1.0748 C   0  0  0  0  0  0  0  0  0  0  0  0
    7.7524   -3.5195    1.7678 F   0  0  0  0  0  0  0  0  0  0  0  0
    6.8592   -1.3814    1.2490 C   0  0  0  0  0  0  0  0  0  0  0  0
    5.9718   -0.6028    0.5397 C   0  0  0  0  0  0  0  0  0  0  0  0
    5.9729    0.7543    0.7218 F   0  0  0  0  0  0  0  0  0  0  0  0
   -2.9862    0.6539   -1.0489 N   0  0  0  0  0  0  0  0  0  0  0  0
   -3.9450   -0.2152   -0.9022 O   0  0  0  0  0  0  0  0  0  0  0  0
   -6.6077   -1.1412    0.2670 C   0  0  0  0  0  0  0  0  0  0  0  0
   -6.7624   -2.5276    0.3323 O   0  0  0  0  0  0  0  0  0  0  0  0
   -5.3570   -2.6328    0.2999 C   0  0  0  0  0  0  0  0  0  0  0  0
   -5.5358   -0.2154    2.7790 H   0  0  0  0  0  0  0  0  0  0  0  0
   -4.2997   -1.4935    2.8281 H   0  0  0  0  0  0  0  0  0  0  0  0
   -6.0822   -1.9827    2.7836 H   0  0  0  0  0  0  0  0  0  0  0  0
   -1.2332    2.1397    1.4555 H   0  0  0  0  0  0  0  0  0  0  0  0
   -1.5378    4.2357    0.6564 H   0  0  0  0  0  0  0  0  0  0  0  0
   -3.0915    3.5907    0.0824 H   0  0  0  0  0  0  0  0  0  0  0  0
   -0.9076    4.5585   -1.5220 H   0  0  0  0  0  0  0  0  0  0  0  0
   -2.3609    3.6742   -2.0739 H   0  0  0  0  0  0  0  0  0  0  0  0
   -1.2685    1.7107   -2.3100 H   0  0  0  0  0  0  0  0  0  0  0  0
    0.3081    2.6609   -2.2292 H   0  0  0  0  0  0  0  0  0  0  0  0
    1.5053    0.1851   -1.8094 H   0  0  0  0  0  0  0  0  0  0  0  0
    2.3178    1.7746   -1.3223 H   0  0  0  0  0  0  0  0  0  0  0  0
    2.4545   -0.9517    0.0487 H   0  0  0  0  0  0  0  0  0  0  0  0
    3.0094    1.7439    0.8679 H   0  0  0  0  0  0  0  0  0  0  0  0
    3.0512    0.3540    1.7907 H   0  0  0  0  0  0  0  0  0  0  0  0
    4.5924    0.5918   -1.4792 H   0  0  0  0  0  0  0  0  0  0  0  0
    3.8024   -0.9779   -2.0104 H   0  0  0  0  0  0  0  0  0  0  0  0
    4.4653   -2.9845   -1.1969 H   0  0  0  0  0  0  0  0  0  0  0  0
    7.5345   -0.8862    1.9451 H   0  0  0  0  0  0  0  0  0  0  0  0
   -6.4739   -0.8240   -0.7749 H   0  0  0  0  0  0  0  0  0  0  0  0
   -7.3459   -0.5683    0.8636 H   0  0  0  0  0  0  0  0  0  0  0  0
   -5.0390   -3.5123    0.8819 H   0  0  0  0  0  0  0  0  0  0  0  0
   -5.0020   -2.5900   -0.7519 H   0  0  0  0  0  0  0  0  0  0  0  0
  1  2  1  0
  2  3  1  0
  3  4  2  0
  4  5  1  0
  5  6  1  0
  6  7  1  0
  7  8  1  0
  8  9  1  0
  9 10  1  0
 10 11  1  0
 11 12  2  0
 11 13  1  0
 13 14  1  0
 14 15  1  0
 14 16  1  0
 16 17  1  0
 17 18  2  0
 18 19  1  0
 19 20  1  0
 19 21  2  0
 21 22  1  0
 21 23  1  0
 23 24  2  0
 24 25  1  0
  5 26  2  0
 26 27  1  0
  2 28  1  0
 28 29  1  0
 29 30  1  0
 30  2  1  0
 27  3  1  0
 10  6  1  0
 24 17  1  0
  1 31  1  0
  1 32  1  0
  1 33  1  0
  6 34  1  1
  7 35  1  0
  7 36  1  0
  8 37  1  0
  8 38  1  0
  9 39  1  0
  9 40  1  0
 13 41  1  0
 13 42  1  0
 14 43  1  1
 15 44  1  0
 15 45  1  0
 16 46  1  0
 16 47  1  0
 18 48  1  0
 23 49  1  0
 28 50  1  0
 28 51  1  0
 30 52  1  0
 30 53  1  0
M  END
$$$$
