@<TRIPOS>MOLECULE
*****
 53 56 0 0 0
SMALL
GASTEIGER

@<TRIPOS>ATOM
      1 C          -5.3310   -1.2524    2.4426 C.3     1  UNL1       -0.0467
      2 C          -5.2702   -1.2991    0.9524 C.3     1  UNL1        0.0930
      3 C          -4.2343   -0.3906    0.3639 C.ar    1  UNL1        0.2378
      4 N          -3.3922    0.4296    1.0366 N.ar    1  UNL1       -0.1935
      5 C          -2.6075    1.0875    0.1653 C.ar    1  UNL1        0.1920
      6 C          -1.5346    2.0888    0.3944 C.3     1  UNL1        0.0890
      7 C          -1.9998    3.4720   -0.0013 C.3     1  UNL1       -0.0256
      8 C          -1.4720    3.6101   -1.3932 C.3     1  UNL1       -0.0350
      9 C          -0.6322    2.3958   -1.7056 C.3     1  UNL1        0.0155
     10 N          -0.3863    1.7913   -0.4124 N.am    1  UNL1       -0.2912
     11 C           0.7767    1.0393   -0.0091 C.2     1  UNL1        0.2176
     12 O           0.8115    0.5889    1.1646 O.2     1  UNL1       -0.2755
     13 C           1.8926    0.8155   -0.9736 C.3     1  UNL1        0.0396
     14 C           2.9522    0.0019   -0.2647 C.3     1  UNL1        0.0172
     15 N           3.3851    0.7710    0.8754 N.3     1  UNL1       -0.3265
     16 C           4.1027   -0.3480   -1.1381 C.3     1  UNL1       -0.0092
     17 C           5.0851   -1.1438   -0.3582 C.ar    1  UNL1       -0.0078
     18 C           5.1456   -2.5297   -0.5020 C.ar    1  UNL1       -0.0176
     19 C           6.0195   -3.3305    0.1914 C.ar    1  UNL1        0.1588
     20 F           6.0448   -4.6731    0.0214 F       1  UNL1       -0.2025
     21 C           6.8832   -2.7455    1.0748 C.ar    1  UNL1        0.1611
     22 F           7.7524   -3.5195    1.7678 F       1  UNL1       -0.2024
     23 C           6.8592   -1.3814    1.2490 C.ar    1  UNL1        0.0119
     24 C           5.9718   -0.6028    0.5397 C.ar    1  UNL1        0.1295
     25 F           5.9729    0.7543    0.7218 F       1  UNL1       -0.2051
     26 N          -2.9862    0.6539   -1.0489 N.ar    1  UNL1       -0.0593
     27 O          -3.9450   -0.2152   -0.9022 O.2     1  UNL1       -0.3372
     28 C          -6.6077   -1.1412    0.2670 C.3     1  UNL1        0.0637
     29 O          -6.7624   -2.5276    0.3323 O.3     1  UNL1       -0.3776
     30 C          -5.3570   -2.6328    0.2999 C.3     1  UNL1        0.0637
     31 H          -5.5358   -0.2154    2.7790 H       1  UNL1        0.0241
     32 H          -4.2997   -1.4935    2.8281 H       1  UNL1        0.0241
     33 H          -6.0822   -1.9827    2.7836 H       1  UNL1        0.0241
     34 H          -1.2332    2.1397    1.4555 H       1  UNL1        0.0583
     35 H          -1.5378    4.2357    0.6564 H       1  UNL1        0.0288
     36 H          -3.0915    3.5907    0.0824 H       1  UNL1        0.0288
     37 H          -0.9076    4.5585   -1.5220 H       1  UNL1        0.0281
     38 H          -2.3609    3.6742   -2.0739 H       1  UNL1        0.0281
     39 H          -1.2685    1.7107   -2.3100 H       1  UNL1        0.0465
     40 H           0.3081    2.6609   -2.2292 H       1  UNL1        0.0465
     41 H           1.5053    0.1851   -1.8094 H       1  UNL1        0.0374
     42 H           2.3178    1.7746   -1.3223 H       1  UNL1        0.0374
     43 H           2.4545   -0.9517    0.0487 H       1  UNL1        0.0466
     44 H           3.0094    1.7439    0.8679 H       1  UNL1        0.1185
     45 H           3.0512    0.3540    1.7907 H       1  UNL1        0.1185
     46 H           4.5924    0.5918   -1.4792 H       1  UNL1        0.0329
     47 H           3.8024   -0.9779   -2.0104 H       1  UNL1        0.0329
     48 H           4.4653   -2.9845   -1.1969 H       1  UNL1        0.0651
     49 H           7.5345   -0.8862    1.9451 H       1  UNL1        0.0676
     50 H          -6.4739   -0.8240   -0.7749 H       1  UNL1        0.0571
     51 H          -7.3459   -0.5683    0.8636 H       1  UNL1        0.0571
     52 H          -5.0390   -3.5123    0.8819 H       1  UNL1        0.0571
     53 H          -5.0020   -2.5900   -0.7519 H       1  UNL1        0.0571
@<TRIPOS>BOND
     1     1     2    1
     2     2     3    1
     3     3     4   ar
     4     4     5   ar
     5     5     6    1
     6     6     7    1
     7     7     8    1
     8     8     9    1
     9     9    10    1
    10    10    11   am
    11    11    12    2
    12    11    13    1
    13    13    14    1
    14    14    15    1
    15    14    16    1
    16    16    17    1
    17    17    18   ar
    18    18    19   ar
    19    19    20    1
    20    19    21   ar
    21    21    22    1
    22    21    23   ar
    23    23    24   ar
    24    24    25    1
    25     5    26   ar
    26    26    27   ar
    27     2    28    1
    28    28    29    1
    29    29    30    1
    30    30     2    1
    31    27     3   ar
    32    10     6    1
    33    24    17   ar
    34     1    31    1
    35     1    32    1
    36     1    33    1
    37     6    34    1
    38     7    35    1
    39     7    36    1
    40     8    37    1
    41     8    38    1
    42     9    39    1
    43     9    40    1
    44    13    41    1
    45    13    42    1
    46    14    43    1
    47    15    44    1
    48    15    45    1
    49    16    46    1
    50    16    47    1
    51    18    48    1
    52    23    49    1
    53    28    50    1
    54    28    51    1
    55    30    52    1
    56    30    53    1
