@<TRIPOS>MOLECULE
*****
 52 57 0 0 0
SMALL
GASTEIGER

@<TRIPOS>ATOM
      1 C           3.8995   -2.0033   -3.2573 C.3     1  UNL1       -0.0361
      2 C           3.2867   -1.5630   -1.9737 C.ar    1  UNL1       -0.0041
      3 C           1.9471   -1.2427   -1.9016 C.ar    1  UNL1       -0.0324
      4 C           1.3611   -0.8275   -0.6988 C.ar    1  UNL1        0.0545
      5 N          -0.0274   -0.5094   -0.6514 N.am    1  UNL1       -0.2529
      6 C          -1.0554   -1.4329   -0.3194 C.2     1  UNL1        0.2553
      7 O          -0.9114   -2.6507    0.0223 O.2     1  UNL1       -0.2695
      8 C          -2.3312   -0.7554   -0.4345 C.ar    1  UNL1        0.0834
      9 C          -3.6987   -0.9178   -0.3229 C.ar    1  UNL1        0.0785
     10 C          -4.4853   -2.1034    0.0844 C.3     1  UNL1        0.0039
     11 C          -5.1004   -1.9514    1.4804 C.3     1  UNL1       -0.0441
     12 C          -4.0747   -2.9973    1.1600 C.3     1  UNL1       -0.0441
     13 N          -4.2425    0.2942   -0.6526 N.ar    1  UNL1       -0.1751
     14 N          -3.3040    1.1630   -0.9499 N.ar    1  UNL1       -0.2682
     15 C          -3.5547    2.5372   -1.3405 C.3     1  UNL1        0.0306
     16 C          -2.1098    0.5236   -0.8178 C.ar    1  UNL1        0.0765
     17 C          -0.6517    0.7488   -0.9391 C.3     1  UNL1        0.0988
     18 C          -0.2170    1.8615   -0.0718 C.ar    1  UNL1       -0.0207
     19 C          -0.1662    1.7042    1.2890 C.ar    1  UNL1       -0.0550
     20 C           0.2370    2.7268    2.1305 C.ar    1  UNL1       -0.0431
     21 C           0.5970    3.9344    1.5906 C.ar    1  UNL1        0.0410
     22 CL          1.1127    5.2448    2.6567 Cl      1  UNL1       -0.0835
     23 C           0.5568    4.1235    0.2309 C.ar    1  UNL1       -0.0431
     24 C           0.1490    3.0821   -0.5893 C.ar    1  UNL1       -0.0550
     25 C           2.1319   -0.7360    0.4349 C.ar    1  UNL1        0.0345
     26 N           3.4521   -1.0523    0.3610 N.ar    1  UNL1       -0.2798
     27 C           4.3947   -1.0376    1.3320 C.ar    1  UNL1        0.2041
     28 C           4.2485   -0.6671    2.7687 C.3     1  UNL1        0.2980
     29 F           4.6404   -1.6868    3.6023 F       1  UNL1       -0.2005
     30 F           5.0252    0.4606    3.0591 F       1  UNL1       -0.2005
     31 N           5.5300   -1.4353    0.7331 N.ar    1  UNL1       -0.1278
     32 N           5.3013   -1.6854   -0.5525 N.ar    1  UNL1       -0.1290
     33 C           4.0028   -1.4494   -0.7995 C.ar    1  UNL1        0.1642
     34 H           3.9408   -3.1088   -3.3358 H       1  UNL1        0.0279
     35 H           4.9570   -1.6462   -3.3575 H       1  UNL1        0.0279
     36 H           3.3491   -1.5394   -4.0984 H       1  UNL1        0.0279
     37 H           1.3035   -1.2981   -2.7579 H       1  UNL1        0.0640
     38 H          -5.2161   -2.4248   -0.7095 H       1  UNL1        0.0365
     39 H          -6.1686   -2.2363    1.5859 H       1  UNL1        0.0272
     40 H          -4.8287   -1.0799    2.0914 H       1  UNL1        0.0272
     41 H          -3.0605   -2.8957    1.5772 H       1  UNL1        0.0272
     42 H          -4.5196   -4.0383    1.1313 H       1  UNL1        0.0272
     43 H          -4.0393    2.5887   -2.3587 H       1  UNL1        0.0473
     44 H          -2.6523    3.1438   -1.3333 H       1  UNL1        0.0473
     45 H          -4.3408    2.9197   -0.6388 H       1  UNL1        0.0473
     46 H          -0.4235    1.0194   -2.0270 H       1  UNL1        0.0620
     47 H          -0.4391    0.7681    1.7885 H       1  UNL1        0.0621
     48 H           0.2719    2.5893    3.1936 H       1  UNL1        0.0632
     49 H           0.8429    5.0773   -0.1704 H       1  UNL1        0.0632
     50 H           0.1270    3.2603   -1.6607 H       1  UNL1        0.0621
     51 H           1.7447   -0.4248    1.4060 H       1  UNL1        0.0833
     52 H           3.2081   -0.3746    3.0110 H       1  UNL1        0.1105
@<TRIPOS>BOND
     1     1     2    1
     2     2     3   ar
     3     3     4   ar
     4     4     5    1
     5     5     6   am
     6     6     7    2
     7     6     8    1
     8     8     9   ar
     9     9    10    1
    10    10    11    1
    11    11    12    1
    12     9    13   ar
    13    13    14   ar
    14    14    15    1
    15    14    16   ar
    16    16    17    1
    17    17    18    1
    18    18    19   ar
    19    19    20   ar
    20    20    21   ar
    21    21    22    1
    22    21    23   ar
    23    23    24   ar
    24     4    25   ar
    25    25    26   ar
    26    26    27   ar
    27    27    28    1
    28    28    29    1
    29    28    30    1
    30    27    31   ar
    31    31    32   ar
    32    32    33   ar
    33    33     2   ar
    34    17     5    1
    35    24    18   ar
    36    33    26   ar
    37    16     8   ar
    38    12    10    1
    39     1    34    1
    40     1    35    1
    41     1    36    1
    42     3    37    1
    43    10    38    1
    44    11    39    1
    45    11    40    1
    46    12    41    1
    47    12    42    1
    48    15    43    1
    49    15    44    1
    50    15    45    1
    51    17    46    1
    52    19    47    1
    53    20    48    1
    54    23    49    1
    55    24    50    1
    56    25    51    1
    57    28    52    1
