
     RDKit          3D

 52 57  0  0  0  0  0  0  0  0999 V2000
    3.8995   -2.0033   -3.2573 C   0  0  0  0  0  0  0  0  0  0  0  0
    3.2867   -1.5630   -1.9737 C   0  0  0  0  0  0  0  0  0  0  0  0
    1.9471   -1.2427   -1.9016 C   0  0  0  0  0  0  0  0  0  0  0  0
    1.3611   -0.8275   -0.6988 C   0  0  0  0  0  0  0  0  0  0  0  0
   -0.0274   -0.5094   -0.6514 N   0  0  0  0  0  0  0  0  0  0  0  0
   -1.0554   -1.4329   -0.3194 C   0  0  0  0  0  0  0  0  0  0  0  0
   -0.9114   -2.6507    0.0223 O   0  0  0  0  0  0  0  0  0  0  0  0
   -2.3312   -0.7554   -0.4345 C   0  0  0  0  0  0  0  0  0  0  0  0
   -3.6987   -0.9178   -0.3229 C   0  0  0  0  0  0  0  0  0  0  0  0
   -4.4853   -2.1034    0.0844 C   0  0  0  0  0  0  0  0  0  0  0  0
   -5.1004   -1.9514    1.4804 C   0  0  0  0  0  0  0  0  0  0  0  0
   -4.0747   -2.9973    1.1600 C   0  0  0  0  0  0  0  0  0  0  0  0
   -4.2425    0.2942   -0.6526 N   0  0  0  0  0  0  0  0  0  0  0  0
   -3.3040    1.1630   -0.9499 N   0  0  0  0  0  0  0  0  0  0  0  0
   -3.5547    2.5372   -1.3405 C   0  0  0  0  0  0  0  0  0  0  0  0
   -2.1098    0.5236   -0.8178 C   0  0  0  0  0  0  0  0  0  0  0  0
   -0.6517    0.7488   -0.9391 C   0  0  0  0  0  0  0  0  0  0  0  0
   -0.2170    1.8615   -0.0718 C   0  0  0  0  0  0  0  0  0  0  0  0
   -0.1662    1.7042    1.2890 C   0  0  0  0  0  0  0  0  0  0  0  0
    0.2370    2.7268    2.1305 C   0  0  0  0  0  0  0  0  0  0  0  0
    0.5970    3.9344    1.5906 C   0  0  0  0  0  0  0  0  0  0  0  0
    1.1127    5.2448    2.6567 Cl  0  0  0  0  0  0  0  0  0  0  0  0
    0.5568    4.1235    0.2309 C   0  0  0  0  0  0  0  0  0  0  0  0
    0.1490    3.0821   -0.5893 C   0  0  0  0  0  0  0  0  0  0  0  0
    2.1319   -0.7360    0.4349 C   0  0  0  0  0  0  0  0  0  0  0  0
    3.4521   -1.0523    0.3610 N   0  0  0  0  0  0  0  0  0  0  0  0
    4.3947   -1.0376    1.3320 C   0  0  0  0  0  0  0  0  0  0  0  0
    4.2485   -0.6671    2.7687 C   0  0  0  0  0  0  0  0  0  0  0  0
    4.6404   -1.6868    3.6023 F   0  0  0  0  0  0  0  0  0  0  0  0
    5.0252    0.4606    3.0591 F   0  0  0  0  0  0  0  0  0  0  0  0
    5.5300   -1.4353    0.7331 N   0  0  0  0  0  0  0  0  0  0  0  0
    5.3013   -1.6854   -0.5525 N   0  0  0  0  0  0  0  0  0  0  0  0
    4.0028   -1.4494   -0.7995 C   0  0  0  0  0  0  0  0  0  0  0  0
    3.9408   -3.1088   -3.3358 H   0  0  0  0  0  0  0  0  0  0  0  0
    4.9570   -1.6462   -3.3575 H   0  0  0  0  0  0  0  0  0  0  0  0
    3.3491   -1.5394   -4.0984 H   0  0  0  0  0  0  0  0  0  0  0  0
    1.3035   -1.2981   -2.7579 H   0  0  0  0  0  0  0  0  0  0  0  0
   -5.2161   -2.4248   -0.7095 H   0  0  0  0  0  0  0  0  0  0  0  0
   -6.1686   -2.2363    1.5859 H   0  0  0  0  0  0  0  0  0  0  0  0
   -4.8287   -1.0799    2.0914 H   0  0  0  0  0  0  0  0  0  0  0  0
   -3.0605   -2.8957    1.5772 H   0  0  0  0  0  0  0  0  0  0  0  0
   -4.5196   -4.0383    1.1313 H   0  0  0  0  0  0  0  0  0  0  0  0
   -4.0393    2.5887   -2.3587 H   0  0  0  0  0  0  0  0  0  0  0  0
   -2.6523    3.1438   -1.3333 H   0  0  0  0  0  0  0  0  0  0  0  0
   -4.3408    2.9197   -0.6388 H   0  0  0  0  0  0  0  0  0  0  0  0
   -0.4235    1.0194   -2.0270 H   0  0  0  0  0  0  0  0  0  0  0  0
   -0.4391    0.7681    1.7885 H   0  0  0  0  0  0  0  0  0  0  0  0
    0.2719    2.5893    3.1936 H   0  0  0  0  0  0  0  0  0  0  0  0
    0.8429    5.0773   -0.1704 H   0  0  0  0  0  0  0  0  0  0  0  0
    0.1270    3.2603   -1.6607 H   0  0  0  0  0  0  0  0  0  0  0  0
    1.7447   -0.4248    1.4060 H   0  0  0  0  0  0  0  0  0  0  0  0
    3.2081   -0.3746    3.0110 H   0  0  0  0  0  0  0  0  0  0  0  0
  1  2  1  0
  2  3  2  0
  3  4  1  0
  4  5  1  0
  5  6  1  0
  6  7  2  0
  6  8  1  0
  8  9  1  0
  9 10  1  0
 10 11  1  0
 11 12  1  0
  9 13  2  0
 13 14  1  0
 14 15  1  0
 14 16  1  0
 16 17  1  0
 17 18  1  0
 18 19  2  0
 19 20  1  0
 20 21  2  0
 21 22  1  0
 21 23  1  0
 23 24  2  0
  4 25  2  0
 25 26  1  0
 26 27  1  0
 27 28  1  0
 28 29  1  0
 28 30  1  0
 27 31  2  0
 31 32  1  0
 32 33  2  0
 33  2  1  0
 17  5  1  0
 24 18  1  0
 33 26  1  0
 16  8  2  0
 12 10  1  0
  1 34  1  0
  1 35  1  0
  1 36  1  0
  3 37  1  0
 10 38  1  0
 11 39  1  0
 11 40  1  0
 12 41  1  0
 12 42  1  0
 15 43  1  0
 15 44  1  0
 15 45  1  0
 17 46  1  0
 19 47  1  0
 20 48  1  0
 23 49  1  0
 24 50  1  0
 25 51  1  0
 28 52  1  0
M  END
$$$$
