@<TRIPOS>MOLECULE
*****
 72 75 0 0 0
SMALL
GASTEIGER

@<TRIPOS>ATOM
      1 C          -3.0836   -6.3092   -0.3148 C.3     1  UNL1       -0.0622
      2 C          -2.9697   -4.8686    0.2021 C.3     1  UNL1       -0.0215
      3 C          -1.6637   -4.2566   -0.1155 C.3     1  UNL1        0.0894
      4 O          -1.6208   -2.9126   -0.0381 O.3     1  UNL1       -0.4913
      5 C          -0.5707   -2.0873    0.1971 C.ar    1  UNL1        0.1312
      6 C          -0.9872   -0.7525   -0.1186 C.ar    1  UNL1        0.0608
      7 C          -0.2060    0.3211    0.0147 C.ar    1  UNL1       -0.0212
      8 C           1.0058    0.1099    0.5119 C.ar    1  UNL1        0.1061
      9 C           1.5223   -1.1718    0.8764 C.ar    1  UNL1       -0.0319
     10 C           0.6729   -2.2791    0.6953 C.ar    1  UNL1       -0.0174
     11 S           1.8578    1.3896    1.0541 S.O2    1  UNL1        0.0584
     12 O           2.7777    1.0880    2.3033 O.2     1  UNL1       -0.1530
     13 O           1.0421    2.5774    1.5370 O.2     1  UNL1       -0.1530
     14 N           3.0172    2.1554   -0.0778 N.3     1  UNL1       -0.1899
     15 C           3.6247    0.8614   -0.4243 C.3     1  UNL1        0.0189
     16 C           4.8438    0.6323    0.2220 C.3     1  UNL1       -0.0231
     17 C           6.0769    0.0979   -0.2698 C.3     1  UNL1        0.0114
     18 C           6.7365   -0.7029    0.8388 C.3     1  UNL1       -0.0361
     19 C           7.9089   -0.0009    1.3671 C.3     1  UNL1       -0.0388
     20 C           7.6676    1.4281    0.9036 C.3     1  UNL1       -0.0011
     21 N           6.9049    1.3611   -0.2828 N.3     1  UNL1       -0.3024
     22 C           7.5524    1.5540   -1.5198 C.3     1  UNL1       -0.0125
     23 C          -2.3883   -0.4722   -0.5731 C.ar    1  UNL1        0.1462
     24 N          -3.0014   -1.2674   -1.4387 N.ar    1  UNL1       -0.1893
     25 C          -4.3467   -1.0020   -1.6026 C.ar    1  UNL1        0.2992
     26 O          -5.0215   -1.6651   -2.4007 O.2     1  UNL1       -0.2634
     27 C          -4.9940    0.0674   -0.8913 C.ar    1  UNL1        0.1512
     28 C          -4.1796    0.7837   -0.0226 C.ar    1  UNL1        0.0947
     29 N          -2.9579    0.4751    0.0718 N.ar    1  UNL1       -0.3361
     30 C          -5.0494    1.7111    0.4883 C.ar    1  UNL1        0.0871
     31 C          -4.6337    2.9033    1.2853 C.3     1  UNL1       -0.0069
     32 C          -4.9299    4.1993    0.5360 C.3     1  UNL1       -0.0504
     33 C          -6.4184    4.4997    0.4952 C.3     1  UNL1       -0.0649
     34 N          -6.2839    1.5192    0.0046 N.ar    1  UNL1       -0.1736
     35 N          -6.2124    0.5413   -0.8630 N.ar    1  UNL1       -0.2598
     36 C          -7.2559    0.1954   -1.8250 C.3     1  UNL1        0.0311
     37 H          -3.6354   -6.2478   -1.3247 H       1  UNL1        0.0231
     38 H          -2.0770   -6.7126   -0.4618 H       1  UNL1        0.0231
     39 H          -3.6988   -6.9518    0.3005 H       1  UNL1        0.0231
     40 H          -3.8008   -4.2541    0.0059 H       1  UNL1        0.0295
     41 H          -2.9264   -4.9647    1.3765 H       1  UNL1        0.0295
     42 H          -1.7758   -4.3074   -1.3540 H       1  UNL1        0.0696
     43 H          -0.8413   -4.9114    0.0726 H       1  UNL1        0.0696
     44 H          -0.3638    1.2610   -0.3877 H       1  UNL1        0.0645
     45 H           2.4845   -1.4400    1.3532 H       1  UNL1        0.0638
     46 H           0.9941   -3.2934    0.8340 H       1  UNL1        0.0655
     47 H           2.3125    2.4066   -0.8890 H       1  UNL1        0.1480
     48 H           4.2024    1.4148   -1.5259 H       1  UNL1        0.0442
     49 H           3.1378    0.1417   -1.0229 H       1  UNL1        0.0442
     50 H           4.9669    1.3997    1.0724 H       1  UNL1        0.0293
     51 H           4.4580   -0.2580    1.0619 H       1  UNL1        0.0293
     52 H           6.0343   -0.3880   -1.2105 H       1  UNL1        0.0463
     53 H           6.9620   -1.7230    0.3869 H       1  UNL1        0.0281
     54 H           6.0298   -0.9780    1.6732 H       1  UNL1        0.0281
     55 H           7.9406   -0.0170    2.4802 H       1  UNL1        0.0278
     56 H           8.8792   -0.3870    1.0034 H       1  UNL1        0.0278
     57 H           7.0765    1.9194    1.7042 H       1  UNL1        0.0426
     58 H           8.6368    1.9625    0.7068 H       1  UNL1        0.0426
     59 H           8.5897    1.1431   -1.5097 H       1  UNL1        0.0391
     60 H           6.9335    1.1641   -2.3456 H       1  UNL1        0.0391
     61 H           7.6573    2.6664   -1.6837 H       1  UNL1        0.0391
     62 H          -2.3437    1.1811    0.6348 H       1  UNL1        0.1674
     63 H          -3.5011    2.9061    1.3555 H       1  UNL1        0.0329
     64 H          -5.0531    2.9462    2.2678 H       1  UNL1        0.0329
     65 H          -4.6388    4.0597   -0.5364 H       1  UNL1        0.0266
     66 H          -4.4011    5.0268    0.9624 H       1  UNL1        0.0266
     67 H          -6.7648    4.7434    1.5494 H       1  UNL1        0.0230
     68 H          -6.5532    5.4215   -0.1096 H       1  UNL1        0.0230
     69 H          -7.0624    3.7054    0.1378 H       1  UNL1        0.0230
     70 H          -8.2009    0.5687   -1.4682 H       1  UNL1        0.0473
     71 H          -7.1777   -0.8071   -2.1899 H       1  UNL1        0.0473
     72 H          -6.9159    0.8797   -2.7211 H       1  UNL1        0.0473
@<TRIPOS>BOND
     1     1     2    1
     2     2     3    1
     3     3     4    1
     4     4     5    1
     5     5     6   ar
     6     6     7   ar
     7     7     8   ar
     8     8     9   ar
     9     9    10   ar
    10     8    11    1
    11    11    12    2
    12    11    13    2
    13    11    14    1
    14    14    15    1
    15    15    16    1
    16    16    17    1
    17    17    18    1
    18    18    19    1
    19    19    20    1
    20    20    21    1
    21    21    22    1
    22     6    23    1
    23    23    24   ar
    24    24    25   ar
    25    25    26    2
    26    25    27   ar
    27    27    28   ar
    28    28    29   ar
    29    28    30   ar
    30    30    31    1
    31    31    32    1
    32    32    33    1
    33    30    34   ar
    34    34    35   ar
    35    35    36    1
    36    10     5   ar
    37    21    17    1
    38    29    23   ar
    39    35    27   ar
    40     1    37    1
    41     1    38    1
    42     1    39    1
    43     2    40    1
    44     2    41    1
    45     3    42    1
    46     3    43    1
    47     7    44    1
    48     9    45    1
    49    10    46    1
    50    14    47    1
    51    15    48    1
    52    15    49    1
    53    16    50    1
    54    16    51    1
    55    17    52    1
    56    18    53    1
    57    18    54    1
    58    19    55    1
    59    19    56    1
    60    20    57    1
    61    20    58    1
    62    22    59    1
    63    22    60    1
    64    22    61    1
    65    29    62    1
    66    31    63    1
    67    31    64    1
    68    32    65    1
    69    32    66    1
    70    33    67    1
    71    33    68    1
    72    33    69    1
    73    36    70    1
    74    36    71    1
    75    36    72    1
