@<TRIPOS>MOLECULE
*****
 45 45 0 0 0
SMALL
GASTEIGER

@<TRIPOS>ATOM
      1 C           3.7585   -0.5743   -0.3904 C.2     1  UNL1       -0.0704
      2 C           4.7328    0.2123   -1.1917 C.3     1  UNL1        0.0679
      3 P           6.0072    0.8976   -0.0950 P.3     1  UNL1        0.3315
      4 O           7.3425   -0.1362   -0.0151 O.3     1  UNL1       -0.3238
      5 O           6.4592    2.4077   -0.6955 O.3     1  UNL1       -0.3238
      6 O           5.3996    1.1003    1.2941 O.2     1  UNL1       -0.2585
      7 C           2.4801   -0.3362   -0.3050 C.2     1  UNL1       -0.0331
      8 CA          1.6000   -1.1621    0.5075 C.2     1  UNL1        0.1423
      9 N           0.3343   -0.9755    0.6262 N.2     1  UNL1       -0.2722
     10 C          -0.2817    0.1053   -0.0726 C.3     1  UNL1        0.0694
     11 C          -1.6743    0.3636    0.3713 C.ar    1  UNL1        0.0238
     12 C          -2.7297   -0.4848   -0.0110 C.ar    1  UNL1        0.0052
     13 C          -2.3615   -1.6169   -0.8548 C.3     1  UNL1        0.0859
     14 O          -3.4813   -2.2878   -1.3008 O.3     1  UNL1       -0.2820
     15 P          -4.5211   -1.4045   -2.2619 P.3     1  UNL1        0.4727
     16 O          -4.2661    0.2452   -2.2436 O.3     1  UNL1       -0.3026
     17 O          -6.1415   -1.7771   -1.8462 O.3     1  UNL1       -0.3026
     18 O          -4.3932   -1.8860   -3.7193 O.2     1  UNL1       -0.2275
     19 C          -3.9377   -0.0968    0.4992 C.ar    1  UNL1        0.0338
     20 N          -4.1568    0.9822    1.2931 N.ar    1  UNL1       -0.2562
     21 C          -3.1412    1.7681    1.6380 C.ar    1  UNL1        0.0798
     22 C          -3.3962    2.9425    2.5080 C.3     1  UNL1       -0.0188
     23 C          -1.8718    1.4844    1.1899 C.ar    1  UNL1        0.1430
     24 O          -0.7941    2.2869    1.5347 O.3     1  UNL1       -0.5046
     25 C           2.1011   -2.2992    1.2667 C.2     1  UNL1        0.3549
     26 O           3.2748   -2.9721    1.5319 O.3     1  UNL1       -0.4761
     27 OXT         1.3934   -3.0496    1.9846 O.2     1  UNL1       -0.2434
     28 H           4.2432   -1.3880    0.1285 H       1  UNL1        0.0579
     29 H           5.2166   -0.5011   -1.8962 H       1  UNL1        0.0430
     30 H           4.1820    1.0021   -1.7501 H       1  UNL1        0.0430
     31 H           7.1316   -0.9334    0.5243 H       1  UNL1        0.2198
     32 H           5.8245    3.0589   -0.3425 H       1  UNL1        0.2198
     33 H           2.0993    0.4885   -0.8547 H       1  UNL1        0.0638
     34 H           0.3102    1.0378    0.0168 H       1  UNL1        0.0559
     35 H          -0.3041   -0.1204   -1.1561 H       1  UNL1        0.0559
     36 H          -1.8601   -1.2328   -1.7743 H       1  UNL1        0.0616
     37 H          -1.7316   -2.3732   -0.3367 H       1  UNL1        0.0616
     38 H          -4.2146    0.5976   -3.1649 H       1  UNL1        0.2220
     39 H          -6.6171   -0.9276   -1.6859 H       1  UNL1        0.2220
     40 H          -4.7822   -0.7087    0.2599 H       1  UNL1        0.0833
     41 H          -4.3846    2.8422    2.9956 H       1  UNL1        0.0294
     42 H          -2.5914    2.9268    3.2758 H       1  UNL1        0.0294
     43 H          -3.3303    3.9038    1.9794 H       1  UNL1        0.0294
     44 H          -0.4484    2.4149    2.4707 H       1  UNL1        0.2922
     45 H           3.5218   -3.8241    1.0089 H       1  UNL1        0.2955
@<TRIPOS>BOND
     1     1     2    1
     2     2     3    1
     3     3     4    1
     4     3     5    1
     5     3     6    2
     6     1     7    2
     7     7     8    1
     8     8     9    2
     9     9    10    1
    10    10    11    1
    11    11    12   ar
    12    12    13    1
    13    13    14    1
    14    14    15    1
    15    15    16    1
    16    15    17    1
    17    15    18    2
    18    12    19   ar
    19    19    20   ar
    20    20    21   ar
    21    21    22    1
    22    21    23   ar
    23    23    24    1
    24     8    25    1
    25    25    26    1
    26    25    27    2
    27    23    11   ar
    28     1    28    1
    29     2    29    1
    30     2    30    1
    31     4    31    1
    32     5    32    1
    33     7    33    1
    34    10    34    1
    35    10    35    1
    36    13    36    1
    37    13    37    1
    38    16    38    1
    39    17    39    1
    40    19    40    1
    41    22    41    1
    42    22    42    1
    43    22    43    1
    44    24    44    1
    45    26    45    1
