
     RDKit          3D

 82 85  0  0  0  0  0  0  0  0999 V2000
   -5.8545   -0.8633    1.5482 C   0  0  0  0  0  0  0  0  0  0  0  0
   -5.3284   -1.6575    2.6999 C   0  0  0  0  0  0  0  0  0  0  0  0
   -4.8776   -0.7974    3.8608 C   0  0  0  0  0  0  0  0  0  0  0  0
   -4.2350   -2.5370    2.2229 C   0  0  0  0  0  0  0  0  0  0  0  0
   -2.9125   -2.1166    2.2114 C   0  0  0  0  0  0  0  0  0  0  0  0
   -1.8897   -2.9226    1.7740 C   0  0  0  0  0  0  0  0  0  0  0  0
   -0.5276   -2.5193    1.7555 N   0  0  0  0  0  0  0  0  0  0  0  0
    0.4756   -3.0146    2.4935 N   0  0  0  0  0  0  0  0  0  0  0  0
    1.5712   -2.3560    2.1688 N   0  0  0  0  0  0  0  0  0  0  0  0
    1.2837   -1.4249    1.2126 C   0  0  0  0  0  0  0  0  0  0  0  0
    2.2635   -0.5319    0.6137 C   0  0  0  0  0  0  0  0  0  0  0  0
    1.9790    0.2671   -0.3132 O   0  0  0  0  0  0  0  0  0  0  0  0
    3.6230   -0.5349    1.0749 N   0  0  0  0  0  0  0  0  0  0  0  0
    4.6447    0.3191    0.5249 C   0  0  0  0  0  0  0  0  0  0  0  0
    4.8563    0.0518   -0.9386 C   0  0  0  0  0  0  0  0  0  0  0  0
    5.9134    0.9166   -1.5588 C   0  0  0  0  0  0  0  0  0  0  0  0
    7.2800    0.7334   -0.9128 C   0  0  0  0  0  0  0  0  0  0  0  0
    8.3146    1.5975   -1.5468 C   0  0  0  0  0  0  0  0  0  0  0  0
    9.6674    1.4332   -0.9354 C   0  0  0  0  0  0  0  0  0  0  0  0
    9.6638    1.8254    0.4812 C   0  0  0  0  0  0  0  0  0  0  0  0
    8.6631    2.3328    1.0050 O   0  0  0  0  0  0  0  0  0  0  0  0
   10.8178    1.6393    1.3243 N   0  0  0  0  0  0  0  0  0  0  0  0
   10.8076    1.9982    2.6137 O   0  0  0  0  0  0  0  0  0  0  0  0
   -0.0504   -1.5303    0.9528 C   0  0  0  0  0  0  0  0  0  0  0  0
   -0.8429   -0.7432    0.0458 C   0  0  0  0  0  0  0  0  0  0  0  0
   -0.8863    0.6331   -0.0001 C   0  0  0  0  0  0  0  0  0  0  0  0
   -1.6433    1.3593   -0.9021 C   0  0  0  0  0  0  0  0  0  0  0  0
   -2.4129    0.6884   -1.8243 C   0  0  0  0  0  0  0  0  0  0  0  0
   -3.2410    1.4505   -2.7969 C   0  0  0  0  0  0  0  0  0  0  0  0
   -4.5855    1.6736   -2.3855 N   0  0  0  0  0  0  0  0  0  0  0  0
   -5.3672    2.4055   -3.3589 C   0  0  0  0  0  0  0  0  0  0  0  0
   -6.8222    2.2773   -2.9771 C   0  0  0  0  0  0  0  0  0  0  0  0
   -7.0543    2.8119   -1.7415 O   0  0  0  0  0  0  0  0  0  0  0  0
   -5.9262    3.3168   -1.1642 C   0  0  0  0  0  0  0  0  0  0  0  0
   -4.7708    2.3059   -1.1194 C   0  0  0  0  0  0  0  0  0  0  0  0
   -2.4061   -0.7019   -1.8216 C   0  0  0  0  0  0  0  0  0  0  0  0
   -1.6402   -1.3884   -0.9091 C   0  0  0  0  0  0  0  0  0  0  0  0
   -2.2262   -4.1866    1.3383 C   0  0  0  0  0  0  0  0  0  0  0  0
   -1.1957   -5.0221    0.8890 O   0  0  0  0  0  0  0  0  0  0  0  0
   -3.5252   -4.6557    1.3283 C   0  0  0  0  0  0  0  0  0  0  0  0
   -4.5329   -3.8099    1.7790 C   0  0  0  0  0  0  0  0  0  0  0  0
   -5.8353   -4.2988    1.7617 O   0  0  0  0  0  0  0  0  0  0  0  0
   -5.4562   -1.2228    0.5781 H   0  0  0  0  0  0  0  0  0  0  0  0
   -5.5838    0.2236    1.6230 H   0  0  0  0  0  0  0  0  0  0  0  0
   -6.9779   -0.9297    1.4726 H   0  0  0  0  0  0  0  0  0  0  0  0
   -6.1426   -2.3121    3.0914 H   0  0  0  0  0  0  0  0  0  0  0  0
   -4.0966   -1.4024    4.4025 H   0  0  0  0  0  0  0  0  0  0  0  0
   -5.6935   -0.6678    4.5775 H   0  0  0  0  0  0  0  0  0  0  0  0
   -4.4210    0.1451    3.5616 H   0  0  0  0  0  0  0  0  0  0  0  0
   -2.7082   -1.1267    2.5605 H   0  0  0  0  0  0  0  0  0  0  0  0
    3.8317   -1.2199    1.8626 H   0  0  0  0  0  0  0  0  0  0  0  0
    4.4081    1.4070    0.7134 H   0  0  0  0  0  0  0  0  0  0  0  0
    5.5694    0.1385    1.1105 H   0  0  0  0  0  0  0  0  0  0  0  0
    5.1284   -1.0286   -1.0264 H   0  0  0  0  0  0  0  0  0  0  0  0
    3.9291    0.1662   -1.5323 H   0  0  0  0  0  0  0  0  0  0  0  0
    6.0363    0.5737   -2.6170 H   0  0  0  0  0  0  0  0  0  0  0  0
    5.5910    1.9615   -1.5889 H   0  0  0  0  0  0  0  0  0  0  0  0
    7.5546   -0.3354   -1.1359 H   0  0  0  0  0  0  0  0  0  0  0  0
    7.1758    0.8990    0.1492 H   0  0  0  0  0  0  0  0  0  0  0  0
    8.3964    1.4081   -2.6563 H   0  0  0  0  0  0  0  0  0  0  0  0
    8.0425    2.6934   -1.4899 H   0  0  0  0  0  0  0  0  0  0  0  0
   10.4472    2.0292   -1.4914 H   0  0  0  0  0  0  0  0  0  0  0  0
    9.9594    0.3641   -1.0779 H   0  0  0  0  0  0  0  0  0  0  0  0
   11.6494    1.2085    0.8556 H   0  0  0  0  0  0  0  0  0  0  0  0
   10.6811    2.9700    2.7543 H   0  0  0  0  0  0  0  0  0  0  0  0
   -0.3016    1.1959    0.7251 H   0  0  0  0  0  0  0  0  0  0  0  0
   -1.6015    2.4625   -0.8571 H   0  0  0  0  0  0  0  0  0  0  0  0
   -3.1740    0.9562   -3.7863 H   0  0  0  0  0  0  0  0  0  0  0  0
   -2.7307    2.4436   -2.9450 H   0  0  0  0  0  0  0  0  0  0  0  0
   -5.2397    1.9339   -4.3673 H   0  0  0  0  0  0  0  0  0  0  0  0
   -5.0650    3.4583   -3.3708 H   0  0  0  0  0  0  0  0  0  0  0  0
   -7.4744    2.8233   -3.7205 H   0  0  0  0  0  0  0  0  0  0  0  0
   -7.1696    1.2140   -3.0439 H   0  0  0  0  0  0  0  0  0  0  0  0
   -6.1496    3.4985   -0.0673 H   0  0  0  0  0  0  0  0  0  0  0  0
   -5.5789    4.2828   -1.6015 H   0  0  0  0  0  0  0  0  0  0  0  0
   -5.0547    1.5536   -0.3423 H   0  0  0  0  0  0  0  0  0  0  0  0
   -3.9221    2.8646   -0.7220 H   0  0  0  0  0  0  0  0  0  0  0  0
   -3.0085   -1.2334   -2.5436 H   0  0  0  0  0  0  0  0  0  0  0  0
   -1.6315   -2.4791   -0.9067 H   0  0  0  0  0  0  0  0  0  0  0  0
   -0.5772   -4.6075    0.1988 H   0  0  0  0  0  0  0  0  0  0  0  0
   -3.7881   -5.6517    0.9845 H   0  0  0  0  0  0  0  0  0  0  0  0
   -6.0886   -5.0818    1.1950 H   0  0  0  0  0  0  0  0  0  0  0  0
  1  2  1  0
  2  3  1  0
  2  4  1  0
  4  5  2  0
  5  6  1  0
  6  7  1  0
  7  8  1  0
  8  9  2  0
  9 10  1  0
 10 11  1  0
 11 12  2  0
 11 13  1  0
 13 14  1  0
 14 15  1  0
 15 16  1  0
 16 17  1  0
 17 18  1  0
 18 19  1  0
 19 20  1  0
 20 21  2  0
 20 22  1  0
 22 23  1  0
 10 24  2  0
 24 25  1  0
 25 26  2  0
 26 27  1  0
 27 28  2  0
 28 29  1  0
 29 30  1  0
 30 31  1  0
 31 32  1  0
 32 33  1  0
 33 34  1  0
 34 35  1  0
 28 36  1  0
 36 37  2  0
  6 38  2  0
 38 39  1  0
 38 40  1  0
 40 41  2  0
 41 42  1  0
 41  4  1  0
 24  7  1  0
 37 25  1  0
 35 30  1  0
  1 43  1  0
  1 44  1  0
  1 45  1  0
  2 46  1  0
  3 47  1  0
  3 48  1  0
  3 49  1  0
  5 50  1  0
 13 51  1  0
 14 52  1  0
 14 53  1  0
 15 54  1  0
 15 55  1  0
 16 56  1  0
 16 57  1  0
 17 58  1  0
 17 59  1  0
 18 60  1  0
 18 61  1  0
 19 62  1  0
 19 63  1  0
 22 64  1  0
 23 65  1  0
 26 66  1  0
 27 67  1  0
 29 68  1  0
 29 69  1  0
 31 70  1  0
 31 71  1  0
 32 72  1  0
 32 73  1  0
 34 74  1  0
 34 75  1  0
 35 76  1  0
 35 77  1  0
 36 78  1  0
 37 79  1  0
 39 80  1  0
 40 81  1  0
 42 82  1  0
M  END
$$$$
