@<TRIPOS>MOLECULE
*****
 82 85 0 0 0
SMALL
GASTEIGER

@<TRIPOS>ATOM
      1 C          -5.8545   -0.8633    1.5482 C.3     1  UNL1       -0.0585
      2 C          -5.3284   -1.6575    2.6999 C.3     1  UNL1       -0.0180
      3 C          -4.8776   -0.7974    3.8608 C.3     1  UNL1       -0.0585
      4 C          -4.2350   -2.5370    2.2229 C.ar    1  UNL1       -0.0011
      5 C          -2.9125   -2.1166    2.2114 C.ar    1  UNL1       -0.0257
      6 C          -1.8897   -2.9226    1.7740 C.ar    1  UNL1        0.1095
      7 N          -0.5276   -2.5193    1.7555 N.ar    1  UNL1       -0.2080
      8 N           0.4756   -3.0146    2.4935 N.ar    1  UNL1       -0.0594
      9 N           1.5712   -2.3560    2.1688 N.ar    1  UNL1       -0.1238
     10 C           1.2837   -1.4249    1.2126 C.ar    1  UNL1        0.1750
     11 C           2.2635   -0.5319    0.6137 C.2     1  UNL1        0.2664
     12 O           1.9790    0.2671   -0.3132 O.2     1  UNL1       -0.2684
     13 N           3.6230   -0.5349    1.0749 N.am    1  UNL1       -0.3100
     14 C           4.6447    0.3191    0.5249 C.3     1  UNL1        0.0119
     15 C           4.8563    0.0518   -0.9386 C.3     1  UNL1       -0.0374
     16 C           5.9134    0.9166   -1.5588 C.3     1  UNL1       -0.0516
     17 C           7.2800    0.7334   -0.9128 C.3     1  UNL1       -0.0526
     18 C           8.3146    1.5975   -1.5468 C.3     1  UNL1       -0.0447
     19 C           9.6674    1.4332   -0.9354 C.3     1  UNL1        0.0259
     20 C           9.6638    1.8254    0.4812 C.2     1  UNL1        0.2354
     21 O           8.6631    2.3328    1.0050 O.2     1  UNL1       -0.2737
     22 N          10.8178    1.6393    1.3243 N.am    1  UNL1       -0.1975
     23 O          10.8076    1.9982    2.6137 O.3     1  UNL1       -0.2952
     24 C          -0.0504   -1.5303    0.9528 C.ar    1  UNL1        0.1071
     25 C          -0.8429   -0.7432    0.0458 C.ar    1  UNL1        0.0028
     26 C          -0.8863    0.6331   -0.0001 C.ar    1  UNL1       -0.0522
     27 C          -1.6433    1.3593   -0.9021 C.ar    1  UNL1       -0.0567
     28 C          -2.4129    0.6884   -1.8243 C.ar    1  UNL1       -0.0333
     29 C          -3.2410    1.4505   -2.7969 C.3     1  UNL1        0.0242
     30 N          -4.5855    1.6736   -2.3855 N.3     1  UNL1       -0.2938
     31 C          -5.3672    2.4055   -3.3589 C.3     1  UNL1        0.0228
     32 C          -6.8222    2.2773   -2.9771 C.3     1  UNL1        0.0604
     33 O          -7.0543    2.8119   -1.7415 O.3     1  UNL1       -0.3772
     34 C          -5.9262    3.3168   -1.1642 C.3     1  UNL1        0.0604
     35 C          -4.7708    2.3059   -1.1194 C.3     1  UNL1        0.0228
     36 C          -2.4061   -0.7019   -1.8216 C.ar    1  UNL1       -0.0567
     37 C          -1.6402   -1.3884   -0.9091 C.ar    1  UNL1       -0.0522
     38 C          -2.2262   -4.1866    1.3383 C.ar    1  UNL1        0.1457
     39 O          -1.1957   -5.0221    0.8890 O.3     1  UNL1       -0.5045
     40 C          -3.5252   -4.6557    1.3283 C.ar    1  UNL1        0.0237
     41 C          -4.5329   -3.8099    1.7790 C.ar    1  UNL1        0.1239
     42 O          -5.8353   -4.2988    1.7617 O.3     1  UNL1       -0.5064
     43 H          -5.4562   -1.2228    0.5781 H       1  UNL1        0.0235
     44 H          -5.5838    0.2236    1.6230 H       1  UNL1        0.0235
     45 H          -6.9779   -0.9297    1.4726 H       1  UNL1        0.0235
     46 H          -6.1426   -2.3121    3.0914 H       1  UNL1        0.0345
     47 H          -4.0966   -1.4024    4.4025 H       1  UNL1        0.0235
     48 H          -5.6935   -0.6678    4.5775 H       1  UNL1        0.0235
     49 H          -4.4210    0.1451    3.5616 H       1  UNL1        0.0235
     50 H          -2.7082   -1.1267    2.5605 H       1  UNL1        0.0644
     51 H           3.8317   -1.2199    1.8626 H       1  UNL1        0.1490
     52 H           4.4081    1.4070    0.7134 H       1  UNL1        0.0462
     53 H           5.5694    0.1385    1.1105 H       1  UNL1        0.0462
     54 H           5.1284   -1.0286   -1.0264 H       1  UNL1        0.0280
     55 H           3.9291    0.1662   -1.5323 H       1  UNL1        0.0280
     56 H           6.0363    0.5737   -2.6170 H       1  UNL1        0.0266
     57 H           5.5910    1.9615   -1.5889 H       1  UNL1        0.0266
     58 H           7.5546   -0.3354   -1.1359 H       1  UNL1        0.0265
     59 H           7.1758    0.8990    0.1492 H       1  UNL1        0.0265
     60 H           8.3964    1.4081   -2.6563 H       1  UNL1        0.0270
     61 H           8.0425    2.6934   -1.4899 H       1  UNL1        0.0270
     62 H          10.4472    2.0292   -1.4914 H       1  UNL1        0.0359
     63 H           9.9594    0.3641   -1.0779 H       1  UNL1        0.0359
     64 H          11.6494    1.2085    0.8556 H       1  UNL1        0.1822
     65 H          10.6811    2.9700    2.7543 H       1  UNL1        0.2414
     66 H          -0.3016    1.1959    0.7251 H       1  UNL1        0.0624
     67 H          -1.6015    2.4625   -0.8571 H       1  UNL1        0.0621
     68 H          -3.1740    0.9562   -3.7863 H       1  UNL1        0.0476
     69 H          -2.7307    2.4436   -2.9450 H       1  UNL1        0.0476
     70 H          -5.2397    1.9339   -4.3673 H       1  UNL1        0.0449
     71 H          -5.0650    3.4583   -3.3708 H       1  UNL1        0.0449
     72 H          -7.4744    2.8233   -3.7205 H       1  UNL1        0.0572
     73 H          -7.1696    1.2140   -3.0439 H       1  UNL1        0.0572
     74 H          -6.1496    3.4985   -0.0673 H       1  UNL1        0.0572
     75 H          -5.5789    4.2828   -1.6015 H       1  UNL1        0.0572
     76 H          -5.0547    1.5536   -0.3423 H       1  UNL1        0.0449
     77 H          -3.9221    2.8646   -0.7220 H       1  UNL1        0.0449
     78 H          -3.0085   -1.2334   -2.5436 H       1  UNL1        0.0621
     79 H          -1.6315   -2.4791   -0.9067 H       1  UNL1        0.0624
     80 H          -0.5772   -4.6075    0.1988 H       1  UNL1        0.2922
     81 H          -3.7881   -5.6517    0.9845 H       1  UNL1        0.0691
     82 H          -6.0886   -5.0818    1.1950 H       1  UNL1        0.2921
@<TRIPOS>BOND
     1     1     2    1
     2     2     3    1
     3     2     4    1
     4     4     5   ar
     5     5     6   ar
     6     6     7    1
     7     7     8   ar
     8     8     9   ar
     9     9    10   ar
    10    10    11    1
    11    11    12    2
    12    11    13   am
    13    13    14    1
    14    14    15    1
    15    15    16    1
    16    16    17    1
    17    17    18    1
    18    18    19    1
    19    19    20    1
    20    20    21    2
    21    20    22   am
    22    22    23    1
    23    10    24   ar
    24    24    25    1
    25    25    26   ar
    26    26    27   ar
    27    27    28   ar
    28    28    29    1
    29    29    30    1
    30    30    31    1
    31    31    32    1
    32    32    33    1
    33    33    34    1
    34    34    35    1
    35    28    36   ar
    36    36    37   ar
    37     6    38   ar
    38    38    39    1
    39    38    40   ar
    40    40    41   ar
    41    41    42    1
    42    41     4   ar
    43    24     7   ar
    44    37    25   ar
    45    35    30    1
    46     1    43    1
    47     1    44    1
    48     1    45    1
    49     2    46    1
    50     3    47    1
    51     3    48    1
    52     3    49    1
    53     5    50    1
    54    13    51    1
    55    14    52    1
    56    14    53    1
    57    15    54    1
    58    15    55    1
    59    16    56    1
    60    16    57    1
    61    17    58    1
    62    17    59    1
    63    18    60    1
    64    18    61    1
    65    19    62    1
    66    19    63    1
    67    22    64    1
    68    23    65    1
    69    26    66    1
    70    27    67    1
    71    29    68    1
    72    29    69    1
    73    31    70    1
    74    31    71    1
    75    32    72    1
    76    32    73    1
    77    34    74    1
    78    34    75    1
    79    35    76    1
    80    35    77    1
    81    36    78    1
    82    37    79    1
    83    39    80    1
    84    40    81    1
    85    42    82    1
