@<TRIPOS>MOLECULE
*****
 33 34 0 0 0
SMALL
GASTEIGER

@<TRIPOS>ATOM
      1 O           4.5476    0.0244    1.3810 O.2     1  UNL1       -0.2490
      2 C           4.6319    0.6067    0.2905 C.2     1  UNL1        0.3248
      3 O           5.7422    1.3723    0.0234 O.3     1  UNL1       -0.4794
      4 C           3.5658    0.5136   -0.7644 C.3     1  UNL1        0.1243
      5 N           2.4745   -0.3313   -0.3134 N.ar    1  UNL1       -0.2896
      6 C           2.5637   -1.6446   -0.5932 C.ar    1  UNL1        0.0151
      7 C           1.5292   -2.4579   -0.1675 C.ar    1  UNL1        0.0194
      8 C           0.4629   -1.8904    0.5180 C.ar    1  UNL1        0.2568
      9 O          -0.4462   -2.6957    0.8764 O.2     1  UNL1       -0.2675
     10 N           0.3996   -0.5762    0.7836 N.ar    1  UNL1       -0.2565
     11 C          -0.7155    0.0012    1.4977 C.3     1  UNL1        0.0562
     12 C          -1.8227    0.4472    0.6267 C.ar    1  UNL1       -0.0210
     13 C          -1.8459    1.7317    0.1184 C.ar    1  UNL1       -0.0551
     14 C          -2.8678    2.1959   -0.7053 C.ar    1  UNL1       -0.0365
     15 C          -3.8784    1.3166   -1.0055 C.ar    1  UNL1        0.1178
     16 CL         -5.2181    1.8165   -2.0440 Cl      1  UNL1       -0.0765
     17 C          -3.8598    0.0313   -0.4997 C.ar    1  UNL1        0.2916
     18 N          -4.9454   -0.8493   -0.8473 N.pl3   1  UNL1        0.0811
     19 O          -4.6879   -2.0650   -0.8543 O.2     1  UNL1        0.0415
     20 O          -6.1920   -0.4204   -1.1563 O.co2   1  UNL1       -0.5760
     21 C          -2.8447   -0.4252    0.3168 C.ar    1  UNL1        0.0220
     22 C           1.4130    0.1954    0.3624 C.ar    1  UNL1        0.3327
     23 O           1.4597    1.4367    0.5549 O.2     1  UNL1       -0.2462
     24 H           6.6251    1.2982    0.5116 H       1  UNL1        0.2951
     25 H           3.2082    1.5475   -0.9497 H       1  UNL1        0.0609
     26 H           4.0529    0.1378   -1.6721 H       1  UNL1        0.0609
     27 H           3.4021   -2.0798   -1.1301 H       1  UNL1        0.0812
     28 H           1.5977   -3.5033   -0.3888 H       1  UNL1        0.0686
     29 H          -0.4155    0.8481    2.1255 H       1  UNL1        0.0544
     30 H          -1.1029   -0.7821    2.1850 H       1  UNL1        0.0544
     31 H          -1.0727    2.4608    0.3276 H       1  UNL1        0.0621
     32 H          -2.8791    3.1948   -1.0966 H       1  UNL1        0.0634
     33 H          -2.8812   -1.4557    0.6910 H       1  UNL1        0.0689
@<TRIPOS>UNITY_ATOM_ATTR
18 1
charge 1
20 1
charge -1
@<TRIPOS>BOND
     1     1     2    2
     2     2     3    1
     3     2     4    1
     4     4     5    1
     5     5     6   ar
     6     6     7   ar
     7     7     8   ar
     8     8     9    2
     9     8    10   ar
    10    10    11    1
    11    11    12    1
    12    12    13   ar
    13    13    14   ar
    14    14    15   ar
    15    15    16    1
    16    15    17   ar
    17    17    18    1
    18    18    19    2
    19    18    20    1
    20    17    21   ar
    21    10    22   ar
    22    22    23    2
    23    22     5   ar
    24    21    12   ar
    25     3    24    1
    26     4    25    1
    27     4    26    1
    28     6    27    1
    29     7    28    1
    30    11    29    1
    31    11    30    1
    32    13    31    1
    33    14    32    1
    34    21    33    1
