@<TRIPOS>MOLECULE
*****
 35 36 0 0 0
SMALL
GASTEIGER

@<TRIPOS>ATOM
      1 N           6.7397    0.1865    0.2940 N.3     1  UNL1       -0.2035
      2 S           5.7640   -0.3529    1.6049 S.O2    1  UNL1        0.0559
      3 O           6.0095   -1.8006    1.8864 O.2     1  UNL1       -0.1533
      4 O           6.0701    0.4165    2.8712 O.2     1  UNL1       -0.1533
      5 C           4.0754   -0.1799    1.1672 C.ar    1  UNL1        0.1051
      6 C           3.3668    0.9731    1.4264 C.ar    1  UNL1       -0.0336
      7 C           2.0296    1.1591    1.0999 C.ar    1  UNL1       -0.0386
      8 C           1.4379    0.0973    0.4863 C.ar    1  UNL1        0.0341
      9 N           0.0755    0.2096    0.1220 N.am    1  UNL1       -0.2794
     10 C          -0.7730   -0.7336   -0.5203 C.2     1  UNL1        0.2324
     11 S          -0.7108   -2.2484   -1.1226 S.2     1  UNL1        0.0061
     12 O          -2.1069   -0.6668   -0.8947 O.3     1  UNL1       -0.4735
     13 C          -2.5509    0.2889   -1.8538 C.3     1  UNL1        0.0955
     14 C          -4.0345    0.0834   -2.0199 C.3     1  UNL1        0.0072
     15 C          -4.7680    0.2792   -0.7437 C.ar    1  UNL1       -0.0372
     16 C          -5.2695    1.5743   -0.3702 C.ar    1  UNL1       -0.0210
     17 S          -6.1027    1.2548    1.2985 S.2     1  UNL1       -0.1048
     18 C          -5.6870   -0.5012    1.2787 C.ar    1  UNL1       -0.0241
     19 C          -5.0177   -0.7236    0.1415 C.ar    1  UNL1       -0.0514
     20 C           2.1070   -1.0753    0.2072 C.ar    1  UNL1       -0.0386
     21 C           3.4361   -1.2314    0.5435 C.ar    1  UNL1       -0.0336
     22 H           7.7383    0.1389    0.5328 H       1  UNL1        0.1442
     23 H           6.4082    1.1165   -0.0271 H       1  UNL1        0.1442
     24 H           3.8764    1.8127    1.9241 H       1  UNL1        0.0638
     25 H           1.4732    2.0502    1.2976 H       1  UNL1        0.0637
     26 H          -0.4939    1.0630    0.3003 H       1  UNL1        0.1555
     27 H          -2.2877    1.3059   -1.5483 H       1  UNL1        0.0700
     28 H          -2.0134    0.0407   -2.7868 H       1  UNL1        0.0700
     29 H          -4.4049    0.8074   -2.7696 H       1  UNL1        0.0346
     30 H          -4.2333   -0.9155   -2.4422 H       1  UNL1        0.0346
     31 H          -5.1111    2.4888   -1.0495 H       1  UNL1        0.0696
     32 H          -6.0063   -1.0970    2.1191 H       1  UNL1        0.0693
     33 H          -4.7046   -1.7462   -0.0006 H       1  UNL1        0.0626
     34 H           1.6743   -1.9395   -0.2775 H       1  UNL1        0.0637
     35 H           3.9943   -2.1351    0.3412 H       1  UNL1        0.0638
@<TRIPOS>BOND
     1     1     2    1
     2     2     3    2
     3     2     4    2
     4     2     5    1
     5     5     6   ar
     6     6     7   ar
     7     7     8   ar
     8     8     9    1
     9     9    10    1
    10    10    11    2
    11    10    12    1
    12    12    13    1
    13    13    14    1
    14    14    15    1
    15    15    16   ar
    16    16    17   ar
    17    17    18   ar
    18    18    19   ar
    19     8    20   ar
    20    20    21   ar
    21    21     5   ar
    22    19    15   ar
    23     1    22    1
    24     1    23    1
    25     6    24    1
    26     7    25    1
    27     9    26    1
    28    13    27    1
    29    13    28    1
    30    14    29    1
    31    14    30    1
    32    16    31    1
    33    18    32    1
    34    19    33    1
    35    20    34    1
    36    21    35    1
