@<TRIPOS>MOLECULE
*****
 63 66 0 0 0
SMALL
GASTEIGER

@<TRIPOS>ATOM
      1 C           4.0277   -0.2035   -2.9421 C.3     1  UNL1       -0.0235
      2 C           4.4207    0.0186   -1.5120 C.ar    1  UNL1        0.0280
      3 C           3.5332    0.1995   -0.4507 C.ar    1  UNL1        0.0577
      4 C           2.0805    0.1616   -0.6612 C.2     1  UNL1        0.2458
      5 O           1.4042    1.1783   -0.4028 O.2     1  UNL1       -0.2701
      6 N           1.4299   -0.9915   -1.1471 N.am    1  UNL1       -0.3113
      7 C           0.0470   -1.1744   -1.4067 C.3     1  UNL1        0.0131
      8 C          -0.8687   -0.9782   -0.2221 C.3     1  UNL1       -0.0245
      9 C          -2.2950   -1.2853   -0.6862 C.3     1  UNL1        0.0004
     10 N          -3.2862   -1.1341    0.3057 N.3     1  UNL1       -0.2993
     11 C          -3.4979    0.2519    0.6239 C.3     1  UNL1        0.0147
     12 C          -4.7182    0.7478   -0.1779 C.3     1  UNL1        0.0250
     13 N          -5.8541    0.0354    0.3436 N.pl3   1  UNL1       -0.3263
     14 C          -7.1280    0.6340    0.5044 C.ar    1  UNL1        0.0497
     15 C          -7.7700    0.6853    1.7319 C.ar    1  UNL1       -0.0391
     16 C          -9.0164    1.2610    1.8802 C.ar    1  UNL1       -0.0585
     17 C          -9.6477    1.7964    0.8076 C.ar    1  UNL1       -0.0419
     18 C          -9.0416    1.7655   -0.4286 C.ar    1  UNL1        0.0610
     19 CL         -9.8991    2.4679   -1.7672 Cl      1  UNL1       -0.0820
     20 C          -7.7866    1.1853   -0.5736 C.ar    1  UNL1        0.0802
     21 CL         -7.0348    1.1557   -2.1496 Cl      1  UNL1       -0.0801
     22 C          -5.6891   -1.3497    0.7200 C.3     1  UNL1        0.0250
     23 C          -4.4649   -1.8689    0.0002 C.3     1  UNL1        0.0147
     24 C           4.3013    0.3670    0.6489 C.ar    1  UNL1       -0.0238
     25 C           5.6239    0.2883    0.2582 C.ar    1  UNL1        0.0497
     26 C           6.8260    0.3989    1.1025 C.ar    1  UNL1       -0.0015
     27 C           7.9107    1.1507    0.7149 C.ar    1  UNL1       -0.0526
     28 C           9.0547    1.2535    1.5018 C.ar    1  UNL1       -0.0611
     29 C           9.1041    0.5772    2.7182 C.ar    1  UNL1       -0.0617
     30 C           8.0265   -0.1758    3.1153 C.ar    1  UNL1       -0.0611
     31 C           6.8939   -0.2588    2.3027 C.ar    1  UNL1       -0.0526
     32 N           5.6905    0.0733   -1.0800 N.ar    1  UNL1       -0.3464
     33 C           6.9080   -0.0739   -1.8920 C.3     1  UNL1        0.0121
     34 H           4.5304    0.6128   -3.5202 H       1  UNL1        0.0292
     35 H           4.4656   -1.1687   -3.2183 H       1  UNL1        0.0292
     36 H           2.9379   -0.1691   -3.0611 H       1  UNL1        0.0292
     37 H           2.0980   -1.8124   -1.3359 H       1  UNL1        0.1490
     38 H          -0.1506   -2.1996   -1.7776 H       1  UNL1        0.0462
     39 H          -0.3302   -0.5077   -2.2380 H       1  UNL1        0.0462
     40 H          -0.8121    0.0236    0.2163 H       1  UNL1        0.0293
     41 H          -0.6550   -1.6977    0.5907 H       1  UNL1        0.0293
     42 H          -2.2352   -2.3392   -1.0849 H       1  UNL1        0.0427
     43 H          -2.4537   -0.6356   -1.5927 H       1  UNL1        0.0427
     44 H          -3.6861    0.3942    1.7106 H       1  UNL1        0.0442
     45 H          -2.6558    0.8721    0.2631 H       1  UNL1        0.0442
     46 H          -4.5328    0.3989   -1.2322 H       1  UNL1        0.0476
     47 H          -4.7859    1.8337   -0.1496 H       1  UNL1        0.0476
     48 H          -7.2307    0.2416    2.5734 H       1  UNL1        0.0636
     49 H          -9.4833    1.2726    2.8674 H       1  UNL1        0.0619
     50 H         -10.6269    2.2378    0.9597 H       1  UNL1        0.0633
     51 H          -5.6444   -1.5039    1.8076 H       1  UNL1        0.0476
     52 H          -6.5683   -1.8845    0.3147 H       1  UNL1        0.0476
     53 H          -4.3039   -2.9587    0.2073 H       1  UNL1        0.0442
     54 H          -4.6593   -1.8030   -1.0814 H       1  UNL1        0.0442
     55 H           3.9221    0.5332    1.6509 H       1  UNL1        0.0646
     56 H           7.9257    1.6931   -0.2184 H       1  UNL1        0.0624
     57 H           9.9171    1.8373    1.2096 H       1  UNL1        0.0618
     58 H           9.9945    0.6405    3.3581 H       1  UNL1        0.0618
     59 H           8.0610   -0.7112    4.0760 H       1  UNL1        0.0618
     60 H           6.0646   -0.8555    2.6384 H       1  UNL1        0.0624
     61 H           6.7444   -0.8738   -2.6698 H       1  UNL1        0.0456
     62 H           7.7010   -0.4728   -1.2332 H       1  UNL1        0.0456
     63 H           7.1671    0.8430   -2.4359 H       1  UNL1        0.0456
@<TRIPOS>BOND
     1     1     2    1
     2     2     3   ar
     3     3     4    1
     4     4     5    2
     5     4     6   am
     6     6     7    1
     7     7     8    1
     8     8     9    1
     9     9    10    1
    10    10    11    1
    11    11    12    1
    12    12    13    1
    13    13    14    1
    14    14    15   ar
    15    15    16   ar
    16    16    17   ar
    17    17    18   ar
    18    18    19    1
    19    18    20   ar
    20    20    21    1
    21    13    22    1
    22    22    23    1
    23     3    24   ar
    24    24    25   ar
    25    25    26    1
    26    26    27   ar
    27    27    28   ar
    28    28    29   ar
    29    29    30   ar
    30    30    31   ar
    31    25    32   ar
    32    32    33    1
    33    32     2   ar
    34    23    10    1
    35    31    26   ar
    36    20    14   ar
    37     1    34    1
    38     1    35    1
    39     1    36    1
    40     6    37    1
    41     7    38    1
    42     7    39    1
    43     8    40    1
    44     8    41    1
    45     9    42    1
    46     9    43    1
    47    11    44    1
    48    11    45    1
    49    12    46    1
    50    12    47    1
    51    15    48    1
    52    16    49    1
    53    17    50    1
    54    22    51    1
    55    22    52    1
    56    23    53    1
    57    23    54    1
    58    24    55    1
    59    27    56    1
    60    28    57    1
    61    29    58    1
    62    30    59    1
    63    31    60    1
    64    33    61    1
    65    33    62    1
    66    33    63    1
