@<TRIPOS>MOLECULE
*****
 33 34 0 0 0
SMALL
GASTEIGER

@<TRIPOS>ATOM
      1 C          -4.7810    2.0722   -0.1573 C.3     1  UNL1       -0.0397
      2 C          -3.7539    0.9889   -0.0846 C.ar    1  UNL1       -0.0503
      3 C          -3.5440    0.1572   -1.1584 C.ar    1  UNL1       -0.0570
      4 C          -2.6071   -0.8473   -1.1213 C.ar    1  UNL1       -0.0351
      5 C          -1.8673   -1.0007    0.0488 C.ar    1  UNL1        0.1053
      6 S          -0.6739   -2.2904    0.0777 S.O2    1  UNL1        0.0587
      7 O          -1.1473   -3.4439   -0.7570 O.2     1  UNL1       -0.1530
      8 O          -0.5065   -2.7151    1.5147 O.2     1  UNL1       -0.1530
      9 N           0.8558   -1.7353   -0.4792 N.3     1  UNL1       -0.1856
     10 C           1.3215   -0.6839    0.4044 C.3     1  UNL1        0.0425
     11 C           2.6365   -0.1505   -0.0071 C.ar    1  UNL1       -0.0319
     12 C           3.7943   -0.7281    0.4934 C.ar    1  UNL1       -0.0573
     13 C           5.0398   -0.2598    0.1340 C.ar    1  UNL1       -0.0615
     14 C           5.1913    0.7997   -0.7358 C.ar    1  UNL1       -0.0617
     15 C           4.0422    1.3762   -1.2352 C.ar    1  UNL1       -0.0615
     16 C           2.7890    0.9079   -0.8760 C.ar    1  UNL1       -0.0573
     17 C          -2.0429   -0.1988    1.1361 C.ar    1  UNL1       -0.0351
     18 C          -2.9961    0.7997    1.0567 C.ar    1  UNL1       -0.0570
     19 H          -4.7571    2.5460   -1.1466 H       1  UNL1        0.0278
     20 H          -4.5982    2.8228    0.6224 H       1  UNL1        0.0278
     21 H          -5.7873    1.6325    0.0256 H       1  UNL1        0.0278
     22 H          -4.1455    0.3175   -2.0462 H       1  UNL1        0.0621
     23 H          -2.4579   -1.4907   -1.9775 H       1  UNL1        0.0637
     24 H           0.8623   -1.4702   -1.4681 H       1  UNL1        0.1484
     25 H           0.5418    0.1297    0.3564 H       1  UNL1        0.0490
     26 H           1.3297   -1.0442    1.4357 H       1  UNL1        0.0490
     27 H           3.6971   -1.5653    1.1811 H       1  UNL1        0.0621
     28 H           5.9302   -0.7465    0.5539 H       1  UNL1        0.0618
     29 H           6.1789    1.1630   -1.0142 H       1  UNL1        0.0618
     30 H           4.1487    2.2162   -1.9250 H       1  UNL1        0.0618
     31 H           1.8939    1.3625   -1.2695 H       1  UNL1        0.0621
     32 H          -1.4450   -0.3617    2.0122 H       1  UNL1        0.0637
     33 H          -3.1419    1.4402    1.9144 H       1  UNL1        0.0621
@<TRIPOS>BOND
     1     1     2    1
     2     2     3   ar
     3     3     4   ar
     4     4     5   ar
     5     5     6    1
     6     6     7    2
     7     6     8    2
     8     6     9    1
     9     9    10    1
    10    10    11    1
    11    11    12   ar
    12    12    13   ar
    13    13    14   ar
    14    14    15   ar
    15    15    16   ar
    16     5    17   ar
    17    17    18   ar
    18    18     2   ar
    19    16    11   ar
    20     1    19    1
    21     1    20    1
    22     1    21    1
    23     3    22    1
    24     4    23    1
    25     9    24    1
    26    10    25    1
    27    10    26    1
    28    12    27    1
    29    13    28    1
    30    14    29    1
    31    15    30    1
    32    16    31    1
    33    17    32    1
    34    18    33    1
