
     RDKit          3D

 33 34  0  0  0  0  0  0  0  0999 V2000
   -4.7810    2.0722   -0.1573 C   0  0  0  0  0  0  0  0  0  0  0  0
   -3.7539    0.9889   -0.0846 C   0  0  0  0  0  0  0  0  0  0  0  0
   -3.5440    0.1572   -1.1584 C   0  0  0  0  0  0  0  0  0  0  0  0
   -2.6071   -0.8473   -1.1213 C   0  0  0  0  0  0  0  0  0  0  0  0
   -1.8673   -1.0007    0.0488 C   0  0  0  0  0  0  0  0  0  0  0  0
   -0.6739   -2.2904    0.0777 S   0  0  0  0  0  6  0  0  0  0  0  0
   -1.1473   -3.4439   -0.7570 O   0  0  0  0  0  0  0  0  0  0  0  0
   -0.5065   -2.7151    1.5147 O   0  0  0  0  0  0  0  0  0  0  0  0
    0.8558   -1.7353   -0.4792 N   0  0  0  0  0  0  0  0  0  0  0  0
    1.3215   -0.6839    0.4044 C   0  0  0  0  0  0  0  0  0  0  0  0
    2.6365   -0.1505   -0.0071 C   0  0  0  0  0  0  0  0  0  0  0  0
    3.7943   -0.7281    0.4934 C   0  0  0  0  0  0  0  0  0  0  0  0
    5.0398   -0.2598    0.1340 C   0  0  0  0  0  0  0  0  0  0  0  0
    5.1913    0.7997   -0.7358 C   0  0  0  0  0  0  0  0  0  0  0  0
    4.0422    1.3762   -1.2352 C   0  0  0  0  0  0  0  0  0  0  0  0
    2.7890    0.9079   -0.8760 C   0  0  0  0  0  0  0  0  0  0  0  0
   -2.0429   -0.1988    1.1361 C   0  0  0  0  0  0  0  0  0  0  0  0
   -2.9961    0.7997    1.0567 C   0  0  0  0  0  0  0  0  0  0  0  0
   -4.7571    2.5460   -1.1466 H   0  0  0  0  0  0  0  0  0  0  0  0
   -4.5982    2.8228    0.6224 H   0  0  0  0  0  0  0  0  0  0  0  0
   -5.7873    1.6325    0.0256 H   0  0  0  0  0  0  0  0  0  0  0  0
   -4.1455    0.3175   -2.0462 H   0  0  0  0  0  0  0  0  0  0  0  0
   -2.4579   -1.4907   -1.9775 H   0  0  0  0  0  0  0  0  0  0  0  0
    0.8623   -1.4702   -1.4681 H   0  0  0  0  0  0  0  0  0  0  0  0
    0.5418    0.1297    0.3564 H   0  0  0  0  0  0  0  0  0  0  0  0
    1.3297   -1.0442    1.4357 H   0  0  0  0  0  0  0  0  0  0  0  0
    3.6971   -1.5653    1.1811 H   0  0  0  0  0  0  0  0  0  0  0  0
    5.9302   -0.7465    0.5539 H   0  0  0  0  0  0  0  0  0  0  0  0
    6.1789    1.1630   -1.0142 H   0  0  0  0  0  0  0  0  0  0  0  0
    4.1487    2.2162   -1.9250 H   0  0  0  0  0  0  0  0  0  0  0  0
    1.8939    1.3625   -1.2695 H   0  0  0  0  0  0  0  0  0  0  0  0
   -1.4450   -0.3617    2.0122 H   0  0  0  0  0  0  0  0  0  0  0  0
   -3.1419    1.4402    1.9144 H   0  0  0  0  0  0  0  0  0  0  0  0
  1  2  1  0
  2  3  2  0
  3  4  1  0
  4  5  2  0
  5  6  1  0
  6  7  2  0
  6  8  2  0
  6  9  1  0
  9 10  1  0
 10 11  1  0
 11 12  2  0
 12 13  1  0
 13 14  2  0
 14 15  1  0
 15 16  2  0
  5 17  1  0
 17 18  2  0
 18  2  1  0
 16 11  1  0
  1 19  1  0
  1 20  1  0
  1 21  1  0
  3 22  1  0
  4 23  1  0
  9 24  1  0
 10 25  1  0
 10 26  1  0
 12 27  1  0
 13 28  1  0
 14 29  1  0
 15 30  1  0
 16 31  1  0
 17 32  1  0
 18 33  1  0
M  END
$$$$
