@<TRIPOS>MOLECULE
*****
 35 36 0 0 0
SMALL
GASTEIGER

@<TRIPOS>ATOM
      1 C           7.0693   -0.2327   -0.6279 C.3     1  UNL1        0.0788
      2 O           6.0629   -1.0221   -0.0609 O.3     1  UNL1       -0.4951
      3 C           4.7176   -0.7300   -0.0666 C.ar    1  UNL1        0.1201
      4 C           4.1723    0.3926   -0.6378 C.ar    1  UNL1       -0.0194
      5 C           2.8103    0.6103   -0.5994 C.ar    1  UNL1       -0.0506
      6 C           1.9342   -0.2713    0.0042 C.ar    1  UNL1       -0.0177
      7 C           0.4912   -0.0129    0.0295 C.ar    1  UNL1       -0.0178
      8 C          -0.4365   -1.0317    0.0204 C.ar    1  UNL1       -0.0535
      9 C          -1.7963   -0.7118    0.0461 C.ar    1  UNL1       -0.0540
     10 C          -2.2492    0.5822    0.0804 C.ar    1  UNL1       -0.0248
     11 C          -3.6445    0.9617    0.1080 C.2     1  UNL1       -0.0496
     12 C          -4.6281    0.0891    0.1023 C.2     1  UNL1        0.0027
     13 C          -6.0438    0.5282    0.1315 C.2     1  UNL1        0.2593
     14 O          -6.3132    1.7543    0.1626 O.2     1  UNL1       -0.2687
     15 N          -7.1055   -0.3984    0.1253 N.am    1  UNL1       -0.1940
     16 O          -8.4125   -0.0227    0.1515 O.3     1  UNL1       -0.2949
     17 C          -1.3035    1.6164    0.0896 C.ar    1  UNL1       -0.0540
     18 C           0.0103    1.2796    0.0642 C.ar    1  UNL1       -0.0535
     19 C           2.4825   -1.3996    0.5783 C.ar    1  UNL1       -0.0506
     20 C           3.8519   -1.6168    0.5387 C.ar    1  UNL1       -0.0194
     21 H           7.2371   -0.4429   -1.7045 H       1  UNL1        0.0660
     22 H           8.0252   -0.4719   -0.0844 H       1  UNL1        0.0660
     23 H           6.8991    0.8505   -0.5300 H       1  UNL1        0.0660
     24 H           4.8307    1.0990   -1.1162 H       1  UNL1        0.0654
     25 H           2.3595    1.5042   -1.0525 H       1  UNL1        0.0625
     26 H          -0.0993   -2.0582   -0.0062 H       1  UNL1        0.0624
     27 H          -2.4711   -1.5395    0.0375 H       1  UNL1        0.0624
     28 H          -3.9244    2.0037    0.1351 H       1  UNL1        0.0625
     29 H          -4.3766   -0.9567    0.0756 H       1  UNL1        0.0670
     30 H          -6.9146   -1.4138    0.1001 H       1  UNL1        0.1825
     31 H          -8.4157    0.9483    0.4277 H       1  UNL1        0.2414
     32 H          -1.6239    2.6567    0.1164 H       1  UNL1        0.0624
     33 H           0.7436    2.0791    0.0716 H       1  UNL1        0.0624
     34 H           1.8028   -2.1029    1.0576 H       1  UNL1        0.0625
     35 H           4.2580   -2.5201    1.0021 H       1  UNL1        0.0654
@<TRIPOS>BOND
     1     1     2    1
     2     2     3    1
     3     3     4   ar
     4     4     5   ar
     5     5     6   ar
     6     6     7    1
     7     7     8   ar
     8     8     9   ar
     9     9    10   ar
    10    10    11    1
    11    11    12    2
    12    12    13    1
    13    13    14    2
    14    13    15   am
    15    15    16    1
    16    10    17   ar
    17    17    18   ar
    18     6    19   ar
    19    19    20   ar
    20    20     3   ar
    21    18     7   ar
    22     1    21    1
    23     1    22    1
    24     1    23    1
    25     4    24    1
    26     5    25    1
    27     8    26    1
    28     9    27    1
    29    11    28    1
    30    12    29    1
    31    15    30    1
    32    16    31    1
    33    17    32    1
    34    18    33    1
    35    19    34    1
    36    20    35    1
