
     RDKit          3D

 49 51  0  0  0  0  0  0  0  0999 V2000
    5.3876    3.0320   -0.5508 C   0  0  0  0  0  0  0  0  0  0  0  0
    4.3418    3.2892    0.4154 C   0  0  0  0  0  0  0  0  0  0  0  0
    3.4836    3.4871    1.2277 C   0  0  0  0  0  0  0  0  0  0  0  0
    2.4086    3.7087    2.2344 C   0  0  0  0  0  0  0  0  0  0  0  0
    2.4599    2.5915    3.2018 N   0  0  0  0  0  0  0  0  0  0  0  0
    3.6790    2.7363    4.0072 C   0  0  0  0  0  0  0  0  0  0  0  0
    2.5142    1.3462    2.4680 C   0  0  0  0  0  0  0  0  0  0  0  0
    1.3387    0.9473    1.7320 C   0  0  0  0  0  0  0  0  0  0  0  0
    0.9372    1.3768    0.5024 C   0  0  0  0  0  0  0  0  0  0  0  0
   -0.2043    0.7148    0.1071 C   0  0  0  0  0  0  0  0  0  0  0  0
   -1.0177    0.7112   -0.9815 C   0  0  0  0  0  0  0  0  0  0  0  0
   -2.1389   -0.1213   -1.1165 C   0  0  0  0  0  0  0  0  0  0  0  0
   -2.8392   -0.0034   -2.2494 O   0  0  0  0  0  0  0  0  0  0  0  0
   -3.9037   -0.5209   -2.8856 C   0  0  0  0  0  0  0  0  0  0  0  0
   -3.7676   -1.9831   -3.2536 C   0  0  0  0  0  0  0  0  0  0  0  0
   -3.0633   -2.2858   -4.4241 C   0  0  0  0  0  0  0  0  0  0  0  0
   -2.9598   -3.6378   -4.7654 C   0  0  0  0  0  0  0  0  0  0  0  0
   -3.5430   -4.5838   -3.9523 C   0  0  0  0  0  0  0  0  0  0  0  0
   -4.2324   -4.2841   -2.8063 C   0  0  0  0  0  0  0  0  0  0  0  0
   -4.3437   -2.9256   -2.4521 C   0  0  0  0  0  0  0  0  0  0  0  0
   -2.4039   -0.9698   -0.0684 C   0  0  0  0  0  0  0  0  0  0  0  0
   -1.6062   -0.9856    1.0377 C   0  0  0  0  0  0  0  0  0  0  0  0
   -0.5114   -0.1653    1.1560 C   0  0  0  0  0  0  0  0  0  0  0  0
    0.4351   -0.0009    2.1199 N   0  0  0  0  0  0  0  0  0  0  0  0
    0.4970   -0.7001    3.3548 C   0  0  0  0  0  0  0  0  0  0  0  0
    6.2189    3.7614   -0.3886 H   0  0  0  0  0  0  0  0  0  0  0  0
    5.0426    3.2370   -1.5996 H   0  0  0  0  0  0  0  0  0  0  0  0
    5.7096    1.9837   -0.5093 H   0  0  0  0  0  0  0  0  0  0  0  0
    1.4162    3.6841    1.7701 H   0  0  0  0  0  0  0  0  0  0  0  0
    2.5637    4.6360    2.7591 H   0  0  0  0  0  0  0  0  0  0  0  0
    4.1827    3.6917    3.7800 H   0  0  0  0  0  0  0  0  0  0  0  0
    4.3212    1.8643    3.8156 H   0  0  0  0  0  0  0  0  0  0  0  0
    3.3342    2.6743    5.0715 H   0  0  0  0  0  0  0  0  0  0  0  0
    3.4443    1.4070    1.8297 H   0  0  0  0  0  0  0  0  0  0  0  0
    2.7686    0.5525    3.2207 H   0  0  0  0  0  0  0  0  0  0  0  0
    1.4128    2.1408   -0.1434 H   0  0  0  0  0  0  0  0  0  0  0  0
   -0.7925    1.3955   -1.8061 H   0  0  0  0  0  0  0  0  0  0  0  0
   -4.0412   -0.0099   -3.8763 H   0  0  0  0  0  0  0  0  0  0  0  0
   -4.8882   -0.3974   -2.3663 H   0  0  0  0  0  0  0  0  0  0  0  0
   -2.6345   -1.5100   -5.0131 H   0  0  0  0  0  0  0  0  0  0  0  0
   -2.4321   -3.8993   -5.6476 H   0  0  0  0  0  0  0  0  0  0  0  0
   -3.4707   -5.6489   -4.2050 H   0  0  0  0  0  0  0  0  0  0  0  0
   -4.6877   -5.0335   -2.1713 H   0  0  0  0  0  0  0  0  0  0  0  0
   -4.8899   -2.6688   -1.5596 H   0  0  0  0  0  0  0  0  0  0  0  0
   -3.2849   -1.6337   -0.1491 H   0  0  0  0  0  0  0  0  0  0  0  0
   -1.8244   -1.6570    1.8578 H   0  0  0  0  0  0  0  0  0  0  0  0
    1.0761   -1.6427    3.3243 H   0  0  0  0  0  0  0  0  0  0  0  0
   -0.4982   -0.9473    3.8074 H   0  0  0  0  0  0  0  0  0  0  0  0
    1.0057   -0.0682    4.1407 H   0  0  0  0  0  0  0  0  0  0  0  0
  1  2  1  0
  2  3  3  0
  3  4  1  0
  4  5  1  0
  5  6  1  0
  5  7  1  0
  7  8  1  0
  8  9  2  0
  9 10  1  0
 10 11  2  0
 11 12  1  0
 12 13  1  0
 13 14  1  0
 14 15  1  0
 15 16  2  0
 16 17  1  0
 17 18  2  0
 18 19  1  0
 19 20  2  0
 12 21  2  0
 21 22  1  0
 22 23  2  0
 23 24  1  0
 24 25  1  0
 24  8  1  0
 23 10  1  0
 20 15  1  0
  1 26  1  0
  1 27  1  0
  1 28  1  0
  4 29  1  0
  4 30  1  0
  6 31  1  0
  6 32  1  0
  6 33  1  0
  7 34  1  0
  7 35  1  0
  9 36  1  0
 11 37  1  0
 14 38  1  0
 14 39  1  0
 16 40  1  0
 17 41  1  0
 18 42  1  0
 19 43  1  0
 20 44  1  0
 21 45  1  0
 22 46  1  0
 25 47  1  0
 25 48  1  0
 25 49  1  0
M  END
$$$$
