@<TRIPOS>MOLECULE
*****
 49 51 0 0 0
SMALL
GASTEIGER

@<TRIPOS>ATOM
      1 C           5.3876    3.0320   -0.5508 C.3     1  UNL1       -0.0025
      2 C           4.3418    3.2892    0.4154 C.1     1  UNL1       -0.1043
      3 C           3.4836    3.4871    1.2277 C.1     1  UNL1       -0.0870
      4 C           2.4086    3.7087    2.2344 C.3     1  UNL1        0.0609
      5 N           2.4599    2.5915    3.2018 N.3     1  UNL1       -0.2890
      6 C           3.6790    2.7363    4.0072 C.3     1  UNL1       -0.0115
      7 C           2.5142    1.3462    2.4680 C.3     1  UNL1        0.0399
      8 C           1.3387    0.9473    1.7320 C.ar    1  UNL1        0.0336
      9 C           0.9372    1.3768    0.5024 C.ar    1  UNL1       -0.0318
     10 C          -0.2043    0.7148    0.1071 C.ar    1  UNL1        0.0036
     11 C          -1.0177    0.7112   -0.9815 C.ar    1  UNL1       -0.0108
     12 C          -2.1389   -0.1213   -1.1165 C.ar    1  UNL1        0.1217
     13 O          -2.8392   -0.0034   -2.2494 O.3     1  UNL1       -0.4874
     14 C          -3.9037   -0.5209   -2.8856 C.3     1  UNL1        0.1146
     15 C          -3.7676   -1.9831   -3.2536 C.ar    1  UNL1       -0.0104
     16 C          -3.0633   -2.2858   -4.4241 C.ar    1  UNL1       -0.0554
     17 C          -2.9598   -3.6378   -4.7654 C.ar    1  UNL1       -0.0614
     18 C          -3.5430   -4.5838   -3.9523 C.ar    1  UNL1       -0.0617
     19 C          -4.2324   -4.2841   -2.8063 C.ar    1  UNL1       -0.0614
     20 C          -4.3437   -2.9256   -2.4521 C.ar    1  UNL1       -0.0554
     21 C          -2.4039   -0.9698   -0.0684 C.ar    1  UNL1       -0.0179
     22 C          -1.6062   -0.9856    1.0377 C.ar    1  UNL1       -0.0342
     23 C          -0.5114   -0.1653    1.1560 C.ar    1  UNL1        0.0493
     24 N           0.4351   -0.0009    2.1199 N.ar    1  UNL1       -0.3457
     25 C           0.4970   -0.7001    3.3548 C.3     1  UNL1        0.0122
     26 H           6.2189    3.7614   -0.3886 H       1  UNL1        0.0362
     27 H           5.0426    3.2370   -1.5996 H       1  UNL1        0.0362
     28 H           5.7096    1.9837   -0.5093 H       1  UNL1        0.0362
     29 H           1.4162    3.6841    1.7701 H       1  UNL1        0.0563
     30 H           2.5637    4.6360    2.7591 H       1  UNL1        0.0563
     31 H           4.1827    3.6917    3.7800 H       1  UNL1        0.0391
     32 H           4.3212    1.8643    3.8156 H       1  UNL1        0.0391
     33 H           3.3342    2.6743    5.0715 H       1  UNL1        0.0391
     34 H           3.4443    1.4070    1.8297 H       1  UNL1        0.0490
     35 H           2.7686    0.5525    3.2207 H       1  UNL1        0.0490
     36 H           1.4128    2.1408   -0.1434 H       1  UNL1        0.0642
     37 H          -0.7925    1.3955   -1.8061 H       1  UNL1        0.0661
     38 H          -4.0412   -0.0099   -3.8763 H       1  UNL1        0.0748
     39 H          -4.8882   -0.3974   -2.3663 H       1  UNL1        0.0748
     40 H          -2.6345   -1.5100   -5.0131 H       1  UNL1        0.0621
     41 H          -2.4321   -3.8993   -5.6476 H       1  UNL1        0.0618
     42 H          -3.4707   -5.6489   -4.2050 H       1  UNL1        0.0618
     43 H          -4.6877   -5.0335   -2.1713 H       1  UNL1        0.0618
     44 H          -4.8899   -2.6688   -1.5596 H       1  UNL1        0.0621
     45 H          -3.2849   -1.6337   -0.1491 H       1  UNL1        0.0655
     46 H          -1.8244   -1.6570    1.8578 H       1  UNL1        0.0639
     47 H           1.0761   -1.6427    3.3243 H       1  UNL1        0.0456
     48 H          -0.4982   -0.9473    3.8074 H       1  UNL1        0.0456
     49 H           1.0057   -0.0682    4.1407 H       1  UNL1        0.0456
@<TRIPOS>BOND
     1     1     2    1
     2     2     3    3
     3     3     4    1
     4     4     5    1
     5     5     6    1
     6     5     7    1
     7     7     8    1
     8     8     9   ar
     9     9    10   ar
    10    10    11   ar
    11    11    12   ar
    12    12    13    1
    13    13    14    1
    14    14    15    1
    15    15    16   ar
    16    16    17   ar
    17    17    18   ar
    18    18    19   ar
    19    19    20   ar
    20    12    21   ar
    21    21    22   ar
    22    22    23   ar
    23    23    24   ar
    24    24    25    1
    25    24     8   ar
    26    23    10   ar
    27    20    15   ar
    28     1    26    1
    29     1    27    1
    30     1    28    1
    31     4    29    1
    32     4    30    1
    33     6    31    1
    34     6    32    1
    35     6    33    1
    36     7    34    1
    37     7    35    1
    38     9    36    1
    39    11    37    1
    40    14    38    1
    41    14    39    1
    42    16    40    1
    43    17    41    1
    44    18    42    1
    45    19    43    1
    46    20    44    1
    47    21    45    1
    48    22    46    1
    49    25    47    1
    50    25    48    1
    51    25    49    1
