
     RDKit          3D

 73 75  0  0  0  0  0  0  0  0999 V2000
   -6.5392   -4.3438    1.2483 C   0  0  0  0  0  0  0  0  0  0  0  0
   -6.0486   -4.0251    2.6281 C   0  0  0  0  0  0  0  0  0  0  0  0
   -5.5368   -2.6765    2.7506 N   0  0  0  0  0  0  0  0  0  0  0  0
   -4.4440   -2.2028    1.9814 C   0  0  0  0  0  0  0  0  0  0  0  0
   -3.8664   -2.9538    1.1287 O   0  0  0  0  0  0  0  0  0  0  0  0
   -3.9578   -0.8695    2.1437 N   0  0  0  0  0  0  0  0  0  0  0  0
   -2.8722   -0.3403    1.4167 C   0  0  0  0  0  0  0  0  0  0  0  0
   -1.6177   -0.6469    1.8607 N   0  0  0  0  0  0  0  0  0  0  0  0
   -0.4979   -0.1945    1.2921 C   0  0  0  0  0  0  0  0  0  0  0  0
    0.7298   -0.5163    1.7581 N   0  0  0  0  0  0  0  0  0  0  0  0
    1.8383   -0.0170    1.1299 C   0  0  0  0  0  0  0  0  0  0  0  0
    3.1367   -0.3219    1.5995 N   0  0  0  0  0  0  0  0  0  0  0  0
    4.2827    0.2014    0.8556 C   0  0  0  0  0  0  0  0  0  0  0  0
    4.3086   -0.4768   -0.4840 C   0  0  0  0  0  0  0  0  0  0  0  0
    5.4356    0.0435   -1.3286 C   0  0  0  0  0  0  0  0  0  0  0  0
    6.7507   -0.2105   -0.6785 C   0  0  0  0  0  0  0  0  0  0  0  0
    7.8489    0.2705   -1.4847 N   0  0  0  0  0  0  0  0  0  0  0  0
    7.9590    1.6583   -1.6255 C   0  0  0  0  0  0  0  0  0  0  0  0
    8.3300    2.4317   -0.3986 C   0  0  0  0  0  0  0  0  0  0  0  0
    9.0284   -0.5051   -1.3687 C   0  0  0  0  0  0  0  0  0  0  0  0
    9.6609   -0.3939   -0.0110 C   0  0  0  0  0  0  0  0  0  0  0  0
    1.7007    0.7839    0.0618 N   0  0  0  0  0  0  0  0  0  0  0  0
    0.5131    1.1295   -0.4346 C   0  0  0  0  0  0  0  0  0  0  0  0
   -0.6239    0.6271    0.1969 C   0  0  0  0  0  0  0  0  0  0  0  0
   -1.8514    0.9799   -0.3076 C   0  0  0  0  0  0  0  0  0  0  0  0
   -2.9875    0.4727    0.3338 C   0  0  0  0  0  0  0  0  0  0  0  0
   -4.2673    0.8908   -0.2245 C   0  0  0  0  0  0  0  0  0  0  0  0
   -4.4916    2.2655   -0.4353 C   0  0  0  0  0  0  0  0  0  0  0  0
   -5.6538    2.7432   -0.9768 C   0  0  0  0  0  0  0  0  0  0  0  0
   -5.8380    4.0989   -1.1688 O   0  0  0  0  0  0  0  0  0  0  0  0
   -7.0474    4.5531   -1.7303 C   0  0  0  0  0  0  0  0  0  0  0  0
   -6.6352    1.8506   -1.3266 C   0  0  0  0  0  0  0  0  0  0  0  0
   -6.4869    0.4897   -1.1501 C   0  0  0  0  0  0  0  0  0  0  0  0
   -7.4925   -0.4058   -1.5104 O   0  0  0  0  0  0  0  0  0  0  0  0
   -7.2558   -1.7801   -1.2908 C   0  0  0  0  0  0  0  0  0  0  0  0
   -5.2820    0.0480   -0.5934 C   0  0  0  0  0  0  0  0  0  0  0  0
   -5.8159   -4.0379    0.4725 H   0  0  0  0  0  0  0  0  0  0  0  0
   -7.5303   -3.9010    1.0220 H   0  0  0  0  0  0  0  0  0  0  0  0
   -6.6219   -5.4596    1.1677 H   0  0  0  0  0  0  0  0  0  0  0  0
   -5.1989   -4.7143    2.8540 H   0  0  0  0  0  0  0  0  0  0  0  0
   -6.8355   -4.1959    3.3980 H   0  0  0  0  0  0  0  0  0  0  0  0
   -5.9962   -2.0208    3.4404 H   0  0  0  0  0  0  0  0  0  0  0  0
   -4.4817   -0.2909    2.8693 H   0  0  0  0  0  0  0  0  0  0  0  0
    3.2682   -0.9124    2.4655 H   0  0  0  0  0  0  0  0  0  0  0  0
    4.1887    1.3057    0.7572 H   0  0  0  0  0  0  0  0  0  0  0  0
    5.2019   -0.0437    1.4303 H   0  0  0  0  0  0  0  0  0  0  0  0
    4.5188   -1.5730   -0.2450 H   0  0  0  0  0  0  0  0  0  0  0  0
    3.3346   -0.4539   -1.0154 H   0  0  0  0  0  0  0  0  0  0  0  0
    5.4379   -0.5302   -2.2855 H   0  0  0  0  0  0  0  0  0  0  0  0
    5.2373    1.1215   -1.5141 H   0  0  0  0  0  0  0  0  0  0  0  0
    6.8788   -1.3258   -0.6198 H   0  0  0  0  0  0  0  0  0  0  0  0
    6.8356    0.1373    0.3759 H   0  0  0  0  0  0  0  0  0  0  0  0
    6.9785    2.0516   -2.0306 H   0  0  0  0  0  0  0  0  0  0  0  0
    8.7007    1.8936   -2.4159 H   0  0  0  0  0  0  0  0  0  0  0  0
    9.4261    2.3933   -0.1924 H   0  0  0  0  0  0  0  0  0  0  0  0
    8.1104    3.5165   -0.5698 H   0  0  0  0  0  0  0  0  0  0  0  0
    7.8032    2.1399    0.5033 H   0  0  0  0  0  0  0  0  0  0  0  0
    8.7482   -1.5694   -1.5822 H   0  0  0  0  0  0  0  0  0  0  0  0
    9.7785   -0.1894   -2.1335 H   0  0  0  0  0  0  0  0  0  0  0  0
    9.9113   -1.4190    0.3341 H   0  0  0  0  0  0  0  0  0  0  0  0
   10.5872    0.2410   -0.0807 H   0  0  0  0  0  0  0  0  0  0  0  0
    9.0208    0.0904    0.7414 H   0  0  0  0  0  0  0  0  0  0  0  0
    0.3720    1.7629   -1.2808 H   0  0  0  0  0  0  0  0  0  0  0  0
   -1.9892    1.6165   -1.1584 H   0  0  0  0  0  0  0  0  0  0  0  0
   -3.7011    2.9624   -0.1504 H   0  0  0  0  0  0  0  0  0  0  0  0
   -7.0022    5.6715   -1.7767 H   0  0  0  0  0  0  0  0  0  0  0  0
   -7.8995    4.2358   -1.1172 H   0  0  0  0  0  0  0  0  0  0  0  0
   -7.0796    4.1523   -2.7699 H   0  0  0  0  0  0  0  0  0  0  0  0
   -7.5856    2.1708   -1.7638 H   0  0  0  0  0  0  0  0  0  0  0  0
   -6.5025   -2.1978   -1.9744 H   0  0  0  0  0  0  0  0  0  0  0  0
   -8.2124   -2.3515   -1.3699 H   0  0  0  0  0  0  0  0  0  0  0  0
   -6.9534   -1.9203   -0.2131 H   0  0  0  0  0  0  0  0  0  0  0  0
   -5.1620   -1.0140   -0.4684 H   0  0  0  0  0  0  0  0  0  0  0  0
  1  2  1  0
  2  3  1  0
  3  4  1  0
  4  5  2  0
  4  6  1  0
  6  7  1  0
  7  8  2  0
  8  9  1  0
  9 10  2  0
 10 11  1  0
 11 12  1  0
 12 13  1  0
 13 14  1  0
 14 15  1  0
 15 16  1  0
 16 17  1  0
 17 18  1  0
 18 19  1  0
 17 20  1  0
 20 21  1  0
 11 22  2  0
 22 23  1  0
 23 24  2  0
 24 25  1  0
 25 26  2  0
 26 27  1  0
 27 28  2  0
 28 29  1  0
 29 30  1  0
 30 31  1  0
 29 32  2  0
 32 33  1  0
 33 34  1  0
 34 35  1  0
 33 36  2  0
 26  7  1  0
 36 27  1  0
 24  9  1  0
  1 37  1  0
  1 38  1  0
  1 39  1  0
  2 40  1  0
  2 41  1  0
  3 42  1  0
  6 43  1  0
 12 44  1  0
 13 45  1  0
 13 46  1  0
 14 47  1  0
 14 48  1  0
 15 49  1  0
 15 50  1  0
 16 51  1  0
 16 52  1  0
 18 53  1  0
 18 54  1  0
 19 55  1  0
 19 56  1  0
 19 57  1  0
 20 58  1  0
 20 59  1  0
 21 60  1  0
 21 61  1  0
 21 62  1  0
 23 63  1  0
 25 64  1  0
 28 65  1  0
 31 66  1  0
 31 67  1  0
 31 68  1  0
 32 69  1  0
 35 70  1  0
 35 71  1  0
 35 72  1  0
 36 73  1  0
M  END
$$$$
