@<TRIPOS>MOLECULE
*****
 73 75 0 0 0
SMALL
GASTEIGER

@<TRIPOS>ATOM
      1 C          -6.5392   -4.3438    1.2483 C.3     1  UNL1       -0.0495
      2 C          -6.0486   -4.0251    2.6281 C.3     1  UNL1        0.0102
      3 N          -5.5368   -2.6765    2.7506 N.am    1  UNL1       -0.2994
      4 C          -4.4440   -2.2028    1.9814 C.2     1  UNL1        0.3050
      5 O          -3.8664   -2.9538    1.1287 O.2     1  UNL1       -0.2525
      6 N          -3.9578   -0.8695    2.1437 N.am    1  UNL1       -0.2536
      7 C          -2.8722   -0.3403    1.4167 C.ar    1  UNL1        0.1363
      8 N          -1.6177   -0.6469    1.8607 N.ar    1  UNL1       -0.2116
      9 C          -0.4979   -0.1945    1.2921 C.ar    1  UNL1        0.1668
     10 N           0.7298   -0.5163    1.7581 N.ar    1  UNL1       -0.1947
     11 C           1.8383   -0.0170    1.1299 C.ar    1  UNL1        0.2171
     12 N           3.1367   -0.3219    1.5995 N.pl3   1  UNL1       -0.3134
     13 C           4.2827    0.2014    0.8556 C.3     1  UNL1        0.0118
     14 C           4.3086   -0.4768   -0.4840 C.3     1  UNL1       -0.0362
     15 C           5.4356    0.0435   -1.3286 C.3     1  UNL1       -0.0388
     16 C           6.7507   -0.2105   -0.6785 C.3     1  UNL1       -0.0011
     17 N           7.8489    0.2705   -1.4847 N.3     1  UNL1       -0.3028
     18 C           7.9590    1.6583   -1.6255 C.3     1  UNL1       -0.0040
     19 C           8.3300    2.4317   -0.3986 C.3     1  UNL1       -0.0524
     20 C           9.0284   -0.5051   -1.3687 C.3     1  UNL1       -0.0040
     21 C           9.6609   -0.3939   -0.0110 C.3     1  UNL1       -0.0524
     22 N           1.7007    0.7839    0.0618 N.ar    1  UNL1       -0.2222
     23 C           0.5131    1.1295   -0.4346 C.ar    1  UNL1        0.0419
     24 C          -0.6239    0.6271    0.1969 C.ar    1  UNL1        0.0381
     25 C          -1.8514    0.9799   -0.3076 C.ar    1  UNL1       -0.0386
     26 C          -2.9875    0.4727    0.3338 C.ar    1  UNL1        0.0233
     27 C          -4.2673    0.8908   -0.2245 C.ar    1  UNL1       -0.0077
     28 C          -4.4916    2.2655   -0.4353 C.ar    1  UNL1       -0.0119
     29 C          -5.6538    2.7432   -0.9768 C.ar    1  UNL1        0.1241
     30 O          -5.8380    4.0989   -1.1688 O.3     1  UNL1       -0.4950
     31 C          -7.0474    4.5531   -1.7303 C.3     1  UNL1        0.0788
     32 C          -6.6352    1.8506   -1.3266 C.ar    1  UNL1        0.0218
     33 C          -6.4869    0.4897   -1.1501 C.ar    1  UNL1        0.1241
     34 O          -7.4925   -0.4058   -1.5104 O.3     1  UNL1       -0.4950
     35 C          -7.2558   -1.7801   -1.2908 C.3     1  UNL1        0.0788
     36 C          -5.2820    0.0480   -0.5934 C.ar    1  UNL1       -0.0119
     37 H          -5.8159   -4.0379    0.4725 H       1  UNL1        0.0245
     38 H          -7.5303   -3.9010    1.0220 H       1  UNL1        0.0245
     39 H          -6.6219   -5.4596    1.1677 H       1  UNL1        0.0245
     40 H          -5.1989   -4.7143    2.8540 H       1  UNL1        0.0460
     41 H          -6.8355   -4.1959    3.3980 H       1  UNL1        0.0460
     42 H          -5.9962   -2.0208    3.4404 H       1  UNL1        0.1502
     43 H          -4.4817   -0.2909    2.8693 H       1  UNL1        0.1578
     44 H           3.2682   -0.9124    2.4655 H       1  UNL1        0.1489
     45 H           4.1887    1.3057    0.7572 H       1  UNL1        0.0462
     46 H           5.2019   -0.0437    1.4303 H       1  UNL1        0.0462
     47 H           4.5188   -1.5730   -0.2450 H       1  UNL1        0.0281
     48 H           3.3346   -0.4539   -1.0154 H       1  UNL1        0.0281
     49 H           5.4379   -0.5302   -2.2855 H       1  UNL1        0.0278
     50 H           5.2373    1.1215   -1.5141 H       1  UNL1        0.0278
     51 H           6.8788   -1.3258   -0.6198 H       1  UNL1        0.0426
     52 H           6.8356    0.1373    0.3759 H       1  UNL1        0.0426
     53 H           6.9785    2.0516   -2.0306 H       1  UNL1        0.0424
     54 H           8.7007    1.8936   -2.4159 H       1  UNL1        0.0424
     55 H           9.4261    2.3933   -0.1924 H       1  UNL1        0.0242
     56 H           8.1104    3.5165   -0.5698 H       1  UNL1        0.0242
     57 H           7.8032    2.1399    0.5033 H       1  UNL1        0.0242
     58 H           8.7482   -1.5694   -1.5822 H       1  UNL1        0.0424
     59 H           9.7785   -0.1894   -2.1335 H       1  UNL1        0.0424
     60 H           9.9113   -1.4190    0.3341 H       1  UNL1        0.0242
     61 H          10.5872    0.2410   -0.0807 H       1  UNL1        0.0242
     62 H           9.0208    0.0904    0.7414 H       1  UNL1        0.0242
     63 H           0.3720    1.7629   -1.2808 H       1  UNL1        0.0838
     64 H          -1.9892    1.6165   -1.1584 H       1  UNL1        0.0632
     65 H          -3.7011    2.9624   -0.1504 H       1  UNL1        0.0660
     66 H          -7.0022    5.6715   -1.7767 H       1  UNL1        0.0660
     67 H          -7.8995    4.2358   -1.1172 H       1  UNL1        0.0660
     68 H          -7.0796    4.1523   -2.7699 H       1  UNL1        0.0660
     69 H          -7.5856    2.1708   -1.7638 H       1  UNL1        0.0691
     70 H          -6.5025   -2.1978   -1.9744 H       1  UNL1        0.0660
     71 H          -8.2124   -2.3515   -1.3699 H       1  UNL1        0.0660
     72 H          -6.9534   -1.9203   -0.2131 H       1  UNL1        0.0660
     73 H          -5.1620   -1.0140   -0.4684 H       1  UNL1        0.0660
@<TRIPOS>BOND
     1     1     2    1
     2     2     3    1
     3     3     4   am
     4     4     5    2
     5     4     6   am
     6     6     7    1
     7     7     8   ar
     8     8     9   ar
     9     9    10   ar
    10    10    11   ar
    11    11    12    1
    12    12    13    1
    13    13    14    1
    14    14    15    1
    15    15    16    1
    16    16    17    1
    17    17    18    1
    18    18    19    1
    19    17    20    1
    20    20    21    1
    21    11    22   ar
    22    22    23   ar
    23    23    24   ar
    24    24    25   ar
    25    25    26   ar
    26    26    27    1
    27    27    28   ar
    28    28    29   ar
    29    29    30    1
    30    30    31    1
    31    29    32   ar
    32    32    33   ar
    33    33    34    1
    34    34    35    1
    35    33    36   ar
    36    26     7   ar
    37    36    27   ar
    38    24     9   ar
    39     1    37    1
    40     1    38    1
    41     1    39    1
    42     2    40    1
    43     2    41    1
    44     3    42    1
    45     6    43    1
    46    12    44    1
    47    13    45    1
    48    13    46    1
    49    14    47    1
    50    14    48    1
    51    15    49    1
    52    15    50    1
    53    16    51    1
    54    16    52    1
    55    18    53    1
    56    18    54    1
    57    19    55    1
    58    19    56    1
    59    19    57    1
    60    20    58    1
    61    20    59    1
    62    21    60    1
    63    21    61    1
    64    21    62    1
    65    23    63    1
    66    25    64    1
    67    28    65    1
    68    31    66    1
    69    31    67    1
    70    31    68    1
    71    32    69    1
    72    35    70    1
    73    35    71    1
    74    35    72    1
    75    36    73    1
