
     RDKit          3D

 62 67  0  0  0  0  0  0  0  0999 V2000
   -6.6751    0.4351    0.3353 C   0  0  0  0  0  0  0  0  0  0  0  0
   -6.5921   -0.3854   -0.9378 C   0  0  0  0  0  0  0  0  0  0  0  0
   -7.9901   -0.8924   -1.2367 C   0  0  0  0  0  0  0  0  0  0  0  0
   -5.7098   -1.5981   -0.7607 C   0  0  0  0  0  0  0  0  0  0  0  0
   -4.3761   -1.0677   -0.4389 N   0  0  0  0  0  0  0  0  0  0  0  0
   -3.7849   -1.4827    0.7802 C   0  0  0  0  0  0  0  0  0  0  0  0
   -4.3528   -2.2739    1.5724 O   0  0  0  0  0  0  0  0  0  0  0  0
   -2.4492   -0.9729    1.1446 C   0  0  0  0  0  0  0  0  0  0  0  0
   -2.2509    0.3663    1.4186 C   0  0  0  0  0  0  0  0  0  0  0  0
   -1.0235    0.8900    1.7638 C   0  0  0  0  0  0  0  0  0  0  0  0
    0.0921    0.0558    1.8492 C   0  0  0  0  0  0  0  0  0  0  0  0
    1.3618    0.5808    2.1976 N   0  0  0  0  0  0  0  0  0  0  0  0
    2.4815    0.4780    1.3108 C   0  0  0  0  0  0  0  0  0  0  0  0
    2.3514   -0.1678    0.1427 N   0  0  0  0  0  0  0  0  0  0  0  0
    3.3793   -0.2705   -0.7205 C   0  0  0  0  0  0  0  0  0  0  0  0
    3.2819   -1.0081   -2.0131 C   0  0  0  0  0  0  0  0  0  0  0  0
    2.5226   -2.2823   -2.1014 C   0  0  0  0  0  0  0  0  0  0  0  0
    4.0135   -2.3001   -2.1568 C   0  0  0  0  0  0  0  0  0  0  0  0
    4.6117    0.3090   -0.3927 C   0  0  0  0  0  0  0  0  0  0  0  0
    4.7839    0.9588    0.7581 N   0  0  0  0  0  0  0  0  0  0  0  0
    5.8467    1.5845    1.2954 C   0  0  0  0  0  0  0  0  0  0  0  0
    7.1983    1.7672    0.7898 C   0  0  0  0  0  0  0  0  0  0  0  0
    7.8429    1.3981   -0.3405 C   0  0  0  0  0  0  0  0  0  0  0  0
    9.1430    1.8351   -0.3156 N   0  0  0  0  0  0  0  0  0  0  0  0
    9.3292    2.4792    0.8223 N   0  0  0  0  0  0  0  0  0  0  0  0
    8.1800    2.4600    1.5170 C   0  0  0  0  0  0  0  0  0  0  0  0
    5.3717    2.0587    2.5281 C   0  0  0  0  0  0  0  0  0  0  0  0
    4.0916    1.7209    2.6948 N   0  0  0  0  0  0  0  0  0  0  0  0
    3.7094    1.0332    1.5968 C   0  0  0  0  0  0  0  0  0  0  0  0
   -0.1060   -1.2693    1.5778 C   0  0  0  0  0  0  0  0  0  0  0  0
    0.9823   -2.1023    1.6554 F   0  0  0  0  0  0  0  0  0  0  0  0
   -1.3505   -1.8005    1.2278 C   0  0  0  0  0  0  0  0  0  0  0  0
   -3.8046   -0.1714   -1.3879 C   0  0  0  0  0  0  0  0  0  0  0  0
   -4.7878    0.9242   -1.7806 C   0  0  0  0  0  0  0  0  0  0  0  0
   -6.0965    0.4041   -2.0207 N   0  0  0  0  0  0  0  0  0  0  0  0
   -5.6959    0.9035    0.5236 H   0  0  0  0  0  0  0  0  0  0  0  0
   -7.3914    1.2409    0.1377 H   0  0  0  0  0  0  0  0  0  0  0  0
   -6.9435   -0.2157    1.1929 H   0  0  0  0  0  0  0  0  0  0  0  0
   -8.1048   -1.2265   -2.2754 H   0  0  0  0  0  0  0  0  0  0  0  0
   -8.7306   -0.1340   -0.9233 H   0  0  0  0  0  0  0  0  0  0  0  0
   -8.1366   -1.7724   -0.5760 H   0  0  0  0  0  0  0  0  0  0  0  0
   -6.0653   -2.2883    0.0305 H   0  0  0  0  0  0  0  0  0  0  0  0
   -5.6243   -2.0709   -1.7623 H   0  0  0  0  0  0  0  0  0  0  0  0
   -3.0890    1.0362    1.3591 H   0  0  0  0  0  0  0  0  0  0  0  0
   -0.8482    1.9431    1.9840 H   0  0  0  0  0  0  0  0  0  0  0  0
    1.5039    1.0611    3.1230 H   0  0  0  0  0  0  0  0  0  0  0  0
    3.3229   -0.3343   -2.8992 H   0  0  0  0  0  0  0  0  0  0  0  0
    2.1035   -2.7249   -1.1723 H   0  0  0  0  0  0  0  0  0  0  0  0
    1.9011   -2.4966   -2.9941 H   0  0  0  0  0  0  0  0  0  0  0  0
    4.6026   -2.7288   -1.3153 H   0  0  0  0  0  0  0  0  0  0  0  0
    4.4684   -2.5079   -3.1405 H   0  0  0  0  0  0  0  0  0  0  0  0
    5.4307    0.2270   -1.0829 H   0  0  0  0  0  0  0  0  0  0  0  0
    7.4939    0.8530   -1.1829 H   0  0  0  0  0  0  0  0  0  0  0  0
   10.2540    2.9011    1.0578 H   0  0  0  0  0  0  0  0  0  0  0  0
    8.0622    2.9205    2.4885 H   0  0  0  0  0  0  0  0  0  0  0  0
    6.0066    2.6204    3.2193 H   0  0  0  0  0  0  0  0  0  0  0  0
   -1.4552   -2.8617    1.0208 H   0  0  0  0  0  0  0  0  0  0  0  0
   -2.9256    0.3243   -0.9395 H   0  0  0  0  0  0  0  0  0  0  0  0
   -3.4452   -0.7181   -2.2904 H   0  0  0  0  0  0  0  0  0  0  0  0
   -4.7614    1.7712   -1.0658 H   0  0  0  0  0  0  0  0  0  0  0  0
   -4.4214    1.3467   -2.7606 H   0  0  0  0  0  0  0  0  0  0  0  0
   -6.7363    1.2372   -2.1311 H   0  0  0  0  0  0  0  0  0  0  0  0
  1  2  1  0
  2  3  1  0
  2  4  1  0
  4  5  1  0
  5  6  1  0
  6  7  2  0
  6  8  1  0
  8  9  2  0
  9 10  1  0
 10 11  2  0
 11 12  1  0
 12 13  1  0
 13 14  2  0
 14 15  1  0
 15 16  1  0
 16 17  1  0
 17 18  1  0
 15 19  2  0
 19 20  1  0
 20 21  1  0
 21 22  1  0
 22 23  1  0
 23 24  2  0
 24 25  1  0
 25 26  1  0
 21 27  2  0
 27 28  1  0
 28 29  2  0
 11 30  1  0
 30 31  1  0
 30 32  2  0
  5 33  1  0
 33 34  1  0
 34 35  1  0
 35  2  1  0
 32  8  1  0
 29 13  1  0
 18 16  1  0
 29 20  1  0
 26 22  2  0
  1 36  1  0
  1 37  1  0
  1 38  1  0
  3 39  1  0
  3 40  1  0
  3 41  1  0
  4 42  1  0
  4 43  1  0
  9 44  1  0
 10 45  1  0
 12 46  1  0
 16 47  1  0
 17 48  1  0
 17 49  1  0
 18 50  1  0
 18 51  1  0
 19 52  1  0
 23 53  1  0
 25 54  1  0
 26 55  1  0
 27 56  1  0
 32 57  1  0
 33 58  1  0
 33 59  1  0
 34 60  1  0
 34 61  1  0
 35 62  1  0
M  END
$$$$
