@<TRIPOS>MOLECULE
*****
 62 67 0 0 0
SMALL
GASTEIGER

@<TRIPOS>ATOM
      1 C          -6.6751    0.4351    0.3353 C.3     1  UNL1       -0.0456
      2 C          -6.5921   -0.3854   -0.9378 C.3     1  UNL1        0.0293
      3 C          -7.9901   -0.8924   -1.2367 C.3     1  UNL1       -0.0456
      4 C          -5.7098   -1.5981   -0.7607 C.3     1  UNL1        0.0328
      5 N          -4.3761   -1.0677   -0.4389 N.am    1  UNL1       -0.2946
      6 C          -3.7849   -1.4827    0.7802 C.2     1  UNL1        0.2468
      7 O          -4.3528   -2.2739    1.5724 O.2     1  UNL1       -0.2700
      8 C          -2.4492   -0.9729    1.1446 C.ar    1  UNL1        0.0397
      9 C          -2.2509    0.3663    1.4186 C.ar    1  UNL1       -0.0477
     10 C          -1.0235    0.8900    1.7638 C.ar    1  UNL1       -0.0370
     11 C           0.0921    0.0558    1.8492 C.ar    1  UNL1        0.0682
     12 N           1.3618    0.5808    2.1976 N.pl3   1  UNL1       -0.2943
     13 C           2.4815    0.4780    1.3108 C.ar    1  UNL1        0.1666
     14 N           2.3514   -0.1678    0.1427 N.ar    1  UNL1       -0.2314
     15 C           3.3793   -0.2705   -0.7205 C.ar    1  UNL1        0.0631
     16 C           3.2819   -1.0081   -2.0131 C.3     1  UNL1        0.0029
     17 C           2.5226   -2.2823   -2.1014 C.3     1  UNL1       -0.0441
     18 C           4.0135   -2.3001   -2.1568 C.3     1  UNL1       -0.0441
     19 C           4.6117    0.3090   -0.3927 C.ar    1  UNL1        0.0335
     20 N           4.7839    0.9588    0.7581 N.ar    1  UNL1       -0.2948
     21 C           5.8467    1.5845    1.2954 C.ar    1  UNL1        0.0762
     22 C           7.1983    1.7672    0.7898 C.ar    1  UNL1        0.0375
     23 C           7.8429    1.3981   -0.3405 C.ar    1  UNL1        0.0583
     24 N           9.1430    1.8351   -0.3156 N.ar    1  UNL1       -0.1817
     25 N           9.3292    2.4792    0.8223 N.ar    1  UNL1       -0.2841
     26 C           8.1800    2.4600    1.5170 C.ar    1  UNL1        0.0315
     27 C           5.3717    2.0587    2.5281 C.ar    1  UNL1        0.0545
     28 N           4.0916    1.7209    2.6948 N.ar    1  UNL1       -0.2323
     29 C           3.7094    1.0332    1.5968 C.ar    1  UNL1        0.1788
     30 C          -0.1060   -1.2693    1.5778 C.ar    1  UNL1        0.1452
     31 F           0.9823   -2.1023    1.6554 F       1  UNL1       -0.2035
     32 C          -1.3505   -1.8005    1.2278 C.ar    1  UNL1       -0.0125
     33 C          -3.8046   -0.1714   -1.3879 C.3     1  UNL1        0.0276
     34 C          -4.7878    0.9242   -1.7806 C.3     1  UNL1        0.0123
     35 N          -6.0965    0.4041   -2.0207 N.3     1  UNL1       -0.3081
     36 H          -5.6959    0.9035    0.5236 H       1  UNL1        0.0248
     37 H          -7.3914    1.2409    0.1377 H       1  UNL1        0.0248
     38 H          -6.9435   -0.2157    1.1929 H       1  UNL1        0.0248
     39 H          -8.1048   -1.2265   -2.2754 H       1  UNL1        0.0248
     40 H          -8.7306   -0.1340   -0.9233 H       1  UNL1        0.0248
     41 H          -8.1366   -1.7724   -0.5760 H       1  UNL1        0.0248
     42 H          -6.0653   -2.2883    0.0305 H       1  UNL1        0.0483
     43 H          -5.6243   -2.0709   -1.7623 H       1  UNL1        0.0483
     44 H          -3.0890    1.0362    1.3591 H       1  UNL1        0.0626
     45 H          -0.8482    1.9431    1.9840 H       1  UNL1        0.0637
     46 H           1.5039    1.0611    3.1230 H       1  UNL1        0.1537
     47 H           3.3229   -0.3343   -2.8992 H       1  UNL1        0.0364
     48 H           2.1035   -2.7249   -1.1723 H       1  UNL1        0.0272
     49 H           1.9011   -2.4966   -2.9941 H       1  UNL1        0.0272
     50 H           4.6026   -2.7288   -1.3153 H       1  UNL1        0.0272
     51 H           4.4684   -2.5079   -3.1405 H       1  UNL1        0.0272
     52 H           5.4307    0.2270   -1.0829 H       1  UNL1        0.0832
     53 H           7.4939    0.8530   -1.1829 H       1  UNL1        0.0854
     54 H          10.2540    2.9011    1.0578 H       1  UNL1        0.1882
     55 H           8.0622    2.9205    2.4885 H       1  UNL1        0.0830
     56 H           6.0066    2.6204    3.2193 H       1  UNL1        0.0852
     57 H          -1.4552   -2.8617    1.0208 H       1  UNL1        0.0654
     58 H          -2.9256    0.3243   -0.9395 H       1  UNL1        0.0477
     59 H          -3.4452   -0.7181   -2.2904 H       1  UNL1        0.0477
     60 H          -4.7614    1.7712   -1.0658 H       1  UNL1        0.0440
     61 H          -4.4214    1.3467   -2.7606 H       1  UNL1        0.0440
     62 H          -6.7363    1.2372   -2.1311 H       1  UNL1        0.1225
@<TRIPOS>BOND
     1     1     2    1
     2     2     3    1
     3     2     4    1
     4     4     5    1
     5     5     6   am
     6     6     7    2
     7     6     8    1
     8     8     9   ar
     9     9    10   ar
    10    10    11   ar
    11    11    12    1
    12    12    13    1
    13    13    14   ar
    14    14    15   ar
    15    15    16    1
    16    16    17    1
    17    17    18    1
    18    15    19   ar
    19    19    20   ar
    20    20    21   ar
    21    21    22    1
    22    22    23   ar
    23    23    24   ar
    24    24    25   ar
    25    25    26   ar
    26    21    27   ar
    27    27    28   ar
    28    28    29   ar
    29    11    30   ar
    30    30    31    1
    31    30    32   ar
    32     5    33    1
    33    33    34    1
    34    34    35    1
    35    35     2    1
    36    32     8   ar
    37    29    13   ar
    38    18    16    1
    39    29    20   ar
    40    26    22   ar
    41     1    36    1
    42     1    37    1
    43     1    38    1
    44     3    39    1
    45     3    40    1
    46     3    41    1
    47     4    42    1
    48     4    43    1
    49     9    44    1
    50    10    45    1
    51    12    46    1
    52    16    47    1
    53    17    48    1
    54    17    49    1
    55    18    50    1
    56    18    51    1
    57    19    52    1
    58    23    53    1
    59    25    54    1
    60    26    55    1
    61    27    56    1
    62    32    57    1
    63    33    58    1
    64    33    59    1
    65    34    60    1
    66    34    61    1
    67    35    62    1
