
     RDKit          3D

 22 22  0  0  0  0  0  0  0  0999 V2000
   -0.8059   -2.1762    0.8906 C   0  0  0  0  0  0  0  0  0  0  0  0
   -0.1329   -1.0151    0.2877 N   0  0  0  0  0  0  0  0  0  0  0  0
    1.0881   -1.2479   -0.0329 N   0  0  0  0  0  0  0  0  0  0  0  0
    1.8415   -0.4265   -0.5499 C   0  0  0  0  0  0  0  0  0  0  0  0
    0.8773    1.0697   -0.7309 S   0  0  0  0  0  0  0  0  0  0  0  0
   -0.6494    0.2586    0.0345 C   0  0  0  0  0  0  0  0  0  0  0  0
   -1.9726    0.4232    0.4108 N   0  0  0  0  0  0  0  0  0  0  0  0
   -2.5106    1.7028    0.1627 C   0  0  0  0  0  0  0  0  0  0  0  0
   -3.9723    1.6272   -0.1840 C   0  0  0  0  0  0  0  0  0  0  0  0
   -1.9988    2.8524    0.1805 O   0  0  0  0  0  0  0  0  0  0  0  0
    3.5075   -0.3509   -1.1172 S   0  0  0  0  0  0  0  0  0  0  0  0
    4.5396    0.1608    0.1653 N   0  0  0  0  0  0  0  0  0  0  0  0
    3.6550    0.4918   -2.3310 O   0  0  0  0  0  0  0  0  0  0  0  0
    3.8760   -1.7657   -1.4384 O   0  0  0  0  0  0  0  0  0  0  0  0
   -0.8225   -3.0510    0.2046 H   0  0  0  0  0  0  0  0  0  0  0  0
   -1.8354   -1.9067    1.1731 H   0  0  0  0  0  0  0  0  0  0  0  0
   -0.3042   -2.5104    1.8151 H   0  0  0  0  0  0  0  0  0  0  0  0
   -4.4950    1.4398    0.7697 H   0  0  0  0  0  0  0  0  0  0  0  0
   -4.1862    0.7786   -0.8586 H   0  0  0  0  0  0  0  0  0  0  0  0
   -4.3105    2.5621   -0.6871 H   0  0  0  0  0  0  0  0  0  0  0  0
    4.0785   -0.1259    1.0619 H   0  0  0  0  0  0  0  0  0  0  0  0
    4.5328    1.2095    0.1692 H   0  0  0  0  0  0  0  0  0  0  0  0
  1  2  1  0
  2  3  1  0
  3  4  2  0
  4  5  1  0
  5  6  1  0
  6  7  2  3
  7  8  1  0
  8  9  1  0
  8 10  2  0
  4 11  1  0
 11 12  1  0
 11 13  2  0
 11 14  2  0
  6  2  1  0
  1 15  1  0
  1 16  1  0
  1 17  1  0
  9 18  1  0
  9 19  1  0
  9 20  1  0
 12 21  1  0
 12 22  1  0
M  END
$$$$
