@<TRIPOS>MOLECULE
*****
 52 57 0 0 0
SMALL
GASTEIGER

@<TRIPOS>ATOM
      1 C           3.2495   -0.4708   -4.0491 C.3     1  UNL1       -0.0361
      2 C           2.9239   -0.3987   -2.6032 C.ar    1  UNL1       -0.0041
      3 C           1.5975   -0.3933   -2.2099 C.ar    1  UNL1       -0.0324
      4 C           1.2856   -0.3265   -0.8674 C.ar    1  UNL1        0.0545
      5 N          -0.0811   -0.3267   -0.4714 N.am    1  UNL1       -0.2529
      6 C          -0.7546   -1.5405   -0.1708 C.2     1  UNL1        0.2553
      7 O          -0.2453   -2.7108   -0.1998 O.2     1  UNL1       -0.2695
      8 C          -2.1298   -1.2194    0.1785 C.ar    1  UNL1        0.0834
      9 C          -3.3734   -1.6801    0.5699 C.ar    1  UNL1        0.0785
     10 C          -3.7298   -3.1027    0.7801 C.3     1  UNL1        0.0039
     11 C          -4.6218   -3.8096   -0.2102 C.3     1  UNL1       -0.0441
     12 C          -3.1993   -4.1871   -0.0814 C.3     1  UNL1       -0.0441
     13 N          -4.1949   -0.6123    0.7016 N.ar    1  UNL1       -0.1751
     14 N          -3.5540    0.4932    0.4189 N.ar    1  UNL1       -0.2682
     15 C          -4.0961    1.8350    0.4463 C.3     1  UNL1        0.0306
     16 C          -2.2743    0.1407    0.0926 C.ar    1  UNL1        0.0765
     17 C          -1.0050    0.7381   -0.3131 C.3     1  UNL1        0.0988
     18 C          -0.5651    1.8183    0.6081 C.ar    1  UNL1       -0.0207
     19 C          -0.0239    1.5984    1.8497 C.ar    1  UNL1       -0.0550
     20 C           0.3782    2.6078    2.6906 C.ar    1  UNL1       -0.0431
     21 C           0.2308    3.9075    2.2665 C.ar    1  UNL1        0.0410
     22 CL          0.7200    5.2703    3.2804 Cl      1  UNL1       -0.0835
     23 C          -0.3081    4.1715    1.0272 C.ar    1  UNL1       -0.0431
     24 C          -0.6998    3.1310    0.2118 C.ar    1  UNL1       -0.0550
     25 C           2.3082   -0.2666    0.0575 C.ar    1  UNL1        0.0345
     26 N           3.6076   -0.2719   -0.3296 N.ar    1  UNL1       -0.2798
     27 C           4.7424   -0.2221    0.3723 C.ar    1  UNL1        0.2041
     28 C           4.9409   -0.1427    1.8462 C.3     1  UNL1        0.2980
     29 F           5.7654   -1.1309    2.3087 F       1  UNL1       -0.2005
     30 F           5.5603    1.0883    2.0838 F       1  UNL1       -0.2005
     31 N           5.7630   -0.2565   -0.5076 N.ar    1  UNL1       -0.1278
     32 N           5.2565   -0.3270   -1.7436 N.ar    1  UNL1       -0.1290
     33 C           3.9147   -0.3366   -1.6340 C.ar    1  UNL1        0.1642
     34 H           4.1814    0.1097   -4.2145 H       1  UNL1        0.0279
     35 H           2.4538   -0.0410   -4.6784 H       1  UNL1        0.0279
     36 H           3.4119   -1.5285   -4.3111 H       1  UNL1        0.0279
     37 H           0.8015   -0.4393   -2.9151 H       1  UNL1        0.0640
     38 H          -3.9168   -3.4204    1.8482 H       1  UNL1        0.0365
     39 H          -5.4292   -4.4639    0.1776 H       1  UNL1        0.0272
     40 H          -4.9737   -3.1773   -1.0648 H       1  UNL1        0.0272
     41 H          -2.5203   -3.9244   -0.8895 H       1  UNL1        0.0272
     42 H          -2.9738   -5.1860    0.3769 H       1  UNL1        0.0272
     43 H          -3.7016    2.4175    1.3129 H       1  UNL1        0.0473
     44 H          -5.2014    1.7715    0.4726 H       1  UNL1        0.0473
     45 H          -3.8299    2.3910   -0.4757 H       1  UNL1        0.0473
     46 H          -1.1072    1.2127   -1.3419 H       1  UNL1        0.0620
     47 H           0.0903    0.5699    2.1832 H       1  UNL1        0.0621
     48 H           0.8079    2.4080    3.6781 H       1  UNL1        0.0632
     49 H          -0.4154    5.2190    0.7113 H       1  UNL1        0.0632
     50 H          -1.1265    3.3571   -0.7708 H       1  UNL1        0.0621
     51 H           2.0849   -0.2170    1.1193 H       1  UNL1        0.0833
     52 H           3.9758   -0.1258    2.3821 H       1  UNL1        0.1105
@<TRIPOS>BOND
     1     1     2    1
     2     2     3   ar
     3     3     4   ar
     4     4     5    1
     5     5     6   am
     6     6     7    2
     7     6     8    1
     8     8     9   ar
     9     9    10    1
    10    10    11    1
    11    11    12    1
    12     9    13   ar
    13    13    14   ar
    14    14    15    1
    15    14    16   ar
    16    16    17    1
    17    17    18    1
    18    18    19   ar
    19    19    20   ar
    20    20    21   ar
    21    21    22    1
    22    21    23   ar
    23    23    24   ar
    24     4    25   ar
    25    25    26   ar
    26    26    27   ar
    27    27    28    1
    28    28    29    1
    29    28    30    1
    30    27    31   ar
    31    31    32   ar
    32    32    33   ar
    33    33     2   ar
    34    17     5    1
    35    24    18   ar
    36    33    26   ar
    37    16     8   ar
    38    12    10    1
    39     1    34    1
    40     1    35    1
    41     1    36    1
    42     3    37    1
    43    10    38    1
    44    11    39    1
    45    11    40    1
    46    12    41    1
    47    12    42    1
    48    15    43    1
    49    15    44    1
    50    15    45    1
    51    17    46    1
    52    19    47    1
    53    20    48    1
    54    23    49    1
    55    24    50    1
    56    25    51    1
    57    28    52    1
