
     RDKit          3D

 31 32  0  0  0  0  0  0  0  0999 V2000
    3.8655   -0.9182    0.8879 C   0  0  0  0  0  0  0  0  0  0  0  0
    3.3352   -0.5732   -0.4668 C   0  0  0  0  0  0  0  0  0  0  0  0
    3.9135    0.6934   -1.0245 C   0  0  0  0  0  0  0  0  0  0  0  0
    3.7126    1.8703   -0.3336 O   0  0  0  0  0  0  0  0  0  0  0  0
    4.5745    0.6757   -2.1126 O   0  0  0  0  0  0  0  0  0  0  0  0
    1.8656   -0.3768   -0.3917 C   0  0  0  0  0  0  0  0  0  0  0  0
    1.2757    0.5914    0.3936 C   0  0  0  0  0  0  0  0  0  0  0  0
   -0.0818    0.8111    0.4955 C   0  0  0  0  0  0  0  0  0  0  0  0
   -0.6040    1.7769    1.2830 F   0  0  0  0  0  0  0  0  0  0  0  0
   -0.9251    0.0075   -0.2393 C   0  0  0  0  0  0  0  0  0  0  0  0
   -0.3749   -0.9827   -1.0457 C   0  0  0  0  0  0  0  0  0  0  0  0
    0.9935   -1.1702   -1.1196 C   0  0  0  0  0  0  0  0  0  0  0  0
   -2.3670    0.2082   -0.1589 C   0  0  0  0  0  0  0  0  0  0  0  0
   -3.0439   -1.0052   -0.0245 C   0  0  0  0  0  0  0  0  0  0  0  0
   -4.4233   -1.0594    0.0707 C   0  0  0  0  0  0  0  0  0  0  0  0
   -5.1134    0.1479    0.0271 C   0  0  0  0  0  0  0  0  0  0  0  0
   -4.4441    1.3538   -0.1062 C   0  0  0  0  0  0  0  0  0  0  0  0
   -3.0705    1.3922   -0.1998 C   0  0  0  0  0  0  0  0  0  0  0  0
    4.8426   -0.4198    1.0865 H   0  0  0  0  0  0  0  0  0  0  0  0
    3.1115   -0.6896    1.6742 H   0  0  0  0  0  0  0  0  0  0  0  0
    4.0516   -2.0168    0.9883 H   0  0  0  0  0  0  0  0  0  0  0  0
    3.5308   -1.4194   -1.1727 H   0  0  0  0  0  0  0  0  0  0  0  0
    4.2827    2.7022   -0.5228 H   0  0  0  0  0  0  0  0  0  0  0  0
    1.8896    1.2502    0.9913 H   0  0  0  0  0  0  0  0  0  0  0  0
   -1.0211   -1.6159   -1.6237 H   0  0  0  0  0  0  0  0  0  0  0  0
    1.3739   -1.9558   -1.7629 H   0  0  0  0  0  0  0  0  0  0  0  0
   -2.5786   -1.9944    0.0178 H   0  0  0  0  0  0  0  0  0  0  0  0
   -4.9745   -1.9776    0.1749 H   0  0  0  0  0  0  0  0  0  0  0  0
   -6.1906    0.1221    0.1002 H   0  0  0  0  0  0  0  0  0  0  0  0
   -4.9584    2.3077   -0.1427 H   0  0  0  0  0  0  0  0  0  0  0  0
   -2.4475    2.2644   -0.3054 H   0  0  0  0  0  0  0  0  0  0  0  0
  1  2  1  0
  2  3  1  0
  3  4  1  0
  3  5  2  0
  2  6  1  0
  6  7  2  0
  7  8  1  0
  8  9  1  0
  8 10  2  0
 10 11  1  0
 11 12  2  0
 10 13  1  0
 13 14  2  0
 14 15  1  0
 15 16  2  0
 16 17  1  0
 17 18  2  0
 12  6  1  0
 18 13  1  0
  1 19  1  0
  1 20  1  0
  1 21  1  0
  2 22  1  0
  4 23  1  0
  7 24  1  0
 11 25  1  0
 12 26  1  0
 14 27  1  0
 15 28  1  0
 16 29  1  0
 17 30  1  0
 18 31  1  0
M  END
$$$$
