@<TRIPOS>MOLECULE
*****
 57 59 0 0 0
SMALL
GASTEIGER

@<TRIPOS>ATOM
      1 O          -0.3799   -3.2558    1.6927 O.2     1  UNL1       -0.2737
      2 C          -0.5756   -3.6480    0.5318 C.2     1  UNL1        0.2362
      3 C          -0.3592   -2.8161   -0.6514 C.3     1  UNL1        0.0372
      4 C           0.1125   -1.4508   -0.2681 C.3     1  UNL1        0.0464
      5 C          -0.8056   -0.6717    0.6029 C.3     1  UNL1       -0.0413
      6 C          -2.1354   -0.4766   -0.1038 C.3     1  UNL1       -0.0521
      7 C          -3.0587    0.3337    0.7961 C.3     1  UNL1       -0.0502
      8 C          -4.3938    0.5653    0.1599 C.3     1  UNL1       -0.0410
      9 C          -5.2320    1.3739    1.1271 C.3     1  UNL1       -0.0502
     10 C          -4.9446    2.8457    0.8142 C.3     1  UNL1       -0.0528
     11 C          -5.7772    3.2015   -0.3972 C.3     1  UNL1       -0.0530
     12 C          -5.5601    2.1136   -1.4278 C.3     1  UNL1       -0.0528
     13 C          -4.2985    1.3227   -1.1374 C.3     1  UNL1       -0.0502
     14 C           1.4876   -1.5325    0.3264 C.ar    1  UNL1        0.2313
     15 N           2.5820   -1.0126   -0.2730 N.ar    1  UNL1       -0.1872
     16 C           3.6709   -1.2335    0.4847 C.ar    1  UNL1        0.2570
     17 C           5.0530   -0.8544    0.2369 C.2     1  UNL1        0.2847
     18 O           5.9488   -1.1458    1.0614 O.2     1  UNL1       -0.2667
     19 N           5.3884   -0.1515   -0.9440 N.am    1  UNL1       -0.3084
     20 C           6.7086    0.2695   -1.2888 C.3     1  UNL1        0.0148
     21 C           7.1878    1.2074   -0.1815 C.3     1  UNL1       -0.0254
     22 C           6.2899    2.4337   -0.0343 C.3     1  UNL1       -0.0485
     23 C           7.7220    2.5368   -0.4930 C.3     1  UNL1       -0.0485
     24 N           3.1980   -1.9054    1.5639 N.ar    1  UNL1       -0.0512
     25 O           1.9128   -2.0560    1.4242 O.2     1  UNL1       -0.3373
     26 N          -1.0388   -4.9919    0.3593 N.am    1  UNL1       -0.1975
     27 O          -1.2327   -5.7422    1.4507 O.3     1  UNL1       -0.2952
     28 H           0.4366   -3.2401   -1.3230 H       1  UNL1        0.0366
     29 H          -1.3137   -2.6918   -1.2379 H       1  UNL1        0.0366
     30 H           0.1659   -0.8742   -1.2448 H       1  UNL1        0.0401
     31 H          -0.9247   -1.0387    1.6225 H       1  UNL1        0.0273
     32 H          -0.3491    0.3607    0.6908 H       1  UNL1        0.0273
     33 H          -2.0164    0.1029   -1.0407 H       1  UNL1        0.0266
     34 H          -2.6030   -1.4437   -0.3765 H       1  UNL1        0.0266
     35 H          -3.2322   -0.2918    1.7058 H       1  UNL1        0.0268
     36 H          -2.5736    1.2615    1.1218 H       1  UNL1        0.0268
     37 H          -4.8691   -0.4206   -0.0348 H       1  UNL1        0.0301
     38 H          -6.2938    1.1657    0.9539 H       1  UNL1        0.0268
     39 H          -4.8924    1.1822    2.1629 H       1  UNL1        0.0268
     40 H          -3.8831    2.9956    0.5264 H       1  UNL1        0.0265
     41 H          -5.2180    3.4949    1.6663 H       1  UNL1        0.0265
     42 H          -5.4694    4.1915   -0.8017 H       1  UNL1        0.0265
     43 H          -6.8450    3.2147   -0.0585 H       1  UNL1        0.0265
     44 H          -5.4532    2.5915   -2.4070 H       1  UNL1        0.0265
     45 H          -6.4506    1.4623   -1.4327 H       1  UNL1        0.0265
     46 H          -4.2115    0.5725   -1.9601 H       1  UNL1        0.0268
     47 H          -3.4310    1.9945   -1.1964 H       1  UNL1        0.0268
     48 H           4.5901    0.0716   -1.6122 H       1  UNL1        0.1491
     49 H           6.6827    0.8360   -2.2294 H       1  UNL1        0.0465
     50 H           7.4090   -0.5813   -1.4271 H       1  UNL1        0.0465
     51 H           7.4065    0.6694    0.7541 H       1  UNL1        0.0316
     52 H           6.0347    2.7271    1.0208 H       1  UNL1        0.0269
     53 H           5.4766    2.5966   -0.7448 H       1  UNL1        0.0269
     54 H           8.4351    2.9767    0.2411 H       1  UNL1        0.0269
     55 H           7.8460    2.7759   -1.5765 H       1  UNL1        0.0269
     56 H          -1.2056   -5.3315   -0.5964 H       1  UNL1        0.1822
     57 H          -0.7182   -6.5890    1.4440 H       1  UNL1        0.2414
@<TRIPOS>BOND
     1     1     2    2
     2     2     3    1
     3     3     4    1
     4     4     5    1
     5     5     6    1
     6     6     7    1
     7     7     8    1
     8     8     9    1
     9     9    10    1
    10    10    11    1
    11    11    12    1
    12    12    13    1
    13     4    14    1
    14    14    15   ar
    15    15    16   ar
    16    16    17    1
    17    17    18    2
    18    17    19   am
    19    19    20    1
    20    20    21    1
    21    21    22    1
    22    22    23    1
    23    16    24   ar
    24    24    25   ar
    25     2    26   am
    26    26    27    1
    27    13     8    1
    28    25    14   ar
    29    23    21    1
    30     3    28    1
    31     3    29    1
    32     4    30    1
    33     5    31    1
    34     5    32    1
    35     6    33    1
    36     6    34    1
    37     7    35    1
    38     7    36    1
    39     8    37    1
    40     9    38    1
    41     9    39    1
    42    10    40    1
    43    10    41    1
    44    11    42    1
    45    11    43    1
    46    12    44    1
    47    12    45    1
    48    13    46    1
    49    13    47    1
    50    19    48    1
    51    20    49    1
    52    20    50    1
    53    21    51    1
    54    22    52    1
    55    22    53    1
    56    23    54    1
    57    23    55    1
    58    26    56    1
    59    27    57    1
