
     RDKit          3D

 57 59  0  0  0  0  0  0  0  0999 V2000
   -0.3799   -3.2558    1.6927 O   0  0  0  0  0  0  0  0  0  0  0  0
   -0.5756   -3.6480    0.5318 C   0  0  0  0  0  0  0  0  0  0  0  0
   -0.3592   -2.8161   -0.6514 C   0  0  0  0  0  0  0  0  0  0  0  0
    0.1125   -1.4508   -0.2681 C   0  0  1  0  0  0  0  0  0  0  0  0
   -0.8056   -0.6717    0.6029 C   0  0  0  0  0  0  0  0  0  0  0  0
   -2.1354   -0.4766   -0.1038 C   0  0  0  0  0  0  0  0  0  0  0  0
   -3.0587    0.3337    0.7961 C   0  0  0  0  0  0  0  0  0  0  0  0
   -4.3938    0.5653    0.1599 C   0  0  0  0  0  0  0  0  0  0  0  0
   -5.2320    1.3739    1.1271 C   0  0  0  0  0  0  0  0  0  0  0  0
   -4.9446    2.8457    0.8142 C   0  0  0  0  0  0  0  0  0  0  0  0
   -5.7772    3.2015   -0.3972 C   0  0  0  0  0  0  0  0  0  0  0  0
   -5.5601    2.1136   -1.4278 C   0  0  0  0  0  0  0  0  0  0  0  0
   -4.2985    1.3227   -1.1374 C   0  0  0  0  0  0  0  0  0  0  0  0
    1.4876   -1.5325    0.3264 C   0  0  0  0  0  0  0  0  0  0  0  0
    2.5820   -1.0126   -0.2730 N   0  0  0  0  0  0  0  0  0  0  0  0
    3.6709   -1.2335    0.4847 C   0  0  0  0  0  0  0  0  0  0  0  0
    5.0530   -0.8544    0.2369 C   0  0  0  0  0  0  0  0  0  0  0  0
    5.9488   -1.1458    1.0614 O   0  0  0  0  0  0  0  0  0  0  0  0
    5.3884   -0.1515   -0.9440 N   0  0  0  0  0  0  0  0  0  0  0  0
    6.7086    0.2695   -1.2888 C   0  0  0  0  0  0  0  0  0  0  0  0
    7.1878    1.2074   -0.1815 C   0  0  0  0  0  0  0  0  0  0  0  0
    6.2899    2.4337   -0.0343 C   0  0  0  0  0  0  0  0  0  0  0  0
    7.7220    2.5368   -0.4930 C   0  0  0  0  0  0  0  0  0  0  0  0
    3.1980   -1.9054    1.5639 N   0  0  0  0  0  0  0  0  0  0  0  0
    1.9128   -2.0560    1.4242 O   0  0  0  0  0  0  0  0  0  0  0  0
   -1.0388   -4.9919    0.3593 N   0  0  0  0  0  0  0  0  0  0  0  0
   -1.2327   -5.7422    1.4507 O   0  0  0  0  0  0  0  0  0  0  0  0
    0.4366   -3.2401   -1.3230 H   0  0  0  0  0  0  0  0  0  0  0  0
   -1.3137   -2.6918   -1.2379 H   0  0  0  0  0  0  0  0  0  0  0  0
    0.1659   -0.8742   -1.2448 H   0  0  0  0  0  0  0  0  0  0  0  0
   -0.9247   -1.0387    1.6225 H   0  0  0  0  0  0  0  0  0  0  0  0
   -0.3491    0.3607    0.6908 H   0  0  0  0  0  0  0  0  0  0  0  0
   -2.0164    0.1029   -1.0407 H   0  0  0  0  0  0  0  0  0  0  0  0
   -2.6030   -1.4437   -0.3765 H   0  0  0  0  0  0  0  0  0  0  0  0
   -3.2322   -0.2918    1.7058 H   0  0  0  0  0  0  0  0  0  0  0  0
   -2.5736    1.2615    1.1218 H   0  0  0  0  0  0  0  0  0  0  0  0
   -4.8691   -0.4206   -0.0348 H   0  0  0  0  0  0  0  0  0  0  0  0
   -6.2938    1.1657    0.9539 H   0  0  0  0  0  0  0  0  0  0  0  0
   -4.8924    1.1822    2.1629 H   0  0  0  0  0  0  0  0  0  0  0  0
   -3.8831    2.9956    0.5264 H   0  0  0  0  0  0  0  0  0  0  0  0
   -5.2180    3.4949    1.6663 H   0  0  0  0  0  0  0  0  0  0  0  0
   -5.4694    4.1915   -0.8017 H   0  0  0  0  0  0  0  0  0  0  0  0
   -6.8450    3.2147   -0.0585 H   0  0  0  0  0  0  0  0  0  0  0  0
   -5.4532    2.5915   -2.4070 H   0  0  0  0  0  0  0  0  0  0  0  0
   -6.4506    1.4623   -1.4327 H   0  0  0  0  0  0  0  0  0  0  0  0
   -4.2115    0.5725   -1.9601 H   0  0  0  0  0  0  0  0  0  0  0  0
   -3.4310    1.9945   -1.1964 H   0  0  0  0  0  0  0  0  0  0  0  0
    4.5901    0.0716   -1.6122 H   0  0  0  0  0  0  0  0  0  0  0  0
    6.6827    0.8360   -2.2294 H   0  0  0  0  0  0  0  0  0  0  0  0
    7.4090   -0.5813   -1.4271 H   0  0  0  0  0  0  0  0  0  0  0  0
    7.4065    0.6694    0.7541 H   0  0  0  0  0  0  0  0  0  0  0  0
    6.0347    2.7271    1.0208 H   0  0  0  0  0  0  0  0  0  0  0  0
    5.4766    2.5966   -0.7448 H   0  0  0  0  0  0  0  0  0  0  0  0
    8.4351    2.9767    0.2411 H   0  0  0  0  0  0  0  0  0  0  0  0
    7.8460    2.7759   -1.5765 H   0  0  0  0  0  0  0  0  0  0  0  0
   -1.2056   -5.3315   -0.5964 H   0  0  0  0  0  0  0  0  0  0  0  0
   -0.7182   -6.5890    1.4440 H   0  0  0  0  0  0  0  0  0  0  0  0
  1  2  2  0
  2  3  1  0
  3  4  1  0
  4  5  1  0
  5  6  1  0
  6  7  1  0
  7  8  1  0
  8  9  1  0
  9 10  1  0
 10 11  1  0
 11 12  1  0
 12 13  1  0
  4 14  1  0
 14 15  2  0
 15 16  1  0
 16 17  1  0
 17 18  2  0
 17 19  1  0
 19 20  1  0
 20 21  1  0
 21 22  1  0
 22 23  1  0
 16 24  2  0
 24 25  1  0
  2 26  1  0
 26 27  1  0
 13  8  1  0
 25 14  1  0
 23 21  1  0
  3 28  1  0
  3 29  1  0
  4 30  1  6
  5 31  1  0
  5 32  1  0
  6 33  1  0
  6 34  1  0
  7 35  1  0
  7 36  1  0
  8 37  1  0
  9 38  1  0
  9 39  1  0
 10 40  1  0
 10 41  1  0
 11 42  1  0
 11 43  1  0
 12 44  1  0
 12 45  1  0
 13 46  1  0
 13 47  1  0
 19 48  1  0
 20 49  1  0
 20 50  1  0
 21 51  1  0
 22 52  1  0
 22 53  1  0
 23 54  1  0
 23 55  1  0
 26 56  1  0
 27 57  1  0
M  END
$$$$
