@<TRIPOS>MOLECULE
*****
 69 72 0 0 0
SMALL
GASTEIGER

@<TRIPOS>ATOM
      1 C          -0.2650   -0.7194    3.8343 C.3     1  UNL1       -0.0421
      2 C          -0.1752    0.4421    2.8338 C.3     1  UNL1        0.0515
      3 C           1.1389    0.4318    2.1686 C.ar    1  UNL1       -0.0271
      4 C           2.1831   -0.3328    2.6455 C.ar    1  UNL1       -0.0562
      5 C           3.3982   -0.3182    1.9929 C.ar    1  UNL1       -0.0537
      6 C           3.6115    0.4576    0.8459 C.ar    1  UNL1       -0.0177
      7 C           4.9361    0.3895    0.2430 C.ar    1  UNL1       -0.0114
      8 C           5.7387   -0.7331    0.2655 C.ar    1  UNL1       -0.0376
      9 C           6.9908   -0.7288   -0.3295 C.ar    1  UNL1        0.0086
     10 N           7.4819    0.3551   -0.9513 N.ar    1  UNL1       -0.3127
     11 C           8.7884    0.3757   -1.5782 C.3     1  UNL1        0.0543
     12 C           8.5713   -0.0720   -3.0262 C.3     1  UNL1        0.1081
     13 F           9.8103   -0.0575   -3.6372 F       1  UNL1       -0.2472
     14 C           6.7212    1.4601   -0.9874 C.ar    1  UNL1        0.2519
     15 O           7.1679    2.4987   -1.5719 O.2     1  UNL1       -0.2677
     16 C           5.4553    1.4940   -0.3996 C.ar    1  UNL1        0.0107
     17 C           2.5777    1.2063    0.3848 C.ar    1  UNL1       -0.0537
     18 C           1.3509    1.1898    1.0460 C.ar    1  UNL1       -0.0562
     19 N          -1.2878    0.3434    1.9310 N.am    1  UNL1       -0.2605
     20 C          -1.4481   -0.7434    0.9840 C.3     1  UNL1        0.0224
     21 C          -2.1531   -0.1570   -0.2159 C.3     1  UNL1        0.0076
     22 C          -3.5671    0.1991    0.1177 C.3     1  UNL1        0.1440
     23 C          -4.3903   -0.9472    0.5728 C.3     1  UNL1        0.0199
     24 C          -4.5598   -2.1040   -0.3232 C.3     1  UNL1        0.0645
     25 C          -5.2139   -1.7607   -1.6190 C.3     1  UNL1       -0.0362
     26 C          -5.5146   -3.0787    0.3890 C.3     1  UNL1       -0.0362
     27 O          -3.3884   -2.8422   -0.5152 O.3     1  UNL1       -0.3890
     28 C          -4.2134    1.0531   -0.9041 C.ar    1  UNL1       -0.0040
     29 C          -5.5165    1.4809   -0.7975 C.ar    1  UNL1       -0.0548
     30 C          -6.1405    2.2892   -1.7243 C.ar    1  UNL1       -0.0614
     31 C          -5.4312    2.7078   -2.8377 C.ar    1  UNL1       -0.0617
     32 C          -4.1274    2.2906   -2.9619 C.ar    1  UNL1       -0.0614
     33 C          -3.5055    1.4790   -2.0285 C.ar    1  UNL1       -0.0548
     34 O          -3.4849    1.0726    1.2807 O.3     1  UNL1       -0.4387
     35 C          -2.3034    1.3389    1.9305 C.2     1  UNL1        0.4042
     36 O          -2.0802    2.4308    2.5281 O.2     1  UNL1       -0.2262
     37 H          -1.3253   -0.8762    4.1141 H       1  UNL1        0.0251
     38 H           0.1012   -1.6603    3.4014 H       1  UNL1        0.0251
     39 H           0.2964   -0.4912    4.7527 H       1  UNL1        0.0251
     40 H          -0.2498    1.3520    3.4609 H       1  UNL1        0.0549
     41 H           2.0091   -0.9348    3.5399 H       1  UNL1        0.0621
     42 H           4.2065   -0.9210    2.3770 H       1  UNL1        0.0624
     43 H           5.3589   -1.6180    0.7633 H       1  UNL1        0.0638
     44 H           7.6059   -1.6362   -0.2955 H       1  UNL1        0.0810
     45 H           9.4523   -0.2977   -1.0395 H       1  UNL1        0.0518
     46 H           9.1543    1.4199   -1.5457 H       1  UNL1        0.0518
     47 H           8.0794   -1.0436   -3.0462 H       1  UNL1        0.0633
     48 H           7.9366    0.6643   -3.5510 H       1  UNL1        0.0633
     49 H           4.8583    2.3935   -0.4396 H       1  UNL1        0.0678
     50 H           2.7256    1.8098   -0.4981 H       1  UNL1        0.0624
     51 H           0.5210    1.7878    0.6797 H       1  UNL1        0.0621
     52 H          -0.4713   -1.1975    0.7089 H       1  UNL1        0.0467
     53 H          -2.0050   -1.5345    1.5010 H       1  UNL1        0.0467
     54 H          -2.0450   -0.7649   -1.1229 H       1  UNL1        0.0322
     55 H          -1.6238    0.8179   -0.4250 H       1  UNL1        0.0322
     56 H          -4.0105   -1.3201    1.5503 H       1  UNL1        0.0335
     57 H          -5.4229   -0.5640    0.8213 H       1  UNL1        0.0335
     58 H          -5.4673   -2.7046   -2.1912 H       1  UNL1        0.0257
     59 H          -4.5168   -1.1656   -2.2375 H       1  UNL1        0.0257
     60 H          -6.1635   -1.2217   -1.4535 H       1  UNL1        0.0257
     61 H          -6.1519   -2.5124    1.0984 H       1  UNL1        0.0257
     62 H          -4.9319   -3.8008    0.9948 H       1  UNL1        0.0257
     63 H          -6.1191   -3.6373   -0.3544 H       1  UNL1        0.0257
     64 H          -3.6341   -3.7150   -0.9441 H       1  UNL1        0.2101
     65 H          -6.1311    1.1863    0.0579 H       1  UNL1        0.0622
     66 H          -7.1683    2.5992   -1.5965 H       1  UNL1        0.0618
     67 H          -5.9250    3.3409   -3.5600 H       1  UNL1        0.0618
     68 H          -3.6032    2.6454   -3.8585 H       1  UNL1        0.0618
     69 H          -2.4957    1.2093   -2.2129 H       1  UNL1        0.0622
@<TRIPOS>BOND
     1     1     2    1
     2     2     3    1
     3     3     4   ar
     4     4     5   ar
     5     5     6   ar
     6     6     7    1
     7     7     8   ar
     8     8     9   ar
     9     9    10   ar
    10    10    11    1
    11    11    12    1
    12    12    13    1
    13    10    14   ar
    14    14    15    2
    15    14    16   ar
    16     6    17   ar
    17    17    18   ar
    18     2    19    1
    19    19    20    1
    20    20    21    1
    21    21    22    1
    22    22    23    1
    23    23    24    1
    24    24    25    1
    25    24    26    1
    26    24    27    1
    27    22    28    1
    28    28    29   ar
    29    29    30   ar
    30    30    31   ar
    31    31    32   ar
    32    32    33   ar
    33    22    34    1
    34    34    35    1
    35    35    36    2
    36    18     3   ar
    37    35    19   am
    38    16     7   ar
    39    33    28   ar
    40     1    37    1
    41     1    38    1
    42     1    39    1
    43     2    40    1
    44     4    41    1
    45     5    42    1
    46     8    43    1
    47     9    44    1
    48    11    45    1
    49    11    46    1
    50    12    47    1
    51    12    48    1
    52    16    49    1
    53    17    50    1
    54    18    51    1
    55    20    52    1
    56    20    53    1
    57    21    54    1
    58    21    55    1
    59    23    56    1
    60    23    57    1
    61    25    58    1
    62    25    59    1
    63    25    60    1
    64    26    61    1
    65    26    62    1
    66    26    63    1
    67    27    64    1
    68    29    65    1
    69    30    66    1
    70    31    67    1
    71    32    68    1
    72    33    69    1
