
     RDKit          3D

 55 59  0  0  0  0  0  0  0  0999 V2000
   -4.0510    1.3551    2.0853 C   0  0  0  0  0  0  0  0  0  0  0  0
   -3.6407    1.4419    0.6605 C   0  0  0  0  0  0  0  0  0  0  0  0
   -3.8377    2.6465   -0.0032 C   0  0  0  0  0  0  0  0  0  0  0  0
   -3.4561    2.7251   -1.3328 C   0  0  0  0  0  0  0  0  0  0  0  0
   -2.9029    1.6250   -1.9436 C   0  0  0  0  0  0  0  0  0  0  0  0
   -2.7037    0.4309   -1.2985 C   0  0  0  0  0  0  0  0  0  0  0  0
   -2.1355   -0.6849   -2.0129 C   0  0  0  0  0  0  0  0  0  0  0  0
   -3.0652   -1.4166   -2.5870 O   0  0  0  0  0  0  0  0  0  0  0  0
   -0.8239   -1.0736   -2.1718 N   0  0  0  0  0  0  0  0  0  0  0  0
   -0.5364   -2.2808   -2.9711 C   0  0  0  0  0  0  0  0  0  0  0  0
    0.9014   -2.0522   -3.4667 C   0  0  0  0  0  0  0  0  0  0  0  0
    1.1157   -0.7674   -3.8524 O   0  0  0  0  0  0  0  0  0  0  0  0
    1.0229    0.1816   -2.8470 C   0  0  0  0  0  0  0  0  0  0  0  0
    0.3383   -0.4442   -1.6575 C   0  0  1  0  0  0  0  0  0  0  0  0
    0.2054    0.3928   -0.4455 C   0  0  0  0  0  0  0  0  0  0  0  0
    1.5182    0.9775   -0.0120 C   0  0  0  0  0  0  0  0  0  0  0  0
    2.3318    0.2497    0.8620 C   0  0  0  0  0  0  0  0  0  0  0  0
    3.5766    0.6666    1.2705 C   0  0  0  0  0  0  0  0  0  0  0  0
    4.4155   -0.0613    2.1587 N   0  0  0  0  0  0  0  0  0  0  0  0
    3.9896   -0.7795    3.2086 N   0  0  0  0  0  0  0  0  0  0  0  0
    5.0190   -1.3450    3.8457 C   0  0  0  0  0  0  0  0  0  0  0  0
    6.1535   -0.9587    3.1550 C   0  0  0  0  0  0  0  0  0  0  0  0
    5.7299   -0.1954    2.1608 N   0  0  0  0  0  0  0  0  0  0  0  0
    4.0075    1.8766    0.7649 C   0  0  0  0  0  0  0  0  0  0  0  0
    3.2463    2.6307   -0.0957 C   0  0  0  0  0  0  0  0  0  0  0  0
    1.9974    2.1648   -0.4749 C   0  0  0  0  0  0  0  0  0  0  0  0
    0.9720    3.1661   -1.5150 Cl  0  0  0  0  0  0  0  0  0  0  0  0
   -3.0813    0.3482    0.0228 C   0  0  0  0  0  0  0  0  0  0  0  0
   -2.9146   -0.8507    0.7650 N   0  0  0  0  0  0  0  0  0  0  0  0
   -2.3398   -1.0406    1.9341 N   0  0  0  0  0  0  0  0  0  0  0  0
   -2.4408   -2.3554    2.2055 C   0  0  0  0  0  0  0  0  0  0  0  0
   -3.0991   -2.9836    1.1658 C   0  0  0  0  0  0  0  0  0  0  0  0
   -3.3782   -2.0158    0.2886 N   0  0  0  0  0  0  0  0  0  0  0  0
   -4.5306    2.2722    2.4192 H   0  0  0  0  0  0  0  0  0  0  0  0
   -4.7990    0.5216    2.1307 H   0  0  0  0  0  0  0  0  0  0  0  0
   -3.1556    1.0639    2.6896 H   0  0  0  0  0  0  0  0  0  0  0  0
   -4.2774    3.5038    0.5022 H   0  0  0  0  0  0  0  0  0  0  0  0
   -3.5918    3.6435   -1.8867 H   0  0  0  0  0  0  0  0  0  0  0  0
   -2.6131    1.7065   -2.9757 H   0  0  0  0  0  0  0  0  0  0  0  0
   -0.5316   -3.1862   -2.3684 H   0  0  0  0  0  0  0  0  0  0  0  0
   -1.1755   -2.2822   -3.8584 H   0  0  0  0  0  0  0  0  0  0  0  0
    1.6508   -2.5102   -2.8079 H   0  0  0  0  0  0  0  0  0  0  0  0
    0.9529   -2.6762   -4.4129 H   0  0  0  0  0  0  0  0  0  0  0  0
    1.9723    0.6680   -2.6286 H   0  0  0  0  0  0  0  0  0  0  0  0
    0.3275    0.9641   -3.2738 H   0  0  0  0  0  0  0  0  0  0  0  0
    1.0474   -1.2981   -1.3164 H   0  0  0  0  0  0  0  0  0  0  0  0
   -0.4755    1.2634   -0.5655 H   0  0  0  0  0  0  0  0  0  0  0  0
   -0.1477   -0.2250    0.3999 H   0  0  0  0  0  0  0  0  0  0  0  0
    1.9610   -0.7000    1.2410 H   0  0  0  0  0  0  0  0  0  0  0  0
    5.0150   -1.9864    4.7305 H   0  0  0  0  0  0  0  0  0  0  0  0
    7.1576   -1.2734    3.4499 H   0  0  0  0  0  0  0  0  0  0  0  0
    4.9748    2.2801    1.0331 H   0  0  0  0  0  0  0  0  0  0  0  0
    3.5494    3.5775   -0.5094 H   0  0  0  0  0  0  0  0  0  0  0  0
   -2.0796   -2.8787    3.0817 H   0  0  0  0  0  0  0  0  0  0  0  0
   -3.3658   -4.0216    1.0218 H   0  0  0  0  0  0  0  0  0  0  0  0
  1  2  1  0
  2  3  2  0
  3  4  1  0
  4  5  2  0
  5  6  1  0
  6  7  1  0
  7  8  2  0
  7  9  1  0
  9 10  1  0
 10 11  1  0
 11 12  1  0
 12 13  1  0
 13 14  1  0
 14 15  1  0
 15 16  1  0
 16 17  2  0
 17 18  1  0
 18 19  1  0
 19 20  1  0
 20 21  2  0
 21 22  1  0
 22 23  2  0
 18 24  2  0
 24 25  1  0
 25 26  2  0
 26 27  1  0
  6 28  2  0
 28 29  1  0
 29 30  1  0
 30 31  2  0
 31 32  1  0
 32 33  2  0
 28  2  1  0
 33 29  1  0
 14  9  1  0
 26 16  1  0
 23 19  1  0
  1 34  1  0
  1 35  1  0
  1 36  1  0
  3 37  1  0
  4 38  1  0
  5 39  1  0
 10 40  1  0
 10 41  1  0
 11 42  1  0
 11 43  1  0
 13 44  1  0
 13 45  1  0
 14 46  1  1
 15 47  1  0
 15 48  1  0
 17 49  1  0
 21 50  1  0
 22 51  1  0
 24 52  1  0
 25 53  1  0
 31 54  1  0
 32 55  1  0
M  END
$$$$
