@<TRIPOS>MOLECULE
*****
 55 59 0 0 0
SMALL
GASTEIGER

@<TRIPOS>ATOM
      1 C          -4.0510    1.3551    2.0853 C.3     1  UNL1       -0.0376
      2 C          -3.6407    1.4419    0.6605 C.ar    1  UNL1       -0.0226
      3 C          -3.8377    2.6465   -0.0032 C.ar    1  UNL1       -0.0567
      4 C          -3.4561    2.7251   -1.3328 C.ar    1  UNL1       -0.0607
      5 C          -2.9029    1.6250   -1.9436 C.ar    1  UNL1       -0.0475
      6 C          -2.7037    0.4309   -1.2985 C.ar    1  UNL1        0.0642
      7 C          -2.1355   -0.6849   -2.0129 C.2     1  UNL1        0.2491
      8 O          -3.0652   -1.4166   -2.5870 O.2     1  UNL1       -0.2699
      9 N          -0.8239   -1.0736   -2.1718 N.am    1  UNL1       -0.2897
     10 C          -0.5364   -2.2808   -2.9711 C.3     1  UNL1        0.0388
     11 C           0.9014   -2.0522   -3.4667 C.3     1  UNL1        0.0635
     12 O           1.1157   -0.7674   -3.8524 O.3     1  UNL1       -0.3764
     13 C           1.0229    0.1816   -2.8470 C.3     1  UNL1        0.0666
     14 C           0.3383   -0.4442   -1.6575 C.3     1  UNL1        0.0537
     15 C           0.2054    0.3928   -0.4455 C.3     1  UNL1       -0.0054
     16 C           1.5182    0.9775   -0.0120 C.ar    1  UNL1       -0.0252
     17 C           2.3318    0.2497    0.8620 C.ar    1  UNL1       -0.0299
     18 C           3.5766    0.6666    1.2705 C.ar    1  UNL1        0.0865
     19 N           4.4155   -0.0613    2.1587 N.ar    1  UNL1       -0.1503
     20 N           3.9896   -0.7795    3.2086 N.ar    1  UNL1       -0.1556
     21 C           5.0190   -1.3450    3.8457 C.ar    1  UNL1        0.0697
     22 C           6.1535   -0.9587    3.1550 C.ar    1  UNL1        0.0697
     23 N           5.7299   -0.1954    2.1608 N.ar    1  UNL1       -0.1556
     24 C           4.0075    1.8766    0.7649 C.ar    1  UNL1       -0.0332
     25 C           3.2463    2.6307   -0.0957 C.ar    1  UNL1       -0.0411
     26 C           1.9974    2.1648   -0.4749 C.ar    1  UNL1        0.0443
     27 CL          0.9720    3.1661   -1.5150 Cl      1  UNL1       -0.0833
     28 C          -3.0813    0.3482    0.0228 C.ar    1  UNL1        0.1011
     29 N          -2.9146   -0.8507    0.7650 N.ar    1  UNL1       -0.1493
     30 N          -2.3398   -1.0406    1.9341 N.ar    1  UNL1       -0.1556
     31 C          -2.4408   -2.3554    2.2055 C.ar    1  UNL1        0.0697
     32 C          -3.0991   -2.9836    1.1658 C.ar    1  UNL1        0.0697
     33 N          -3.3782   -2.0158    0.2886 N.ar    1  UNL1       -0.1556
     34 H          -4.5306    2.2722    2.4192 H       1  UNL1        0.0278
     35 H          -4.7990    0.5216    2.1307 H       1  UNL1        0.0278
     36 H          -3.1556    1.0639    2.6896 H       1  UNL1        0.0278
     37 H          -4.2774    3.5038    0.5022 H       1  UNL1        0.0621
     38 H          -3.5918    3.6435   -1.8867 H       1  UNL1        0.0618
     39 H          -2.6131    1.7065   -2.9757 H       1  UNL1        0.0626
     40 H          -0.5316   -3.1862   -2.3684 H       1  UNL1        0.0487
     41 H          -1.1755   -2.2822   -3.8584 H       1  UNL1        0.0487
     42 H           1.6508   -2.5102   -2.8079 H       1  UNL1        0.0575
     43 H           0.9529   -2.6762   -4.4129 H       1  UNL1        0.0575
     44 H           1.9723    0.6680   -2.6286 H       1  UNL1        0.0578
     45 H           0.3275    0.9641   -3.2738 H       1  UNL1        0.0578
     46 H           1.0474   -1.2981   -1.3164 H       1  UNL1        0.0526
     47 H          -0.4755    1.2634   -0.5655 H       1  UNL1        0.0332
     48 H          -0.1477   -0.2250    0.3999 H       1  UNL1        0.0332
     49 H           1.9610   -0.7000    1.2410 H       1  UNL1        0.0642
     50 H           5.0150   -1.9864    4.7305 H       1  UNL1        0.0864
     51 H           7.1576   -1.2734    3.4499 H       1  UNL1        0.0864
     52 H           4.9748    2.2801    1.0331 H       1  UNL1        0.0640
     53 H           3.5494    3.5775   -0.5094 H       1  UNL1        0.0633
     54 H          -2.0796   -2.8787    3.0817 H       1  UNL1        0.0864
     55 H          -3.3658   -4.0216    1.0218 H       1  UNL1        0.0864
@<TRIPOS>BOND
     1     1     2    1
     2     2     3   ar
     3     3     4   ar
     4     4     5   ar
     5     5     6   ar
     6     6     7    1
     7     7     8    2
     8     7     9   am
     9     9    10    1
    10    10    11    1
    11    11    12    1
    12    12    13    1
    13    13    14    1
    14    14    15    1
    15    15    16    1
    16    16    17   ar
    17    17    18   ar
    18    18    19    1
    19    19    20   ar
    20    20    21   ar
    21    21    22   ar
    22    22    23   ar
    23    18    24   ar
    24    24    25   ar
    25    25    26   ar
    26    26    27    1
    27     6    28   ar
    28    28    29    1
    29    29    30   ar
    30    30    31   ar
    31    31    32   ar
    32    32    33   ar
    33    28     2   ar
    34    33    29   ar
    35    14     9    1
    36    26    16   ar
    37    23    19   ar
    38     1    34    1
    39     1    35    1
    40     1    36    1
    41     3    37    1
    42     4    38    1
    43     5    39    1
    44    10    40    1
    45    10    41    1
    46    11    42    1
    47    11    43    1
    48    13    44    1
    49    13    45    1
    50    14    46    1
    51    15    47    1
    52    15    48    1
    53    17    49    1
    54    21    50    1
    55    22    51    1
    56    24    52    1
    57    25    53    1
    58    31    54    1
    59    32    55    1
