@<TRIPOS>MOLECULE
*****
 60 62 0 0 0
SMALL
GASTEIGER

@<TRIPOS>ATOM
      1 O           0.2860   -2.1466   -2.0274 O.2     1  UNL1       -0.2737
      2 C          -0.4937   -2.6630   -1.2022 C.2     1  UNL1        0.2362
      3 C          -1.0724   -1.9693   -0.0229 C.3     1  UNL1        0.0372
      4 C          -0.5167   -0.5579   -0.0338 C.3     1  UNL1        0.0464
      5 C          -1.0069    0.2727    1.0921 C.3     1  UNL1       -0.0413
      6 C          -2.4832    0.4633    1.1628 C.3     1  UNL1       -0.0521
      7 C          -3.0783    1.1275   -0.0354 C.3     1  UNL1       -0.0502
      8 C          -4.5898    1.2977    0.0785 C.3     1  UNL1       -0.0410
      9 C          -5.0420    1.9699   -1.1677 C.3     1  UNL1       -0.0502
     10 C          -6.5141    1.9873   -1.3890 C.3     1  UNL1       -0.0528
     11 C          -6.9777    0.5313   -1.3796 C.3     1  UNL1       -0.0530
     12 C          -6.7279    0.0356    0.0240 C.3     1  UNL1       -0.0528
     13 C          -5.2727   -0.0012    0.3837 C.3     1  UNL1       -0.0502
     14 C           0.9670   -0.7390    0.1849 C.ar    1  UNL1        0.2313
     15 N           1.9816   -0.5883   -0.6620 N.ar    1  UNL1       -0.1872
     16 C           3.1476   -0.8541   -0.0441 C.ar    1  UNL1        0.2572
     17 C           4.5162   -0.8239   -0.6016 C.2     1  UNL1        0.2872
     18 O           4.8178   -1.6425   -1.5399 O.2     1  UNL1       -0.2665
     19 N           5.5177    0.0541   -0.1624 N.am    1  UNL1       -0.2949
     20 C           6.8309    0.0162   -0.7513 C.3     1  UNL1        0.0151
     21 C           7.9217    0.0285    0.2993 C.3     1  UNL1       -0.0371
     22 C           7.7103    1.1492    1.2699 C.3     1  UNL1       -0.0502
     23 C           6.4694    1.9399    1.0113 C.3     1  UNL1       -0.0371
     24 C           5.2522    1.0090    0.8836 C.3     1  UNL1        0.0151
     25 N           2.8142   -1.1738    1.2168 N.ar    1  UNL1       -0.0512
     26 O           1.5097   -1.1015    1.3409 O.2     1  UNL1       -0.3373
     27 N          -0.8468   -4.0233   -1.4227 N.am    1  UNL1       -0.1975
     28 O          -0.3418   -4.7026   -2.4945 O.3     1  UNL1       -0.2952
     29 H          -2.1842   -1.9855   -0.1835 H       1  UNL1        0.0366
     30 H          -0.8686   -2.4582    0.9315 H       1  UNL1        0.0366
     31 H          -0.6038   -0.1126   -1.0437 H       1  UNL1        0.0401
     32 H          -0.6066   -0.1475    2.0364 H       1  UNL1        0.0273
     33 H          -0.5027    1.2784    0.9962 H       1  UNL1        0.0273
     34 H          -2.9494   -0.5363    1.3097 H       1  UNL1        0.0266
     35 H          -2.6955    1.0315    2.1037 H       1  UNL1        0.0266
     36 H          -2.9110    0.4562   -0.9101 H       1  UNL1        0.0268
     37 H          -2.6737    2.1124   -0.2612 H       1  UNL1        0.0268
     38 H          -4.7891    1.9852    0.9333 H       1  UNL1        0.0301
     39 H          -4.5429    1.5270   -2.0349 H       1  UNL1        0.0268
     40 H          -4.7005    3.0391   -1.1133 H       1  UNL1        0.0268
     41 H          -6.7102    2.3643   -2.4139 H       1  UNL1        0.0265
     42 H          -7.0782    2.6021   -0.6658 H       1  UNL1        0.0265
     43 H          -6.3582   -0.0196   -2.0957 H       1  UNL1        0.0265
     44 H          -8.0324    0.4279   -1.6271 H       1  UNL1        0.0265
     45 H          -7.2260   -0.9188    0.2385 H       1  UNL1        0.0265
     46 H          -7.2065    0.7867    0.7104 H       1  UNL1        0.0265
     47 H          -5.2332   -0.1610    1.4945 H       1  UNL1        0.0268
     48 H          -4.8043   -0.8440   -0.1675 H       1  UNL1        0.0268
     49 H           6.9820   -0.8499   -1.4282 H       1  UNL1        0.0465
     50 H           6.9453    0.9462   -1.3616 H       1  UNL1        0.0465
     51 H           7.9899   -0.9694    0.7788 H       1  UNL1        0.0280
     52 H           8.8800    0.1868   -0.2278 H       1  UNL1        0.0280
     53 H           7.6357    0.7028    2.2943 H       1  UNL1        0.0266
     54 H           8.5710    1.8752    1.2457 H       1  UNL1        0.0266
     55 H           6.5905    2.5822    0.1202 H       1  UNL1        0.0280
     56 H           6.2625    2.5761    1.8947 H       1  UNL1        0.0280
     57 H           5.1114    0.5458    1.8830 H       1  UNL1        0.0465
     58 H           4.4112    1.6913    0.6320 H       1  UNL1        0.0465
     59 H          -1.4893   -4.5451   -0.7913 H       1  UNL1        0.1822
     60 H           0.0086   -4.0645   -3.1646 H       1  UNL1        0.2414
@<TRIPOS>BOND
     1     1     2    2
     2     2     3    1
     3     3     4    1
     4     4     5    1
     5     5     6    1
     6     6     7    1
     7     7     8    1
     8     8     9    1
     9     9    10    1
    10    10    11    1
    11    11    12    1
    12    12    13    1
    13     4    14    1
    14    14    15   ar
    15    15    16   ar
    16    16    17    1
    17    17    18    2
    18    17    19   am
    19    19    20    1
    20    20    21    1
    21    21    22    1
    22    22    23    1
    23    23    24    1
    24    16    25   ar
    25    25    26   ar
    26     2    27   am
    27    27    28    1
    28    13     8    1
    29    26    14   ar
    30    24    19    1
    31     3    29    1
    32     3    30    1
    33     4    31    1
    34     5    32    1
    35     5    33    1
    36     6    34    1
    37     6    35    1
    38     7    36    1
    39     7    37    1
    40     8    38    1
    41     9    39    1
    42     9    40    1
    43    10    41    1
    44    10    42    1
    45    11    43    1
    46    11    44    1
    47    12    45    1
    48    12    46    1
    49    13    47    1
    50    13    48    1
    51    20    49    1
    52    20    50    1
    53    21    51    1
    54    21    52    1
    55    22    53    1
    56    22    54    1
    57    23    55    1
    58    23    56    1
    59    24    57    1
    60    24    58    1
    61    27    59    1
    62    28    60    1
