
     RDKit          3D

 22 23  0  0  0  0  0  0  0  0999 V2000
   -3.2605   -2.1486    0.0070 O   0  0  0  0  0  0  0  0  0  0  0  0
   -2.9881   -0.9316    0.1239 C   0  0  0  0  0  0  0  0  0  0  0  0
   -4.0562   -0.0653    0.3025 O   0  0  0  0  0  0  0  0  0  0  0  0
   -1.6307   -0.4103    0.0803 C   0  0  0  0  0  0  0  0  0  0  0  0
   -0.5223   -1.2142   -0.0943 C   0  0  0  0  0  0  0  0  0  0  0  0
    0.7470   -0.6949   -0.1315 C   0  0  0  0  0  0  0  0  0  0  0  0
    1.8481   -1.5060   -0.3063 C   0  0  0  0  0  0  0  0  0  0  0  0
    3.1181   -0.9872   -0.3437 C   0  0  0  0  0  0  0  0  0  0  0  0
    3.3074    0.3635   -0.2053 C   0  0  0  0  0  0  0  0  0  0  0  0
    2.2331    1.2239   -0.0270 C   0  0  0  0  0  0  0  0  0  0  0  0
    0.9710    0.6753    0.0064 C   0  0  0  0  0  0  0  0  0  0  0  0
   -0.1287    1.4930    0.1819 C   0  0  0  0  0  0  0  0  0  0  0  0
   -1.4108    0.9415    0.2164 C   0  0  0  0  0  0  0  0  0  0  0  0
   -2.5001    1.7586    0.3911 O   0  0  0  0  0  0  0  0  0  0  0  0
   -4.9750   -0.4016    0.6273 H   0  0  0  0  0  0  0  0  0  0  0  0
   -0.7178   -2.2894   -0.2010 H   0  0  0  0  0  0  0  0  0  0  0  0
    1.7304   -2.5687   -0.4175 H   0  0  0  0  0  0  0  0  0  0  0  0
    3.9616   -1.6270   -0.4797 H   0  0  0  0  0  0  0  0  0  0  0  0
    4.2973    0.7991   -0.2309 H   0  0  0  0  0  0  0  0  0  0  0  0
    2.3991    2.2991    0.0820 H   0  0  0  0  0  0  0  0  0  0  0  0
    0.0139    2.5578    0.2915 H   0  0  0  0  0  0  0  0  0  0  0  0
   -2.4367    2.7330    0.1271 H   0  0  0  0  0  0  0  0  0  0  0  0
  1  2  2  0
  2  3  1  0
  2  4  1  0
  4  5  2  0
  5  6  1  0
  6  7  2  0
  7  8  1  0
  8  9  2  0
  9 10  1  0
 10 11  2  0
 11 12  1  0
 12 13  2  0
 13 14  1  0
 13  4  1  0
 11  6  1  0
  3 15  1  0
  5 16  1  0
  7 17  1  0
  8 18  1  0
  9 19  1  0
 10 20  1  0
 12 21  1  0
 14 22  1  0
M  END
$$$$
