@<TRIPOS>MOLECULE
*****
 22 23 0 0 0
SMALL
GASTEIGER

@<TRIPOS>ATOM
      1 O          -3.2605   -2.1486    0.0070 O.2     1  UNL1       -0.2450
      2 C          -2.9881   -0.9316    0.1239 C.2     1  UNL1        0.3404
      3 O          -4.0562   -0.0653    0.3025 O.3     1  UNL1       -0.4770
      4 C          -1.6307   -0.4103    0.0803 C.ar    1  UNL1        0.1007
      5 C          -0.5223   -1.2142   -0.0943 C.ar    1  UNL1       -0.0365
      6 C           0.7470   -0.6949   -0.1315 C.ar    1  UNL1       -0.0169
      7 C           1.8481   -1.5060   -0.3063 C.ar    1  UNL1       -0.0540
      8 C           3.1181   -0.9872   -0.3437 C.ar    1  UNL1       -0.0612
      9 C           3.3074    0.3635   -0.2053 C.ar    1  UNL1       -0.0612
     10 C           2.2331    1.2239   -0.0270 C.ar    1  UNL1       -0.0539
     11 C           0.9710    0.6753    0.0064 C.ar    1  UNL1       -0.0144
     12 C          -0.1287    1.4930    0.1819 C.ar    1  UNL1       -0.0116
     13 C          -1.4108    0.9415    0.2164 C.ar    1  UNL1        0.1314
     14 O          -2.5001    1.7586    0.3911 O.3     1  UNL1       -0.5059
     15 H          -4.9750   -0.4016    0.6273 H       1  UNL1        0.2954
     16 H          -0.7178   -2.2894   -0.2010 H       1  UNL1        0.0633
     17 H           1.7304   -2.5687   -0.4175 H       1  UNL1        0.0624
     18 H           3.9616   -1.6270   -0.4797 H       1  UNL1        0.0618
     19 H           4.2973    0.7991   -0.2309 H       1  UNL1        0.0618
     20 H           2.3991    2.2991    0.0820 H       1  UNL1        0.0624
     21 H           0.0139    2.5578    0.2915 H       1  UNL1        0.0660
     22 H          -2.4367    2.7330    0.1271 H       1  UNL1        0.2922
@<TRIPOS>BOND
     1     1     2    2
     2     2     3    1
     3     2     4    1
     4     4     5   ar
     5     5     6   ar
     6     6     7   ar
     7     7     8   ar
     8     8     9   ar
     9     9    10   ar
    10    10    11   ar
    11    11    12   ar
    12    12    13   ar
    13    13    14    1
    14    13     4   ar
    15    11     6   ar
    16     3    15    1
    17     5    16    1
    18     7    17    1
    19     8    18    1
    20     9    19    1
    21    10    20    1
    22    12    21    1
    23    14    22    1
