@<TRIPOS>MOLECULE
*****
 67 71 0 0 0
SMALL
GASTEIGER

@<TRIPOS>ATOM
      1 C          -1.8187    4.7312   -0.0804 C.3     1  UNL1        0.0365
      2 O          -2.6813    3.9963   -0.8787 O.3     1  UNL1       -0.3814
      3 C          -3.2661    3.0016   -0.1444 C.3     1  UNL1        0.0630
      4 C          -2.3233    1.9537    0.3634 C.3     1  UNL1        0.0384
      5 N          -1.6327    1.2212   -0.6636 N.am    1  UNL1       -0.2950
      6 C          -0.3961    1.6466   -1.2274 C.3     1  UNL1        0.0190
      7 C           0.8542    1.3509   -0.4897 C.3     1  UNL1       -0.0124
      8 C           2.0041    1.8945   -1.3537 C.3     1  UNL1       -0.0465
      9 C           2.3906    0.9623   -2.4536 C.3     1  UNL1       -0.0399
     10 C           2.0696   -0.4924   -2.1530 C.3     1  UNL1       -0.0008
     11 N           2.0953   -0.7492   -0.7318 N.3     1  UNL1       -0.2985
     12 C           3.4052   -0.6937   -0.2491 C.3     1  UNL1        0.0184
     13 C           4.3224   -1.8408   -0.6902 C.3     1  UNL1       -0.0114
     14 C           5.5245   -1.4939    0.1189 C.ar    1  UNL1       -0.0427
     15 C           6.8616   -1.7208   -0.0840 C.ar    1  UNL1       -0.0583
     16 C           7.8317   -1.2906    0.8154 C.ar    1  UNL1       -0.0615
     17 C           7.4246   -0.6216    1.9340 C.ar    1  UNL1       -0.0615
     18 C           6.0576   -0.3888    2.1440 C.ar    1  UNL1       -0.0583
     19 C           5.1185   -0.8171    1.2522 C.ar    1  UNL1       -0.0427
     20 C           3.6307   -0.7020    1.2303 C.3     1  UNL1       -0.0114
     21 C           1.0792   -0.0364   -0.0104 C.3     1  UNL1        0.0034
     22 C          -2.2015    0.0018   -1.1060 C.2     1  UNL1        0.2467
     23 O          -1.6239   -0.6808   -2.0388 O.2     1  UNL1       -0.2700
     24 C          -3.4179   -0.6084   -0.6113 C.ar    1  UNL1        0.0375
     25 C          -4.6476   -0.1914   -1.1222 C.ar    1  UNL1       -0.0490
     26 C          -5.8338   -0.7411   -0.6937 C.ar    1  UNL1       -0.0533
     27 C          -5.8547   -1.7387    0.2694 C.ar    1  UNL1       -0.0178
     28 C          -7.0412   -2.2928    0.6977 C.ar    1  UNL1       -0.0540
     29 C          -7.0611   -3.2871    1.6531 C.ar    1  UNL1       -0.0612
     30 C          -5.8453   -3.6976    2.1554 C.ar    1  UNL1       -0.0612
     31 C          -4.6549   -3.1390    1.7231 C.ar    1  UNL1       -0.0540
     32 C          -4.6435   -2.1562    0.7783 C.ar    1  UNL1       -0.0172
     33 C          -3.4553   -1.5892    0.3336 C.ar    1  UNL1       -0.0419
     34 H          -1.3875    5.5220   -0.7325 H       1  UNL1        0.0523
     35 H          -0.9801    4.1594    0.3449 H       1  UNL1        0.0523
     36 H          -2.3915    5.1343    0.7773 H       1  UNL1        0.0523
     37 H          -3.7212    3.5205    0.7608 H       1  UNL1        0.0575
     38 H          -4.1666    2.5670   -0.6439 H       1  UNL1        0.0575
     39 H          -1.5437    2.3995    1.0172 H       1  UNL1        0.0487
     40 H          -2.9590    1.2725    0.9952 H       1  UNL1        0.0487
     41 H          -0.3429    1.1412   -2.2586 H       1  UNL1        0.0468
     42 H          -0.4758    2.7378   -1.5138 H       1  UNL1        0.0468
     43 H           0.9377    2.0067    0.4446 H       1  UNL1        0.0328
     44 H           1.5672    2.8055   -1.8709 H       1  UNL1        0.0269
     45 H           2.8317    2.2771   -0.7471 H       1  UNL1        0.0269
     46 H           1.8689    1.1942   -3.4198 H       1  UNL1        0.0278
     47 H           3.4942    1.1022   -2.6419 H       1  UNL1        0.0278
     48 H           2.8655   -1.0999   -2.6223 H       1  UNL1        0.0427
     49 H           1.1197   -0.8172   -2.6247 H       1  UNL1        0.0427
     50 H           3.9751    0.2237   -0.6198 H       1  UNL1        0.0469
     51 H           3.9278   -2.7854   -0.2552 H       1  UNL1        0.0328
     52 H           4.5161   -1.8641   -1.7569 H       1  UNL1        0.0328
     53 H           7.1965   -2.2497   -0.9635 H       1  UNL1        0.0620
     54 H           8.8927   -1.4778    0.6449 H       1  UNL1        0.0618
     55 H           8.1772   -0.2845    2.6339 H       1  UNL1        0.0618
     56 H           5.7999    0.1469    3.0479 H       1  UNL1        0.0620
     57 H           3.2818    0.2294    1.7223 H       1  UNL1        0.0328
     58 H           3.2474   -1.5951    1.7547 H       1  UNL1        0.0328
     59 H           1.3753   -0.0586    1.0732 H       1  UNL1        0.0430
     60 H           0.1444   -0.6349   -0.0264 H       1  UNL1        0.0430
     61 H          -4.6791    0.5883   -1.8835 H       1  UNL1        0.0625
     62 H          -6.7951   -0.4268   -1.0803 H       1  UNL1        0.0624
     63 H          -7.9843   -1.9522    0.2873 H       1  UNL1        0.0624
     64 H          -8.0125   -3.6996    1.9688 H       1  UNL1        0.0618
     65 H          -5.8437   -4.4770    2.9053 H       1  UNL1        0.0618
     66 H          -3.6929   -3.4626    2.1173 H       1  UNL1        0.0624
     67 H          -2.5140   -1.9331    0.7480 H       1  UNL1        0.0631
@<TRIPOS>BOND
     1     1     2    1
     2     2     3    1
     3     3     4    1
     4     4     5    1
     5     5     6    1
     6     6     7    1
     7     7     8    1
     8     8     9    1
     9     9    10    1
    10    10    11    1
    11    11    12    1
    12    12    13    1
    13    13    14    1
    14    14    15   ar
    15    15    16   ar
    16    16    17   ar
    17    17    18   ar
    18    18    19   ar
    19    19    20    1
    20    11    21    1
    21     5    22   am
    22    22    23    2
    23    22    24    1
    24    24    25   ar
    25    25    26   ar
    26    26    27   ar
    27    27    28   ar
    28    28    29   ar
    29    29    30   ar
    30    30    31   ar
    31    31    32   ar
    32    32    33   ar
    33    21     7    1
    34    33    24   ar
    35    20    12    1
    36    32    27   ar
    37    19    14   ar
    38     1    34    1
    39     1    35    1
    40     1    36    1
    41     3    37    1
    42     3    38    1
    43     4    39    1
    44     4    40    1
    45     6    41    1
    46     6    42    1
    47     7    43    1
    48     8    44    1
    49     8    45    1
    50     9    46    1
    51     9    47    1
    52    10    48    1
    53    10    49    1
    54    12    50    1
    55    13    51    1
    56    13    52    1
    57    15    53    1
    58    16    54    1
    59    17    55    1
    60    18    56    1
    61    20    57    1
    62    20    58    1
    63    21    59    1
    64    21    60    1
    65    25    61    1
    66    26    62    1
    67    28    63    1
    68    29    64    1
    69    30    65    1
    70    31    66    1
    71    33    67    1
