
     RDKit          3D

 67 71  0  0  0  0  0  0  0  0999 V2000
   -1.8187    4.7312   -0.0804 C   0  0  0  0  0  0  0  0  0  0  0  0
   -2.6813    3.9963   -0.8787 O   0  0  0  0  0  0  0  0  0  0  0  0
   -3.2661    3.0016   -0.1444 C   0  0  0  0  0  0  0  0  0  0  0  0
   -2.3233    1.9537    0.3634 C   0  0  0  0  0  0  0  0  0  0  0  0
   -1.6327    1.2212   -0.6636 N   0  0  0  0  0  0  0  0  0  0  0  0
   -0.3961    1.6466   -1.2274 C   0  0  0  0  0  0  0  0  0  0  0  0
    0.8542    1.3509   -0.4897 C   0  0  0  0  0  0  0  0  0  0  0  0
    2.0041    1.8945   -1.3537 C   0  0  0  0  0  0  0  0  0  0  0  0
    2.3906    0.9623   -2.4536 C   0  0  0  0  0  0  0  0  0  0  0  0
    2.0696   -0.4924   -2.1530 C   0  0  0  0  0  0  0  0  0  0  0  0
    2.0953   -0.7492   -0.7318 N   0  0  0  0  0  0  0  0  0  0  0  0
    3.4052   -0.6937   -0.2491 C   0  0  0  0  0  0  0  0  0  0  0  0
    4.3224   -1.8408   -0.6902 C   0  0  0  0  0  0  0  0  0  0  0  0
    5.5245   -1.4939    0.1189 C   0  0  0  0  0  0  0  0  0  0  0  0
    6.8616   -1.7208   -0.0840 C   0  0  0  0  0  0  0  0  0  0  0  0
    7.8317   -1.2906    0.8154 C   0  0  0  0  0  0  0  0  0  0  0  0
    7.4246   -0.6216    1.9340 C   0  0  0  0  0  0  0  0  0  0  0  0
    6.0576   -0.3888    2.1440 C   0  0  0  0  0  0  0  0  0  0  0  0
    5.1185   -0.8171    1.2522 C   0  0  0  0  0  0  0  0  0  0  0  0
    3.6307   -0.7020    1.2303 C   0  0  0  0  0  0  0  0  0  0  0  0
    1.0792   -0.0364   -0.0104 C   0  0  0  0  0  0  0  0  0  0  0  0
   -2.2015    0.0018   -1.1060 C   0  0  0  0  0  0  0  0  0  0  0  0
   -1.6239   -0.6808   -2.0388 O   0  0  0  0  0  0  0  0  0  0  0  0
   -3.4179   -0.6084   -0.6113 C   0  0  0  0  0  0  0  0  0  0  0  0
   -4.6476   -0.1914   -1.1222 C   0  0  0  0  0  0  0  0  0  0  0  0
   -5.8338   -0.7411   -0.6937 C   0  0  0  0  0  0  0  0  0  0  0  0
   -5.8547   -1.7387    0.2694 C   0  0  0  0  0  0  0  0  0  0  0  0
   -7.0412   -2.2928    0.6977 C   0  0  0  0  0  0  0  0  0  0  0  0
   -7.0611   -3.2871    1.6531 C   0  0  0  0  0  0  0  0  0  0  0  0
   -5.8453   -3.6976    2.1554 C   0  0  0  0  0  0  0  0  0  0  0  0
   -4.6549   -3.1390    1.7231 C   0  0  0  0  0  0  0  0  0  0  0  0
   -4.6435   -2.1562    0.7783 C   0  0  0  0  0  0  0  0  0  0  0  0
   -3.4553   -1.5892    0.3336 C   0  0  0  0  0  0  0  0  0  0  0  0
   -1.3875    5.5220   -0.7325 H   0  0  0  0  0  0  0  0  0  0  0  0
   -0.9801    4.1594    0.3449 H   0  0  0  0  0  0  0  0  0  0  0  0
   -2.3915    5.1343    0.7773 H   0  0  0  0  0  0  0  0  0  0  0  0
   -3.7212    3.5205    0.7608 H   0  0  0  0  0  0  0  0  0  0  0  0
   -4.1666    2.5670   -0.6439 H   0  0  0  0  0  0  0  0  0  0  0  0
   -1.5437    2.3995    1.0172 H   0  0  0  0  0  0  0  0  0  0  0  0
   -2.9590    1.2725    0.9952 H   0  0  0  0  0  0  0  0  0  0  0  0
   -0.3429    1.1412   -2.2586 H   0  0  0  0  0  0  0  0  0  0  0  0
   -0.4758    2.7378   -1.5138 H   0  0  0  0  0  0  0  0  0  0  0  0
    0.9377    2.0067    0.4446 H   0  0  0  0  0  0  0  0  0  0  0  0
    1.5672    2.8055   -1.8709 H   0  0  0  0  0  0  0  0  0  0  0  0
    2.8317    2.2771   -0.7471 H   0  0  0  0  0  0  0  0  0  0  0  0
    1.8689    1.1942   -3.4198 H   0  0  0  0  0  0  0  0  0  0  0  0
    3.4942    1.1022   -2.6419 H   0  0  0  0  0  0  0  0  0  0  0  0
    2.8655   -1.0999   -2.6223 H   0  0  0  0  0  0  0  0  0  0  0  0
    1.1197   -0.8172   -2.6247 H   0  0  0  0  0  0  0  0  0  0  0  0
    3.9751    0.2237   -0.6198 H   0  0  0  0  0  0  0  0  0  0  0  0
    3.9278   -2.7854   -0.2552 H   0  0  0  0  0  0  0  0  0  0  0  0
    4.5161   -1.8641   -1.7569 H   0  0  0  0  0  0  0  0  0  0  0  0
    7.1965   -2.2497   -0.9635 H   0  0  0  0  0  0  0  0  0  0  0  0
    8.8927   -1.4778    0.6449 H   0  0  0  0  0  0  0  0  0  0  0  0
    8.1772   -0.2845    2.6339 H   0  0  0  0  0  0  0  0  0  0  0  0
    5.7999    0.1469    3.0479 H   0  0  0  0  0  0  0  0  0  0  0  0
    3.2818    0.2294    1.7223 H   0  0  0  0  0  0  0  0  0  0  0  0
    3.2474   -1.5951    1.7547 H   0  0  0  0  0  0  0  0  0  0  0  0
    1.3753   -0.0586    1.0732 H   0  0  0  0  0  0  0  0  0  0  0  0
    0.1444   -0.6349   -0.0264 H   0  0  0  0  0  0  0  0  0  0  0  0
   -4.6791    0.5883   -1.8835 H   0  0  0  0  0  0  0  0  0  0  0  0
   -6.7951   -0.4268   -1.0803 H   0  0  0  0  0  0  0  0  0  0  0  0
   -7.9843   -1.9522    0.2873 H   0  0  0  0  0  0  0  0  0  0  0  0
   -8.0125   -3.6996    1.9688 H   0  0  0  0  0  0  0  0  0  0  0  0
   -5.8437   -4.4770    2.9053 H   0  0  0  0  0  0  0  0  0  0  0  0
   -3.6929   -3.4626    2.1173 H   0  0  0  0  0  0  0  0  0  0  0  0
   -2.5140   -1.9331    0.7480 H   0  0  0  0  0  0  0  0  0  0  0  0
  1  2  1  0
  2  3  1  0
  3  4  1  0
  4  5  1  0
  5  6  1  0
  6  7  1  0
  7  8  1  0
  8  9  1  0
  9 10  1  0
 10 11  1  0
 11 12  1  0
 12 13  1  0
 13 14  1  0
 14 15  2  0
 15 16  1  0
 16 17  2  0
 17 18  1  0
 18 19  2  0
 19 20  1  0
 11 21  1  0
  5 22  1  0
 22 23  2  0
 22 24  1  0
 24 25  2  0
 25 26  1  0
 26 27  2  0
 27 28  1  0
 28 29  2  0
 29 30  1  0
 30 31  2  0
 31 32  1  0
 32 33  2  0
 21  7  1  0
 33 24  1  0
 20 12  1  0
 32 27  1  0
 19 14  1  0
  1 34  1  0
  1 35  1  0
  1 36  1  0
  3 37  1  0
  3 38  1  0
  4 39  1  0
  4 40  1  0
  6 41  1  0
  6 42  1  0
  7 43  1  0
  8 44  1  0
  8 45  1  0
  9 46  1  0
  9 47  1  0
 10 48  1  0
 10 49  1  0
 12 50  1  0
 13 51  1  0
 13 52  1  0
 15 53  1  0
 16 54  1  0
 17 55  1  0
 18 56  1  0
 20 57  1  0
 20 58  1  0
 21 59  1  0
 21 60  1  0
 25 61  1  0
 26 62  1  0
 28 63  1  0
 29 64  1  0
 30 65  1  0
 31 66  1  0
 33 67  1  0
M  END
$$$$
