@<TRIPOS>MOLECULE
*****
 97 105 0 0 0
SMALL
GASTEIGER

@<TRIPOS>ATOM
      1 C          -2.3518   -0.4409   -0.7871 C.3     1  UNL1        0.0492
      2 C          -1.5206   -1.1870    0.1931 C.3     1  UNL1        0.0516
      3 S          -0.5291   -0.3606    1.3566 S.3     1  UNL1       -0.1482
      4 C           1.2198   -0.4090    1.3459 C.3     1  UNL1        0.0272
      5 C           1.8661    0.4156    0.2875 C.3     1  UNL1        0.1520
      6 N           1.4124    1.8178    0.3497 N.3     1  UNL1       -0.2970
      7 C           1.3662    2.2817    1.7095 C.3     1  UNL1        0.0012
      8 C           2.6940    2.2069    2.4289 C.3     1  UNL1       -0.0146
      9 C           3.6071    1.3804    1.6110 C.ar    1  UNL1       -0.0370
     10 C           3.3571    0.4817    0.5843 C.ar    1  UNL1       -0.0090
     11 C           4.2990   -0.2291   -0.1158 C.ar    1  UNL1       -0.0106
     12 C           5.5850    0.0016    0.2629 C.ar    1  UNL1        0.1616
     13 O           6.6699   -0.6048   -0.2961 O.3     1  UNL1       -0.4914
     14 C           6.6585   -1.5975   -1.3082 C.3     1  UNL1        0.0790
     15 C           5.9768    0.8812    1.2808 C.ar    1  UNL1        0.1587
     16 O           7.3204    1.0979    1.6480 O.3     1  UNL1       -0.5033
     17 C           4.9654    1.5452    1.9277 C.ar    1  UNL1       -0.0130
     18 C           1.6247   -0.0965   -1.0457 C.2     1  UNL1        0.3329
     19 O           0.5937    0.3923   -1.4985 O.2     1  UNL1       -0.2483
     20 O           1.4622   -0.6256   -2.3044 O.3     1  UNL1       -0.4612
     21 C           0.4062   -0.3733   -3.1917 C.3     1  UNL1        0.1123
     22 C          -0.8751   -0.9318   -2.6269 C.3     1  UNL1        0.0764
     23 N          -1.6954    0.0210   -1.9790 N.3     1  UNL1       -0.2599
     24 C          -2.8005    0.3177   -2.9184 C.3     1  UNL1        0.1255
     25 O          -3.5744   -0.8083   -3.0096 O.3     1  UNL1       -0.3756
     26 C          -3.5129    1.5187   -2.3270 C.3     1  UNL1        0.0543
     27 C          -2.3891    2.4643   -1.9115 C.3     1  UNL1       -0.0079
     28 C          -2.3010    2.6520   -0.4456 C.ar    1  UNL1       -0.0371
     29 C          -1.7874    3.8059    0.1175 C.ar    1  UNL1       -0.0516
     30 C          -1.6883    4.0813    1.4571 C.ar    1  UNL1       -0.0049
     31 C          -1.1273    5.3646    1.9437 C.3     1  UNL1       -0.0361
     32 C          -2.1570    3.0917    2.3275 C.ar    1  UNL1        0.1645
     33 O          -2.0982    3.2846    3.7047 O.3     1  UNL1       -0.4912
     34 C          -3.1938    3.8800    4.3491 C.3     1  UNL1        0.0790
     35 C          -2.6964    1.8867    1.8653 C.ar    1  UNL1        0.1638
     36 O          -3.1680    0.8981    2.7122 O.3     1  UNL1       -0.5031
     37 C          -2.7417    1.7224    0.4764 C.ar    1  UNL1        0.0195
     38 C          -3.3008    0.5175   -0.1780 C.3     1  UNL1        0.0565
     39 N          -4.2369    1.0756   -1.1550 N.3     1  UNL1       -0.2898
     40 C          -5.0557    2.1343   -0.6053 C.3     1  UNL1       -0.0117
     41 C          -0.5876   -2.1674   -1.8605 C.ar    1  UNL1        0.0263
     42 C          -0.0050   -3.2117   -2.5913 C.ar    1  UNL1        0.1718
     43 O           0.3918   -3.3251   -3.9283 O.3     1  UNL1       -0.4522
     44 C           0.7178   -4.6605   -4.2154 C.3     1  UNL1        0.2333
     45 O           0.8567   -5.2776   -2.9458 O.3     1  UNL1       -0.4522
     46 C           0.2890   -4.4367   -1.9829 C.ar    1  UNL1        0.1729
     47 C           0.0084   -4.6422   -0.6371 C.ar    1  UNL1        0.0376
     48 C           0.2836   -5.9179    0.0676 C.3     1  UNL1       -0.0326
     49 C          -0.5536   -3.5623   -0.0258 C.ar    1  UNL1        0.1428
     50 O          -0.8985   -3.6171    1.3531 O.3     1  UNL1       -0.4253
     51 C           0.1654   -3.8460    2.2127 C.2     1  UNL1        0.3092
     52 C          -0.2979   -3.8636    3.6428 C.3     1  UNL1        0.0336
     53 O           1.4275   -4.0425    2.1158 O.2     1  UNL1       -0.2507
     54 C          -0.8815   -2.3235   -0.5290 C.ar    1  UNL1        0.0182
     55 H          -3.0659   -1.2653   -1.2104 H       1  UNL1        0.0496
     56 H          -2.3427   -1.7331    0.8361 H       1  UNL1        0.0478
     57 H           1.6102   -1.4855    1.2571 H       1  UNL1        0.0403
     58 H           1.5939   -0.1323    2.3728 H       1  UNL1        0.0403
     59 H           2.0704    2.4255   -0.1975 H       1  UNL1        0.1233
     60 H           1.0460    3.3310    1.7146 H       1  UNL1        0.0428
     61 H           0.6418    1.6250    2.2640 H       1  UNL1        0.0428
     62 H           3.0878    3.2417    2.5560 H       1  UNL1        0.0326
     63 H           2.5614    1.8130    3.4634 H       1  UNL1        0.0326
     64 H           4.0146   -0.9005   -0.8832 H       1  UNL1        0.0659
     65 H           6.6943   -2.5690   -0.7549 H       1  UNL1        0.0660
     66 H           7.5561   -1.4453   -1.9194 H       1  UNL1        0.0660
     67 H           5.7039   -1.5454   -1.8366 H       1  UNL1        0.0660
     68 H           7.8242    0.2429    1.9385 H       1  UNL1        0.2923
     69 H           5.2611    2.2370    2.7344 H       1  UNL1        0.0658
     70 H           0.2995    0.6993   -3.4852 H       1  UNL1        0.0717
     71 H           0.6738   -0.9592   -4.1260 H       1  UNL1        0.0717
     72 H          -1.4151   -1.3496   -3.5618 H       1  UNL1        0.0548
     73 H          -2.3868    0.5724   -3.9083 H       1  UNL1        0.0783
     74 H          -4.5527   -0.6550   -3.0638 H       1  UNL1        0.2115
     75 H          -4.2148    1.9589   -3.0308 H       1  UNL1        0.0505
     76 H          -1.3926    2.1366   -2.2675 H       1  UNL1        0.0330
     77 H          -2.5649    3.4409   -2.4168 H       1  UNL1        0.0330
     78 H          -1.4103    4.5892   -0.5689 H       1  UNL1        0.0624
     79 H          -0.6588    5.8635    1.0622 H       1  UNL1        0.0279
     80 H          -2.0140    6.0229    2.1854 H       1  UNL1        0.0279
     81 H          -0.4467    5.2917    2.7921 H       1  UNL1        0.0279
     82 H          -4.1553    3.3728    4.0878 H       1  UNL1        0.0660
     83 H          -2.9897    3.8283    5.4387 H       1  UNL1        0.0660
     84 H          -3.2176    4.9363    4.0279 H       1  UNL1        0.0660
     85 H          -2.5803    0.6265    3.5203 H       1  UNL1        0.2923
     86 H          -3.9706   -0.0545    0.5315 H       1  UNL1        0.0529
     87 H          -6.1038    1.8733   -0.4528 H       1  UNL1        0.0391
     88 H          -4.9187    3.0268   -1.2572 H       1  UNL1        0.0391
     89 H          -4.6448    2.4057    0.3862 H       1  UNL1        0.0391
     90 H          -0.0737   -5.1531   -4.8175 H       1  UNL1        0.1166
     91 H           1.6685   -4.6712   -4.7731 H       1  UNL1        0.1166
     92 H          -0.2155   -5.9743    1.0458 H       1  UNL1        0.0280
     93 H          -0.2459   -6.7024   -0.5553 H       1  UNL1        0.0280
     94 H           1.3537   -6.1878    0.0669 H       1  UNL1        0.0280
     95 H          -1.2274   -4.4133    3.7729 H       1  UNL1        0.0342
     96 H          -0.5135   -2.7866    3.9250 H       1  UNL1        0.0342
     97 H           0.4612   -4.2378    4.3403 H       1  UNL1        0.0342
@<TRIPOS>BOND
     1     1     2    1
     2     2     3    1
     3     3     4    1
     4     4     5    1
     5     5     6    1
     6     6     7    1
     7     7     8    1
     8     8     9    1
     9     9    10   ar
    10    10    11   ar
    11    11    12   ar
    12    12    13    1
    13    13    14    1
    14    12    15   ar
    15    15    16    1
    16    15    17   ar
    17     5    18    1
    18    18    19    2
    19    18    20    1
    20    20    21    1
    21    21    22    1
    22    22    23    1
    23    23    24    1
    24    24    25    1
    25    24    26    1
    26    26    27    1
    27    27    28    1
    28    28    29   ar
    29    29    30   ar
    30    30    31    1
    31    30    32   ar
    32    32    33    1
    33    33    34    1
    34    32    35   ar
    35    35    36    1
    36    35    37   ar
    37    37    38    1
    38    38    39    1
    39    39    40    1
    40    22    41    1
    41    41    42   ar
    42    42    43    1
    43    43    44    1
    44    44    45    1
    45    45    46    1
    46    46    47   ar
    47    47    48    1
    48    47    49   ar
    49    49    50    1
    50    50    51    1
    51    51    52    1
    52    51    53    2
    53    49    54   ar
    54    23     1    1
    55    39    26    1
    56    54    41   ar
    57    38     1    1
    58    46    42   ar
    59    54     2    1
    60    10     5    1
    61    37    28   ar
    62    17     9   ar
    63     1    55    1
    64     2    56    1
    65     4    57    1
    66     4    58    1
    67     6    59    1
    68     7    60    1
    69     7    61    1
    70     8    62    1
    71     8    63    1
    72    11    64    1
    73    14    65    1
    74    14    66    1
    75    14    67    1
    76    16    68    1
    77    17    69    1
    78    21    70    1
    79    21    71    1
    80    22    72    1
    81    24    73    1
    82    25    74    1
    83    26    75    1
    84    27    76    1
    85    27    77    1
    86    29    78    1
    87    31    79    1
    88    31    80    1
    89    31    81    1
    90    34    82    1
    91    34    83    1
    92    34    84    1
    93    36    85    1
    94    38    86    1
    95    40    87    1
    96    40    88    1
    97    40    89    1
    98    44    90    1
    99    44    91    1
   100    48    92    1
   101    48    93    1
   102    48    94    1
   103    52    95    1
   104    52    96    1
   105    52    97    1
