@<TRIPOS>MOLECULE
*****
 62 63 0 0 0
SMALL
GASTEIGER

@<TRIPOS>ATOM
      1 C          -4.0760   -1.5439   -2.4259 C.3     1  UNL1       -0.0130
      2 N          -3.5606   -1.9759   -1.0908 N.3     1  UNL1       -0.3078
      3 C          -4.7858   -2.3113   -0.3737 C.3     1  UNL1       -0.0130
      4 C          -2.8336   -0.8635   -0.5219 C.3     1  UNL1        0.0051
      5 C          -2.0454   -1.2575    0.6584 C.3     1  UNL1       -0.0042
      6 C          -2.9101   -1.7759    1.7747 C.3     1  UNL1       -0.0570
      7 C          -1.1778   -2.4430    0.2178 C.3     1  UNL1       -0.0570
      8 C          -1.1979   -0.1524    1.2463 C.3     1  UNL1        0.0312
      9 N          -0.2137    0.4202    0.4047 N.ar    1  UNL1       -0.3269
     10 C          -0.2871    1.4586   -0.4151 C.ar    1  UNL1        0.1113
     11 C          -1.3929    2.3900   -0.6754 C.3     1  UNL1        0.0105
     12 C          -1.3923    3.6228    0.1799 C.3     1  UNL1       -0.0309
     13 C          -0.1305    4.4426    0.0154 C.3     1  UNL1       -0.0597
     14 C          -2.5373    4.5565   -0.2503 C.3     1  UNL1       -0.0597
     15 C          -1.6123    3.3636    1.6427 C.3     1  UNL1       -0.0597
     16 N           0.9180    1.6297   -1.0381 N.ar    1  UNL1       -0.2323
     17 C           1.7673    0.7037   -0.6180 C.ar    1  UNL1        0.0899
     18 C           3.0901    0.4282   -0.9136 C.ar    1  UNL1       -0.0271
     19 C           3.7234   -0.6267   -0.2934 C.ar    1  UNL1       -0.0227
     20 C           5.1096   -0.8825   -0.6236 C.2     1  UNL1       -0.0496
     21 C           5.8613   -1.8488   -0.1548 C.2     1  UNL1        0.0027
     22 C           7.2701   -2.0073   -0.5701 C.2     1  UNL1        0.2593
     23 O           7.8075   -1.2248   -1.3810 O.2     1  UNL1       -0.2687
     24 N           8.0285   -3.0666   -0.0394 N.am    1  UNL1       -0.1940
     25 O           9.3401   -3.2698   -0.3842 O.3     1  UNL1       -0.2949
     26 C           3.0482   -1.4020    0.6144 C.ar    1  UNL1       -0.0525
     27 C           1.7255   -1.1081    0.8945 C.ar    1  UNL1       -0.0355
     28 C           1.0737   -0.0603    0.2859 C.ar    1  UNL1        0.0689
     29 H          -4.5315   -2.4303   -2.8680 H       1  UNL1        0.0391
     30 H          -4.8395   -0.7884   -2.2048 H       1  UNL1        0.0391
     31 H          -3.2391   -1.1432   -3.0377 H       1  UNL1        0.0391
     32 H          -5.3262   -1.3964   -0.0738 H       1  UNL1        0.0391
     33 H          -5.4920   -2.7875   -1.1437 H       1  UNL1        0.0391
     34 H          -4.6810   -3.0932    0.3789 H       1  UNL1        0.0391
     35 H          -3.5791   -0.0496   -0.3024 H       1  UNL1        0.0432
     36 H          -2.1574   -0.4971   -1.3374 H       1  UNL1        0.0432
     37 H          -3.9194   -1.3383    1.7698 H       1  UNL1        0.0236
     38 H          -2.9048   -2.8872    1.8155 H       1  UNL1        0.0236
     39 H          -2.4556   -1.4383    2.7662 H       1  UNL1        0.0236
     40 H          -1.9251   -3.1639   -0.2323 H       1  UNL1        0.0236
     41 H          -0.4937   -2.1851   -0.5861 H       1  UNL1        0.0236
     42 H          -0.7781   -2.9283    1.1042 H       1  UNL1        0.0236
     43 H          -1.9036    0.5423    1.7298 H       1  UNL1        0.0498
     44 H          -0.6716   -0.6488    2.1225 H       1  UNL1        0.0498
     45 H          -1.2871    2.7653   -1.7378 H       1  UNL1        0.0348
     46 H          -2.4091    1.9491   -0.5877 H       1  UNL1        0.0348
     47 H           0.6888    4.0222    0.6640 H       1  UNL1        0.0235
     48 H           0.1815    4.5514   -1.0247 H       1  UNL1        0.0235
     49 H          -0.3457    5.4552    0.4137 H       1  UNL1        0.0235
     50 H          -2.3865    4.8877   -1.2989 H       1  UNL1        0.0235
     51 H          -2.5259    5.4401    0.4380 H       1  UNL1        0.0235
     52 H          -3.4940    4.0191   -0.0936 H       1  UNL1        0.0235
     53 H          -2.5887    2.8384    1.8140 H       1  UNL1        0.0235
     54 H          -1.6619    4.3295    2.2134 H       1  UNL1        0.0235
     55 H          -0.7931    2.7906    2.1277 H       1  UNL1        0.0235
     56 H           3.5933    1.0655   -1.6389 H       1  UNL1        0.0645
     57 H           5.6281   -0.2152   -1.3402 H       1  UNL1        0.0625
     58 H           5.4290   -2.5389    0.5483 H       1  UNL1        0.0670
     59 H           7.5957   -3.7372    0.6425 H       1  UNL1        0.1825
     60 H           9.9238   -2.6056    0.0429 H       1  UNL1        0.2414
     61 H           3.5343   -2.2522    1.1241 H       1  UNL1        0.0624
     62 H           1.2051   -1.7274    1.6268 H       1  UNL1        0.0639
@<TRIPOS>BOND
     1     1     2    1
     2     2     3    1
     3     2     4    1
     4     4     5    1
     5     5     6    1
     6     5     7    1
     7     5     8    1
     8     8     9    1
     9     9    10   ar
    10    10    11    1
    11    11    12    1
    12    12    13    1
    13    12    14    1
    14    12    15    1
    15    10    16   ar
    16    16    17   ar
    17    17    18   ar
    18    18    19   ar
    19    19    20    1
    20    20    21    2
    21    21    22    1
    22    22    23    2
    23    22    24   am
    24    24    25    1
    25    19    26   ar
    26    26    27   ar
    27    27    28   ar
    28    28     9   ar
    29    28    17   ar
    30     1    29    1
    31     1    30    1
    32     1    31    1
    33     3    32    1
    34     3    33    1
    35     3    34    1
    36     4    35    1
    37     4    36    1
    38     6    37    1
    39     6    38    1
    40     6    39    1
    41     7    40    1
    42     7    41    1
    43     7    42    1
    44     8    43    1
    45     8    44    1
    46    11    45    1
    47    11    46    1
    48    13    47    1
    49    13    48    1
    50    13    49    1
    51    14    50    1
    52    14    51    1
    53    14    52    1
    54    15    53    1
    55    15    54    1
    56    15    55    1
    57    18    56    1
    58    20    57    1
    59    21    58    1
    60    24    59    1
    61    25    60    1
    62    26    61    1
    63    27    62    1
