@<TRIPOS>MOLECULE
*****
 36 38 0 0 0
SMALL
GASTEIGER

@<TRIPOS>ATOM
      1 C          -1.4791    3.0448    0.5639 C.3     1  UNL1       -0.0124
      2 N          -1.4943    1.9052   -0.3207 N.3     1  UNL1       -0.3002
      3 C          -2.3566    0.8635    0.0932 C.3     1  UNL1        0.0258
      4 C          -1.7791   -0.5018    0.0526 C.ar    1  UNL1       -0.0090
      5 C          -2.6475   -1.5572   -0.0495 C.ar    1  UNL1        0.0293
      6 N          -4.0531   -1.4145   -0.1180 N.pl3   1  UNL1       -0.3577
      7 C          -2.1423   -2.8590   -0.0901 C.ar    1  UNL1       -0.0407
      8 C          -0.7745   -3.0103   -0.0240 C.ar    1  UNL1       -0.0597
      9 C           0.1052   -1.9539    0.0787 C.ar    1  UNL1       -0.0575
     10 C          -0.4188   -0.6861    0.1166 C.ar    1  UNL1       -0.0326
     11 C           0.4152    0.5386    0.2254 C.3     1  UNL1        0.0223
     12 C           1.8370    0.3005    0.0267 C.ar    1  UNL1       -0.0387
     13 C           2.4479    0.3612   -1.1920 C.ar    1  UNL1       -0.0579
     14 C           3.8109    0.1256   -1.3320 C.ar    1  UNL1       -0.0615
     15 C           4.5686   -0.1765   -0.2196 C.ar    1  UNL1       -0.0617
     16 C           3.9668   -0.2433    1.0298 C.ar    1  UNL1       -0.0615
     17 C           2.6228   -0.0061    1.1341 C.ar    1  UNL1       -0.0579
     18 C          -0.1855    1.5394   -0.7331 C.3     1  UNL1        0.0098
     19 H          -2.3461    3.6977    0.2834 H       1  UNL1        0.0391
     20 H          -1.5431    2.6760    1.6028 H       1  UNL1        0.0391
     21 H          -0.5331    3.6308    0.4925 H       1  UNL1        0.0391
     22 H          -2.7164    1.0513    1.1337 H       1  UNL1        0.0476
     23 H          -3.2555    0.8648   -0.5496 H       1  UNL1        0.0476
     24 H          -4.4648   -0.8145   -0.8486 H       1  UNL1        0.1423
     25 H          -4.6448   -1.9142    0.5657 H       1  UNL1        0.1423
     26 H          -2.7814   -3.7278   -0.1701 H       1  UNL1        0.0636
     27 H          -0.3708   -4.0293   -0.0554 H       1  UNL1        0.0618
     28 H           1.1834   -2.0956    0.1297 H       1  UNL1        0.0621
     29 H           0.2563    0.9382    1.2485 H       1  UNL1        0.0410
     30 H           1.8574    0.5984   -2.0712 H       1  UNL1        0.0620
     31 H           4.3052    0.1712   -2.2939 H       1  UNL1        0.0618
     32 H           5.6241   -0.3622   -0.3052 H       1  UNL1        0.0618
     33 H           4.5228   -0.4772    1.9315 H       1  UNL1        0.0618
     34 H           2.1583   -0.0624    2.1316 H       1  UNL1        0.0620
     35 H          -0.1524    1.1228   -1.7632 H       1  UNL1        0.0436
     36 H           0.4573    2.4621   -0.7042 H       1  UNL1        0.0436
@<TRIPOS>BOND
     1     1     2    1
     2     2     3    1
     3     3     4    1
     4     4     5   ar
     5     5     6    1
     6     5     7   ar
     7     7     8   ar
     8     8     9   ar
     9     9    10   ar
    10    10    11    1
    11    11    12    1
    12    12    13   ar
    13    13    14   ar
    14    14    15   ar
    15    15    16   ar
    16    16    17   ar
    17    11    18    1
    18    18     2    1
    19    10     4   ar
    20    17    12   ar
    21     1    19    1
    22     1    20    1
    23     1    21    1
    24     3    22    1
    25     3    23    1
    26     6    24    1
    27     6    25    1
    28     7    26    1
    29     8    27    1
    30     9    28    1
    31    11    29    1
    32    13    30    1
    33    14    31    1
    34    15    32    1
    35    16    33    1
    36    17    34    1
    37    18    35    1
    38    18    36    1
