
     RDKit          3D

 36 38  0  0  0  0  0  0  0  0999 V2000
   -1.4791    3.0448    0.5639 C   0  0  0  0  0  0  0  0  0  0  0  0
   -1.4943    1.9052   -0.3207 N   0  0  0  0  0  0  0  0  0  0  0  0
   -2.3566    0.8635    0.0932 C   0  0  0  0  0  0  0  0  0  0  0  0
   -1.7791   -0.5018    0.0526 C   0  0  0  0  0  0  0  0  0  0  0  0
   -2.6475   -1.5572   -0.0495 C   0  0  0  0  0  0  0  0  0  0  0  0
   -4.0531   -1.4145   -0.1180 N   0  0  0  0  0  0  0  0  0  0  0  0
   -2.1423   -2.8590   -0.0901 C   0  0  0  0  0  0  0  0  0  0  0  0
   -0.7745   -3.0103   -0.0240 C   0  0  0  0  0  0  0  0  0  0  0  0
    0.1052   -1.9539    0.0787 C   0  0  0  0  0  0  0  0  0  0  0  0
   -0.4188   -0.6861    0.1166 C   0  0  0  0  0  0  0  0  0  0  0  0
    0.4152    0.5386    0.2254 C   0  0  0  0  0  0  0  0  0  0  0  0
    1.8370    0.3005    0.0267 C   0  0  0  0  0  0  0  0  0  0  0  0
    2.4479    0.3612   -1.1920 C   0  0  0  0  0  0  0  0  0  0  0  0
    3.8109    0.1256   -1.3320 C   0  0  0  0  0  0  0  0  0  0  0  0
    4.5686   -0.1765   -0.2196 C   0  0  0  0  0  0  0  0  0  0  0  0
    3.9668   -0.2433    1.0298 C   0  0  0  0  0  0  0  0  0  0  0  0
    2.6228   -0.0061    1.1341 C   0  0  0  0  0  0  0  0  0  0  0  0
   -0.1855    1.5394   -0.7331 C   0  0  0  0  0  0  0  0  0  0  0  0
   -2.3461    3.6977    0.2834 H   0  0  0  0  0  0  0  0  0  0  0  0
   -1.5431    2.6760    1.6028 H   0  0  0  0  0  0  0  0  0  0  0  0
   -0.5331    3.6308    0.4925 H   0  0  0  0  0  0  0  0  0  0  0  0
   -2.7164    1.0513    1.1337 H   0  0  0  0  0  0  0  0  0  0  0  0
   -3.2555    0.8648   -0.5496 H   0  0  0  0  0  0  0  0  0  0  0  0
   -4.4648   -0.8145   -0.8486 H   0  0  0  0  0  0  0  0  0  0  0  0
   -4.6448   -1.9142    0.5657 H   0  0  0  0  0  0  0  0  0  0  0  0
   -2.7814   -3.7278   -0.1701 H   0  0  0  0  0  0  0  0  0  0  0  0
   -0.3708   -4.0293   -0.0554 H   0  0  0  0  0  0  0  0  0  0  0  0
    1.1834   -2.0956    0.1297 H   0  0  0  0  0  0  0  0  0  0  0  0
    0.2563    0.9382    1.2485 H   0  0  0  0  0  0  0  0  0  0  0  0
    1.8574    0.5984   -2.0712 H   0  0  0  0  0  0  0  0  0  0  0  0
    4.3052    0.1712   -2.2939 H   0  0  0  0  0  0  0  0  0  0  0  0
    5.6241   -0.3622   -0.3052 H   0  0  0  0  0  0  0  0  0  0  0  0
    4.5228   -0.4772    1.9315 H   0  0  0  0  0  0  0  0  0  0  0  0
    2.1583   -0.0624    2.1316 H   0  0  0  0  0  0  0  0  0  0  0  0
   -0.1524    1.1228   -1.7632 H   0  0  0  0  0  0  0  0  0  0  0  0
    0.4573    2.4621   -0.7042 H   0  0  0  0  0  0  0  0  0  0  0  0
  1  2  1  0
  2  3  1  0
  3  4  1  0
  4  5  2  0
  5  6  1  0
  5  7  1  0
  7  8  2  0
  8  9  1  0
  9 10  2  0
 10 11  1  0
 11 12  1  0
 12 13  2  0
 13 14  1  0
 14 15  2  0
 15 16  1  0
 16 17  2  0
 11 18  1  0
 18  2  1  0
 10  4  1  0
 17 12  1  0
  1 19  1  0
  1 20  1  0
  1 21  1  0
  3 22  1  0
  3 23  1  0
  6 24  1  0
  6 25  1  0
  7 26  1  0
  8 27  1  0
  9 28  1  0
 11 29  1  0
 13 30  1  0
 14 31  1  0
 15 32  1  0
 16 33  1  0
 17 34  1  0
 18 35  1  0
 18 36  1  0
M  END
$$$$
