@<TRIPOS>MOLECULE
*****
 64 66 0 0 0
SMALL
GASTEIGER

@<TRIPOS>ATOM
      1 C          -7.3923    2.3764    0.6383 C.3     1  UNL1        0.0820
      2 O          -6.3321    1.8644   -0.1416 O.3     1  UNL1       -0.4646
      3 C          -5.0465    1.6868    0.2858 C.2     1  UNL1        0.3373
      4 O          -4.7834    2.0067    1.4774 O.2     1  UNL1       -0.2452
      5 C          -3.9896    1.1408   -0.6020 C.2     1  UNL1        0.0651
      6 C          -4.2958    0.8171   -1.8334 C.2     1  UNL1        0.0157
      7 C          -5.6971    0.9944   -2.3465 C.3     1  UNL1       -0.0260
      8 N          -3.3221    0.2864   -2.7231 N.pl3   1  UNL1       -0.3207
      9 C          -2.0010    0.1165   -2.2361 C.2     1  UNL1        0.0157
     10 C          -0.9675   -0.4430   -3.1676 C.3     1  UNL1       -0.0260
     11 C          -1.6744    0.4298   -1.0224 C.2     1  UNL1        0.0652
     12 C          -0.2728    0.2403   -0.5307 C.2     1  UNL1        0.3376
     13 O           0.0056    0.5548    0.6525 O.2     1  UNL1       -0.2452
     14 O           0.7416   -0.2587   -1.2912 O.3     1  UNL1       -0.4600
     15 C           2.0807   -0.4580   -0.8765 C.3     1  UNL1        0.1054
     16 C           2.7508    0.7915   -0.4349 C.3     1  UNL1        0.0333
     17 N           4.1040    0.5327   -0.0160 N.3     1  UNL1       -0.2980
     18 C           3.9915   -0.2494    1.2233 C.3     1  UNL1       -0.0123
     19 C           4.7932   -0.2086   -1.0178 C.3     1  UNL1        0.0239
     20 C           6.2392   -0.3908   -0.7260 C.ar    1  UNL1       -0.0334
     21 C           6.7614   -1.4411   -0.0138 C.ar    1  UNL1       -0.0573
     22 C           8.1315   -1.5064    0.1929 C.ar    1  UNL1       -0.0615
     23 C           9.0068   -0.5632   -0.2833 C.ar    1  UNL1       -0.0617
     24 C           8.4794    0.5007   -1.0045 C.ar    1  UNL1       -0.0615
     25 C           7.1161    0.5593   -1.2063 C.ar    1  UNL1       -0.0573
     26 C          -2.6324    0.9872   -0.0627 C.3     1  UNL1        0.0508
     27 C          -2.7014    0.1220    1.1807 C.ar    1  UNL1       -0.0287
     28 C          -2.3891    0.6319    2.4152 C.ar    1  UNL1       -0.0572
     29 C          -2.4485   -0.1510    3.5642 C.ar    1  UNL1       -0.0551
     30 C          -2.8244   -1.4622    3.4854 C.ar    1  UNL1        0.0156
     31 C          -3.1428   -1.9999    2.2638 C.ar    1  UNL1        0.2734
     32 N          -3.5327   -3.3565    2.1805 N.pl3   1  UNL1        0.0796
     33 O          -3.5766   -4.0363    3.2132 O.2     1  UNL1        0.0414
     34 O          -3.8582   -3.9056    0.9569 O.co2   1  UNL1       -0.5760
     35 C          -3.0775   -1.1982    1.1198 C.ar    1  UNL1        0.0197
     36 H          -7.4881    1.7453    1.5341 H       1  UNL1        0.0661
     37 H          -7.2610    3.4498    0.8634 H       1  UNL1        0.0661
     38 H          -8.3322    2.2117    0.0366 H       1  UNL1        0.0661
     39 H          -6.0161    2.0350   -2.3834 H       1  UNL1        0.0290
     40 H          -6.3744    0.3303   -1.8197 H       1  UNL1        0.0290
     41 H          -5.6900    0.6396   -3.4245 H       1  UNL1        0.0290
     42 H          -3.5279    0.0157   -3.7152 H       1  UNL1        0.1516
     43 H          -0.5384   -1.3807   -2.8150 H       1  UNL1        0.0290
     44 H          -1.4187   -0.6013   -4.1786 H       1  UNL1        0.0290
     45 H          -0.1744    0.3068   -3.3081 H       1  UNL1        0.0290
     46 H           2.2359   -1.2531   -0.1586 H       1  UNL1        0.0710
     47 H           2.6011   -0.7811   -1.8342 H       1  UNL1        0.0710
     48 H           2.7931    1.5601   -1.2405 H       1  UNL1        0.0460
     49 H           2.2048    1.2992    0.4085 H       1  UNL1        0.0460
     50 H           4.8667   -0.1126    1.8716 H       1  UNL1        0.0391
     51 H           3.0971    0.0152    1.8085 H       1  UNL1        0.0391
     52 H           3.9370   -1.3073    0.9603 H       1  UNL1        0.0391
     53 H           4.3380   -1.2357   -1.0390 H       1  UNL1        0.0476
     54 H           4.7110    0.3157   -1.9838 H       1  UNL1        0.0476
     55 H           6.0899   -2.1814    0.3616 H       1  UNL1        0.0621
     56 H           8.5114   -2.3409    0.7546 H       1  UNL1        0.0618
     57 H          10.0758   -0.6057   -0.1273 H       1  UNL1        0.0618
     58 H           9.1223    1.2792   -1.4074 H       1  UNL1        0.0618
     59 H           6.7547    1.4158   -1.7795 H       1  UNL1        0.0621
     60 H          -2.2559    1.9966    0.2884 H       1  UNL1        0.0451
     61 H          -2.0916    1.6570    2.5072 H       1  UNL1        0.0621
     62 H          -2.1987    0.2690    4.5235 H       1  UNL1        0.0620
     63 H          -2.8795   -2.1013    4.3780 H       1  UNL1        0.0685
     64 H          -3.3357   -1.6517    0.1646 H       1  UNL1        0.0688
@<TRIPOS>UNITY_ATOM_ATTR
32 1
charge 1
34 1
charge -1
@<TRIPOS>BOND
     1     1     2    1
     2     2     3    1
     3     3     4    2
     4     3     5    1
     5     5     6    2
     6     6     7    1
     7     6     8    1
     8     8     9    1
     9     9    10    1
    10     9    11    2
    11    11    12    1
    12    12    13    2
    13    12    14    1
    14    14    15    1
    15    15    16    1
    16    16    17    1
    17    17    18    1
    18    17    19    1
    19    19    20    1
    20    20    21   ar
    21    21    22   ar
    22    22    23   ar
    23    23    24   ar
    24    24    25   ar
    25    11    26    1
    26    26    27    1
    27    27    28   ar
    28    28    29   ar
    29    29    30   ar
    30    30    31   ar
    31    31    32    1
    32    32    33    2
    33    32    34    1
    34    31    35   ar
    35    26     5    1
    36    35    27   ar
    37    25    20   ar
    38     1    36    1
    39     1    37    1
    40     1    38    1
    41     7    39    1
    42     7    40    1
    43     7    41    1
    44     8    42    1
    45    10    43    1
    46    10    44    1
    47    10    45    1
    48    15    46    1
    49    15    47    1
    50    16    48    1
    51    16    49    1
    52    18    50    1
    53    18    51    1
    54    18    52    1
    55    19    53    1
    56    19    54    1
    57    21    55    1
    58    22    56    1
    59    23    57    1
    60    24    58    1
    61    25    59    1
    62    26    60    1
    63    28    61    1
    64    29    62    1
    65    30    63    1
    66    35    64    1
