@<TRIPOS>MOLECULE
*****
 61 64 0 0 0
SMALL
GASTEIGER

@<TRIPOS>ATOM
      1 C          -1.2428    3.1314   -0.7962 C.3     1  UNL1        0.0788
      2 O          -2.4252    2.9348   -1.5461 O.3     1  UNL1       -0.4951
      3 C          -2.8345    1.6316   -1.7806 C.ar    1  UNL1        0.1204
      4 C          -2.1507    0.5307   -1.3216 C.ar    1  UNL1       -0.0151
      5 C          -2.5520   -0.7599   -1.5516 C.ar    1  UNL1       -0.0243
      6 C          -1.8518   -1.9995   -1.0896 C.3     1  UNL1        0.0491
      7 N          -2.1537   -2.3659    0.2536 N.ar    1  UNL1       -0.3318
      8 C          -1.4887   -1.9672    1.3378 C.ar    1  UNL1        0.1057
      9 C          -2.1512   -2.5592    2.4003 C.ar    1  UNL1       -0.0239
     10 C          -3.1978   -3.2992    1.9148 C.ar    1  UNL1        0.0006
     11 C          -3.1873   -3.1682    0.5544 C.ar    1  UNL1        0.0499
     12 C          -4.1567   -3.8355   -0.1593 C.ar    1  UNL1       -0.0376
     13 C          -5.1249   -4.6181    0.4254 C.ar    1  UNL1       -0.0598
     14 C          -5.1299   -4.7450    1.7974 C.ar    1  UNL1       -0.0611
     15 C          -4.1599   -4.0781    2.5104 C.ar    1  UNL1       -0.0526
     16 C          -0.3366   -1.1677    1.6582 C.2     1  UNL1        0.2608
     17 O           0.0229   -0.8832    2.8560 O.2     1  UNL1       -0.2686
     18 N           0.6404   -0.5246    0.9212 N.am    1  UNL1       -0.3072
     19 C           1.7633    0.2570    1.3545 C.3     1  UNL1        0.0258
     20 C           1.5371    1.6523    0.7848 C.3     1  UNL1       -0.0216
     21 C           2.8043    2.4735    0.7998 C.3     1  UNL1        0.0008
     22 N           3.8573    1.8865    0.0331 N.3     1  UNL1       -0.2998
     23 C           3.6882    0.5080   -0.2754 C.3     1  UNL1        0.0008
     24 C           3.0147   -0.3046    0.7790 C.3     1  UNL1       -0.0216
     25 C           5.1642    2.3269    0.3516 C.3     1  UNL1        0.0048
     26 C           6.1652    1.6374   -0.5494 C.3     1  UNL1       -0.0497
     27 C           5.3164    3.8034    0.1363 C.3     1  UNL1       -0.0497
     28 C          -3.7292   -0.8672   -2.3011 C.ar    1  UNL1       -0.0566
     29 C          -4.4413    0.2136   -2.7776 C.ar    1  UNL1       -0.0580
     30 C          -3.9909    1.4894   -2.5159 C.ar    1  UNL1       -0.0199
     31 H          -0.3858    2.8838   -1.4807 H       1  UNL1        0.0660
     32 H          -1.2563    2.5362    0.1223 H       1  UNL1        0.0660
     33 H          -1.1030    4.2340   -0.5982 H       1  UNL1        0.0660
     34 H          -1.2650    0.6995   -0.7575 H       1  UNL1        0.0657
     35 H          -2.1713   -2.8170   -1.8081 H       1  UNL1        0.0541
     36 H          -0.7839   -1.8778   -1.3037 H       1  UNL1        0.0541
     37 H          -1.9756   -2.5253    3.4836 H       1  UNL1        0.0646
     38 H          -4.1475   -3.7396   -1.2326 H       1  UNL1        0.0638
     39 H          -5.8892   -5.1420   -0.1569 H       1  UNL1        0.0618
     40 H          -5.8613   -5.3429    2.3169 H       1  UNL1        0.0618
     41 H          -4.1736   -4.1843    3.5732 H       1  UNL1        0.0624
     42 H           0.5787   -0.6085   -0.1084 H       1  UNL1        0.1493
     43 H           1.8054    0.3217    2.4623 H       1  UNL1        0.0499
     44 H           1.1413    1.5243   -0.2401 H       1  UNL1        0.0295
     45 H           0.7488    2.1549    1.3789 H       1  UNL1        0.0295
     46 H           2.5527    3.4592    0.3586 H       1  UNL1        0.0427
     47 H           3.0712    2.6512    1.8587 H       1  UNL1        0.0427
     48 H           4.6872    0.0621   -0.4547 H       1  UNL1        0.0427
     49 H           3.1360    0.4272   -1.2350 H       1  UNL1        0.0427
     50 H           3.7304   -0.5005    1.6315 H       1  UNL1        0.0295
     51 H           2.8065   -1.3165    0.3768 H       1  UNL1        0.0295
     52 H           5.4336    2.1300    1.4087 H       1  UNL1        0.0457
     53 H           6.5823    0.7069   -0.1136 H       1  UNL1        0.0245
     54 H           7.0615    2.2914   -0.7309 H       1  UNL1        0.0245
     55 H           5.7525    1.3984   -1.5542 H       1  UNL1        0.0245
     56 H           4.5576    4.4009    0.6658 H       1  UNL1        0.0245
     57 H           5.4614    4.0857   -0.9293 H       1  UNL1        0.0245
     58 H           6.2911    4.0841    0.6324 H       1  UNL1        0.0245
     59 H          -4.1695   -1.8002   -2.5686 H       1  UNL1        0.0621
     60 H          -5.3503    0.1218   -3.3561 H       1  UNL1        0.0619
     61 H          -4.5345    2.3475   -2.8803 H       1  UNL1        0.0654
@<TRIPOS>BOND
     1     1     2    1
     2     2     3    1
     3     3     4   ar
     4     4     5   ar
     5     5     6    1
     6     6     7    1
     7     7     8   ar
     8     8     9   ar
     9     9    10   ar
    10    10    11   ar
    11    11    12   ar
    12    12    13   ar
    13    13    14   ar
    14    14    15   ar
    15     8    16    1
    16    16    17    2
    17    16    18   am
    18    18    19    1
    19    19    20    1
    20    20    21    1
    21    21    22    1
    22    22    23    1
    23    23    24    1
    24    22    25    1
    25    25    26    1
    26    25    27    1
    27     5    28   ar
    28    28    29   ar
    29    29    30   ar
    30    30     3   ar
    31    11     7   ar
    32    24    19    1
    33    15    10   ar
    34     1    31    1
    35     1    32    1
    36     1    33    1
    37     4    34    1
    38     6    35    1
    39     6    36    1
    40     9    37    1
    41    12    38    1
    42    13    39    1
    43    14    40    1
    44    15    41    1
    45    18    42    1
    46    19    43    1
    47    20    44    1
    48    20    45    1
    49    21    46    1
    50    21    47    1
    51    23    48    1
    52    23    49    1
    53    24    50    1
    54    24    51    1
    55    25    52    1
    56    26    53    1
    57    26    54    1
    58    26    55    1
    59    27    56    1
    60    27    57    1
    61    27    58    1
    62    28    59    1
    63    29    60    1
    64    30    61    1
