
     RDKit          3D

 61 64  0  0  0  0  0  0  0  0999 V2000
   -1.2428    3.1314   -0.7962 C   0  0  0  0  0  0  0  0  0  0  0  0
   -2.4252    2.9348   -1.5461 O   0  0  0  0  0  0  0  0  0  0  0  0
   -2.8345    1.6316   -1.7806 C   0  0  0  0  0  0  0  0  0  0  0  0
   -2.1507    0.5307   -1.3216 C   0  0  0  0  0  0  0  0  0  0  0  0
   -2.5520   -0.7599   -1.5516 C   0  0  0  0  0  0  0  0  0  0  0  0
   -1.8518   -1.9995   -1.0896 C   0  0  0  0  0  0  0  0  0  0  0  0
   -2.1537   -2.3659    0.2536 N   0  0  0  0  0  0  0  0  0  0  0  0
   -1.4887   -1.9672    1.3378 C   0  0  0  0  0  0  0  0  0  0  0  0
   -2.1512   -2.5592    2.4003 C   0  0  0  0  0  0  0  0  0  0  0  0
   -3.1978   -3.2992    1.9148 C   0  0  0  0  0  0  0  0  0  0  0  0
   -3.1873   -3.1682    0.5544 C   0  0  0  0  0  0  0  0  0  0  0  0
   -4.1567   -3.8355   -0.1593 C   0  0  0  0  0  0  0  0  0  0  0  0
   -5.1249   -4.6181    0.4254 C   0  0  0  0  0  0  0  0  0  0  0  0
   -5.1299   -4.7450    1.7974 C   0  0  0  0  0  0  0  0  0  0  0  0
   -4.1599   -4.0781    2.5104 C   0  0  0  0  0  0  0  0  0  0  0  0
   -0.3366   -1.1677    1.6582 C   0  0  0  0  0  0  0  0  0  0  0  0
    0.0229   -0.8832    2.8560 O   0  0  0  0  0  0  0  0  0  0  0  0
    0.6404   -0.5246    0.9212 N   0  0  0  0  0  0  0  0  0  0  0  0
    1.7633    0.2570    1.3545 C   0  0  0  0  0  0  0  0  0  0  0  0
    1.5371    1.6523    0.7848 C   0  0  0  0  0  0  0  0  0  0  0  0
    2.8043    2.4735    0.7998 C   0  0  0  0  0  0  0  0  0  0  0  0
    3.8573    1.8865    0.0331 N   0  0  0  0  0  0  0  0  0  0  0  0
    3.6882    0.5080   -0.2754 C   0  0  0  0  0  0  0  0  0  0  0  0
    3.0147   -0.3046    0.7790 C   0  0  0  0  0  0  0  0  0  0  0  0
    5.1642    2.3269    0.3516 C   0  0  0  0  0  0  0  0  0  0  0  0
    6.1652    1.6374   -0.5494 C   0  0  0  0  0  0  0  0  0  0  0  0
    5.3164    3.8034    0.1363 C   0  0  0  0  0  0  0  0  0  0  0  0
   -3.7292   -0.8672   -2.3011 C   0  0  0  0  0  0  0  0  0  0  0  0
   -4.4413    0.2136   -2.7776 C   0  0  0  0  0  0  0  0  0  0  0  0
   -3.9909    1.4894   -2.5159 C   0  0  0  0  0  0  0  0  0  0  0  0
   -0.3858    2.8838   -1.4807 H   0  0  0  0  0  0  0  0  0  0  0  0
   -1.2563    2.5362    0.1223 H   0  0  0  0  0  0  0  0  0  0  0  0
   -1.1030    4.2340   -0.5982 H   0  0  0  0  0  0  0  0  0  0  0  0
   -1.2650    0.6995   -0.7575 H   0  0  0  0  0  0  0  0  0  0  0  0
   -2.1713   -2.8170   -1.8081 H   0  0  0  0  0  0  0  0  0  0  0  0
   -0.7839   -1.8778   -1.3037 H   0  0  0  0  0  0  0  0  0  0  0  0
   -1.9756   -2.5253    3.4836 H   0  0  0  0  0  0  0  0  0  0  0  0
   -4.1475   -3.7396   -1.2326 H   0  0  0  0  0  0  0  0  0  0  0  0
   -5.8892   -5.1420   -0.1569 H   0  0  0  0  0  0  0  0  0  0  0  0
   -5.8613   -5.3429    2.3169 H   0  0  0  0  0  0  0  0  0  0  0  0
   -4.1736   -4.1843    3.5732 H   0  0  0  0  0  0  0  0  0  0  0  0
    0.5787   -0.6085   -0.1084 H   0  0  0  0  0  0  0  0  0  0  0  0
    1.8054    0.3217    2.4623 H   0  0  0  0  0  0  0  0  0  0  0  0
    1.1413    1.5243   -0.2401 H   0  0  0  0  0  0  0  0  0  0  0  0
    0.7488    2.1549    1.3789 H   0  0  0  0  0  0  0  0  0  0  0  0
    2.5527    3.4592    0.3586 H   0  0  0  0  0  0  0  0  0  0  0  0
    3.0712    2.6512    1.8587 H   0  0  0  0  0  0  0  0  0  0  0  0
    4.6872    0.0621   -0.4547 H   0  0  0  0  0  0  0  0  0  0  0  0
    3.1360    0.4272   -1.2350 H   0  0  0  0  0  0  0  0  0  0  0  0
    3.7304   -0.5005    1.6315 H   0  0  0  0  0  0  0  0  0  0  0  0
    2.8065   -1.3165    0.3768 H   0  0  0  0  0  0  0  0  0  0  0  0
    5.4336    2.1300    1.4087 H   0  0  0  0  0  0  0  0  0  0  0  0
    6.5823    0.7069   -0.1136 H   0  0  0  0  0  0  0  0  0  0  0  0
    7.0615    2.2914   -0.7309 H   0  0  0  0  0  0  0  0  0  0  0  0
    5.7525    1.3984   -1.5542 H   0  0  0  0  0  0  0  0  0  0  0  0
    4.5576    4.4009    0.6658 H   0  0  0  0  0  0  0  0  0  0  0  0
    5.4614    4.0857   -0.9293 H   0  0  0  0  0  0  0  0  0  0  0  0
    6.2911    4.0841    0.6324 H   0  0  0  0  0  0  0  0  0  0  0  0
   -4.1695   -1.8002   -2.5686 H   0  0  0  0  0  0  0  0  0  0  0  0
   -5.3503    0.1218   -3.3561 H   0  0  0  0  0  0  0  0  0  0  0  0
   -4.5345    2.3475   -2.8803 H   0  0  0  0  0  0  0  0  0  0  0  0
  1  2  1  0
  2  3  1  0
  3  4  2  0
  4  5  1  0
  5  6  1  0
  6  7  1  0
  7  8  1  0
  8  9  2  0
  9 10  1  0
 10 11  2  0
 11 12  1  0
 12 13  2  0
 13 14  1  0
 14 15  2  0
  8 16  1  0
 16 17  2  0
 16 18  1  0
 18 19  1  0
 19 20  1  0
 20 21  1  0
 21 22  1  0
 22 23  1  0
 23 24  1  0
 22 25  1  0
 25 26  1  0
 25 27  1  0
  5 28  2  0
 28 29  1  0
 29 30  2  0
 30  3  1  0
 11  7  1  0
 24 19  1  0
 15 10  1  0
  1 31  1  0
  1 32  1  0
  1 33  1  0
  4 34  1  0
  6 35  1  0
  6 36  1  0
  9 37  1  0
 12 38  1  0
 13 39  1  0
 14 40  1  0
 15 41  1  0
 18 42  1  0
 19 43  1  0
 20 44  1  0
 20 45  1  0
 21 46  1  0
 21 47  1  0
 23 48  1  0
 23 49  1  0
 24 50  1  0
 24 51  1  0
 25 52  1  0
 26 53  1  0
 26 54  1  0
 26 55  1  0
 27 56  1  0
 27 57  1  0
 27 58  1  0
 28 59  1  0
 29 60  1  0
 30 61  1  0
M  END
$$$$
