
     RDKit          3D

 75 79  0  0  0  0  0  0  0  0999 V2000
   -6.0269    2.3551    0.5368 C   0  0  0  0  0  0  0  0  0  0  0  0
   -6.2433    1.1465   -0.1643 N   0  0  0  0  0  0  0  0  0  0  0  0
   -7.5383    0.5850   -0.0755 C   0  0  0  0  0  0  0  0  0  0  0  0
   -8.4397    1.2108    0.5994 O   0  0  0  0  0  0  0  0  0  0  0  0
   -7.8857   -0.5889   -0.6748 O   0  0  0  0  0  0  0  0  0  0  0  0
   -9.1101   -1.2709   -0.7278 C   0  0  0  0  0  0  0  0  0  0  0  0
  -10.0712   -0.4904   -1.5848 C   0  0  0  0  0  0  0  0  0  0  0  0
   -9.6645   -1.4674    0.6727 C   0  0  0  0  0  0  0  0  0  0  0  0
   -8.8490   -2.6207   -1.3440 C   0  0  0  0  0  0  0  0  0  0  0  0
   -5.2694    0.5077   -1.1224 C   0  0  0  0  0  0  0  0  0  0  0  0
   -4.0166    1.2793   -1.0912 C   0  0  0  0  0  0  0  0  0  0  0  0
   -3.5638    1.6017   -2.2426 O   0  0  0  0  0  0  0  0  0  0  0  0
   -3.3891    1.6235    0.1218 N   0  0  0  0  0  0  0  0  0  0  0  0
   -2.4912    2.5701    0.7314 C   0  0  0  0  0  0  0  0  0  0  0  0
   -2.2502    1.5934    1.9378 C   0  0  0  0  0  0  0  0  0  0  0  0
   -0.8262    1.1303    1.7052 C   0  0  0  0  0  0  0  0  0  0  0  0
    0.2811    0.7792    1.5208 C   0  0  0  0  0  0  0  0  0  0  0  0
    1.6500    0.3265    1.2732 C   0  0  0  0  0  0  0  0  0  0  0  0
    2.2317    1.2257    0.3165 C   0  0  0  0  0  0  0  0  0  0  0  0
    3.4764    0.9728   -0.1792 C   0  0  0  0  0  0  0  0  0  0  0  0
    4.0883   -0.1459    0.2639 C   0  0  0  0  0  0  0  0  0  0  0  0
    5.3105   -0.4600   -0.2040 C   0  0  0  0  0  0  0  0  0  0  0  0
    5.8401    0.3420   -1.0449 O   0  0  0  0  0  0  0  0  0  0  0  0
    6.0229   -1.5767    0.1608 C   0  0  0  0  0  0  0  0  0  0  0  0
    7.4481   -1.5721   -0.3485 C   0  0  0  0  0  0  0  0  0  0  0  0
    8.4801   -1.6630    0.5781 C   0  0  0  0  0  0  0  0  0  0  0  0
    9.7101   -1.1588    0.2093 C   0  0  0  0  0  0  0  0  0  0  0  0
    9.9898   -0.5719   -0.9982 C   0  0  0  0  0  0  0  0  0  0  0  0
   11.1248    0.2413   -1.2497 N   0  0  0  0  0  0  0  0  0  0  0  0
   11.5156    1.5070   -0.1091 S   0  0  0  0  0  6  0  0  0  0  0  0
   11.8762    0.7536    1.4311 C   0  0  0  0  0  0  0  0  0  0  0  0
   12.5345    2.3988   -0.7077 O   0  0  0  0  0  0  0  0  0  0  0  0
   10.1946    2.2854    0.0591 O   0  0  0  0  0  0  0  0  0  0  0  0
    8.9389   -0.5167   -1.9235 C   0  0  0  0  0  0  0  0  0  0  0  0
    7.6769   -1.0333   -1.5414 C   0  0  0  0  0  0  0  0  0  0  0  0
    5.4326   -2.3970    1.0564 C   0  0  0  0  0  0  0  0  0  0  0  0
    4.2209   -2.0226    1.4918 O   0  0  0  0  0  0  0  0  0  0  0  0
    3.5105   -1.0375    1.2275 C   0  0  0  0  0  0  0  0  0  0  0  0
    2.2911   -0.7699    1.7363 C   0  0  0  0  0  0  0  0  0  0  0  0
   -3.2517    0.7635    1.3455 C   0  0  0  0  0  0  0  0  0  0  0  0
   -5.6376   -0.3986   -2.1885 C   0  0  0  0  0  0  0  0  0  0  0  0
   -5.1066   -1.0037   -0.9284 C   0  0  0  0  0  0  0  0  0  0  0  0
   -5.7038    2.0604    1.5932 H   0  0  0  0  0  0  0  0  0  0  0  0
   -6.8592    3.0545    0.7013 H   0  0  0  0  0  0  0  0  0  0  0  0
   -5.2051    3.0051    0.0724 H   0  0  0  0  0  0  0  0  0  0  0  0
  -10.4699    0.3435   -0.8913 H   0  0  0  0  0  0  0  0  0  0  0  0
  -10.8878   -1.0643   -1.9579 H   0  0  0  0  0  0  0  0  0  0  0  0
   -9.6043    0.0294   -2.4606 H   0  0  0  0  0  0  0  0  0  0  0  0
  -10.1371   -0.4817    0.9808 H   0  0  0  0  0  0  0  0  0  0  0  0
  -10.4132   -2.2291    0.6598 H   0  0  0  0  0  0  0  0  0  0  0  0
   -8.8502   -1.6336    1.3848 H   0  0  0  0  0  0  0  0  0  0  0  0
   -8.5174   -2.4080   -2.3696 H   0  0  0  0  0  0  0  0  0  0  0  0
   -9.8273   -3.1302   -1.2806 H   0  0  0  0  0  0  0  0  0  0  0  0
   -8.1230   -3.2272   -0.7385 H   0  0  0  0  0  0  0  0  0  0  0  0
   -1.5292    2.6496    0.1244 H   0  0  0  0  0  0  0  0  0  0  0  0
   -2.9120    3.4908    1.0042 H   0  0  0  0  0  0  0  0  0  0  0  0
   -2.3777    2.0908    2.8966 H   0  0  0  0  0  0  0  0  0  0  0  0
    1.7032    2.0912   -0.0572 H   0  0  0  0  0  0  0  0  0  0  0  0
    3.9391    1.6106   -0.9464 H   0  0  0  0  0  0  0  0  0  0  0  0
    8.3064   -2.1046    1.5335 H   0  0  0  0  0  0  0  0  0  0  0  0
   10.5765   -1.2522    0.8610 H   0  0  0  0  0  0  0  0  0  0  0  0
   11.6672    0.0921   -2.0634 H   0  0  0  0  0  0  0  0  0  0  0  0
   10.9633    0.5219    2.0841 H   0  0  0  0  0  0  0  0  0  0  0  0
   12.4213   -0.1845    1.3206 H   0  0  0  0  0  0  0  0  0  0  0  0
   12.4829    1.4170    2.0865 H   0  0  0  0  0  0  0  0  0  0  0  0
    9.0642   -0.1135   -2.9000 H   0  0  0  0  0  0  0  0  0  0  0  0
    6.9254   -0.9890   -2.3463 H   0  0  0  0  0  0  0  0  0  0  0  0
    5.9350   -3.2879    1.3704 H   0  0  0  0  0  0  0  0  0  0  0  0
    1.8072   -1.4026    2.4509 H   0  0  0  0  0  0  0  0  0  0  0  0
   -4.1607    0.6474    1.8898 H   0  0  0  0  0  0  0  0  0  0  0  0
   -2.9233   -0.2485    1.0269 H   0  0  0  0  0  0  0  0  0  0  0  0
   -6.6825   -0.4640   -2.5192 H   0  0  0  0  0  0  0  0  0  0  0  0
   -4.9632   -0.3768   -3.0926 H   0  0  0  0  0  0  0  0  0  0  0  0
   -5.7972   -1.5129   -0.2691 H   0  0  0  0  0  0  0  0  0  0  0  0
   -4.0620   -1.4272   -0.9588 H   0  0  0  0  0  0  0  0  0  0  0  0
  1  2  1  0
  2  3  1  0
  3  4  2  0
  3  5  1  0
  5  6  1  0
  6  7  1  0
  6  8  1  0
  6  9  1  0
  2 10  1  0
 10 11  1  0
 11 12  2  0
 11 13  1  0
 13 14  1  0
 14 15  1  0
 15 16  1  0
 16 17  3  0
 17 18  1  0
 18 19  2  0
 19 20  1  0
 20 21  2  0
 21 22  1  0
 22 23  2  0
 22 24  1  0
 24 25  1  0
 25 26  2  0
 26 27  1  0
 27 28  2  0
 28 29  1  0
 29 30  1  0
 30 31  1  0
 30 32  2  0
 30 33  2  0
 28 34  1  0
 34 35  2  0
 24 36  2  0
 36 37  1  0
 37 38  1  0
 38 39  2  0
 15 40  1  0
 10 41  1  0
 41 42  1  0
 42 10  1  0
 40 13  1  0
 39 18  1  0
 38 21  1  0
 35 25  1  0
  1 43  1  0
  1 44  1  0
  1 45  1  0
  7 46  1  0
  7 47  1  0
  7 48  1  0
  8 49  1  0
  8 50  1  0
  8 51  1  0
  9 52  1  0
  9 53  1  0
  9 54  1  0
 14 55  1  0
 14 56  1  0
 15 57  1  0
 19 58  1  0
 20 59  1  0
 26 60  1  0
 27 61  1  0
 29 62  1  0
 31 63  1  0
 31 64  1  0
 31 65  1  0
 34 66  1  0
 35 67  1  0
 36 68  1  0
 39 69  1  0
 40 70  1  0
 40 71  1  0
 41 72  1  0
 41 73  1  0
 42 74  1  0
 42 75  1  0
M  END
$$$$
