@<TRIPOS>MOLECULE
*****
 75 79 0 0 0
SMALL
GASTEIGER

@<TRIPOS>ATOM
      1 C          -6.0269    2.3551    0.5368 C.3     1  UNL1        0.0073
      2 N          -6.2433    1.1465   -0.1643 N.am    1  UNL1       -0.2562
      3 C          -7.5383    0.5850   -0.0755 C.2     1  UNL1        0.4039
      4 O          -8.4397    1.2108    0.5994 O.2     1  UNL1       -0.2262
      5 O          -7.8857   -0.5889   -0.6748 O.3     1  UNL1       -0.4445
      6 C          -9.1101   -1.2709   -0.7278 C.3     1  UNL1        0.1068
      7 C         -10.0712   -0.4904   -1.5848 C.3     1  UNL1       -0.0253
      8 C          -9.6645   -1.4674    0.6727 C.3     1  UNL1       -0.0253
      9 C          -8.8490   -2.6207   -1.3440 C.3     1  UNL1       -0.0253
     10 C          -5.2694    0.5077   -1.1224 C.3     1  UNL1        0.1164
     11 C          -4.0166    1.2793   -1.0912 C.2     1  UNL1        0.2394
     12 O          -3.5638    1.6017   -2.2426 O.2     1  UNL1       -0.2732
     13 N          -3.3891    1.6235    0.1218 N.am    1  UNL1       -0.2973
     14 C          -2.4912    2.5701    0.7314 C.3     1  UNL1        0.0299
     15 C          -2.2502    1.5934    1.9378 C.3     1  UNL1        0.0524
     16 C          -0.8262    1.1303    1.7052 C.1     1  UNL1       -0.0905
     17 C           0.2811    0.7792    1.5208 C.1     1  UNL1       -0.0658
     18 C           1.6500    0.3265    1.2732 C.ar    1  UNL1        0.0285
     19 C           2.2317    1.2257    0.3165 C.ar    1  UNL1       -0.0454
     20 C           3.4764    0.9728   -0.1792 C.ar    1  UNL1       -0.0462
     21 C           4.0883   -0.1459    0.2639 C.ar    1  UNL1        0.0646
     22 C           5.3105   -0.4600   -0.2040 C.ar    1  UNL1        0.2001
     23 O           5.8401    0.3420   -1.0449 O.2     1  UNL1       -0.2864
     24 C           6.0229   -1.5767    0.1608 C.ar    1  UNL1        0.0643
     25 C           7.4481   -1.5721   -0.3485 C.ar    1  UNL1       -0.0112
     26 C           8.4801   -1.6630    0.5781 C.ar    1  UNL1       -0.0520
     27 C           9.7101   -1.1588    0.2093 C.ar    1  UNL1       -0.0388
     28 C           9.9898   -0.5719   -0.9982 C.ar    1  UNL1        0.0477
     29 N          11.1248    0.2413   -1.2497 N.pl3   1  UNL1       -0.2209
     30 S          11.5156    1.5070   -0.1091 S.O2    1  UNL1        0.0403
     31 C          11.8762    0.7536    1.4311 C.3     1  UNL1        0.0736
     32 O          12.5345    2.3988   -0.7077 O.2     1  UNL1       -0.1555
     33 O          10.1946    2.2854    0.0591 O.2     1  UNL1       -0.1555
     34 C           8.9389   -0.5167   -1.9235 C.ar    1  UNL1       -0.0388
     35 C           7.6769   -1.0333   -1.5414 C.ar    1  UNL1       -0.0520
     36 C           5.4326   -2.3970    1.0564 C.ar    1  UNL1        0.1038
     37 O           4.2209   -2.0226    1.4918 O.2     1  UNL1       -0.4621
     38 C           3.5105   -1.0375    1.2275 C.ar    1  UNL1        0.1396
     39 C           2.2911   -0.7699    1.7363 C.ar    1  UNL1       -0.0032
     40 C          -3.2517    0.7635    1.3455 C.3     1  UNL1        0.0299
     41 C          -5.6376   -0.3986   -2.1885 C.3     1  UNL1       -0.0203
     42 C          -5.1066   -1.0037   -0.9284 C.3     1  UNL1       -0.0203
     43 H          -5.7038    2.0604    1.5932 H       1  UNL1        0.0430
     44 H          -6.8592    3.0545    0.7013 H       1  UNL1        0.0430
     45 H          -5.2051    3.0051    0.0724 H       1  UNL1        0.0430
     46 H         -10.4699    0.3435   -0.8913 H       1  UNL1        0.0268
     47 H         -10.8878   -1.0643   -1.9579 H       1  UNL1        0.0268
     48 H          -9.6043    0.0294   -2.4606 H       1  UNL1        0.0268
     49 H         -10.1371   -0.4817    0.9808 H       1  UNL1        0.0268
     50 H         -10.4132   -2.2291    0.6598 H       1  UNL1        0.0268
     51 H          -8.8502   -1.6336    1.3848 H       1  UNL1        0.0268
     52 H          -8.5174   -2.4080   -2.3696 H       1  UNL1        0.0268
     53 H          -9.8273   -3.1302   -1.2806 H       1  UNL1        0.0268
     54 H          -8.1230   -3.2272   -0.7385 H       1  UNL1        0.0268
     55 H          -1.5292    2.6496    0.1244 H       1  UNL1        0.0477
     56 H          -2.9120    3.4908    1.0042 H       1  UNL1        0.0477
     57 H          -2.3777    2.0908    2.8966 H       1  UNL1        0.0464
     58 H           1.7032    2.0912   -0.0572 H       1  UNL1        0.0630
     59 H           3.9391    1.6106   -0.9464 H       1  UNL1        0.0626
     60 H           8.3064   -2.1046    1.5335 H       1  UNL1        0.0624
     61 H          10.5765   -1.2522    0.8610 H       1  UNL1        0.0637
     62 H          11.6672    0.0921   -2.0634 H       1  UNL1        0.1733
     63 H          10.9633    0.5219    2.0841 H       1  UNL1        0.0482
     64 H          12.4213   -0.1845    1.3206 H       1  UNL1        0.0482
     65 H          12.4829    1.4170    2.0865 H       1  UNL1        0.0482
     66 H           9.0642   -0.1135   -2.9000 H       1  UNL1        0.0637
     67 H           6.9254   -0.9890   -2.3463 H       1  UNL1        0.0624
     68 H           5.9350   -3.2879    1.3704 H       1  UNL1        0.1037
     69 H           1.8072   -1.4026    2.4509 H       1  UNL1        0.0667
     70 H          -4.1607    0.6474    1.8898 H       1  UNL1        0.0477
     71 H          -2.9233   -0.2485    1.0269 H       1  UNL1        0.0477
     72 H          -6.6825   -0.4640   -2.5192 H       1  UNL1        0.0291
     73 H          -4.9632   -0.3768   -3.0926 H       1  UNL1        0.0291
     74 H          -5.7972   -1.5129   -0.2691 H       1  UNL1        0.0291
     75 H          -4.0620   -1.4272   -0.9588 H       1  UNL1        0.0291
@<TRIPOS>BOND
     1     1     2    1
     2     2     3   am
     3     3     4    2
     4     3     5    1
     5     5     6    1
     6     6     7    1
     7     6     8    1
     8     6     9    1
     9     2    10    1
    10    10    11    1
    11    11    12    2
    12    11    13   am
    13    13    14    1
    14    14    15    1
    15    15    16    1
    16    16    17    3
    17    17    18    1
    18    18    19   ar
    19    19    20   ar
    20    20    21   ar
    21    21    22   ar
    22    22    23    2
    23    22    24   ar
    24    24    25    1
    25    25    26   ar
    26    26    27   ar
    27    27    28   ar
    28    28    29    1
    29    29    30    1
    30    30    31    1
    31    30    32    2
    32    30    33    2
    33    28    34   ar
    34    34    35   ar
    35    24    36   ar
    36    36    37   ar
    37    37    38   ar
    38    38    39   ar
    39    15    40    1
    40    10    41    1
    41    41    42    1
    42    42    10    1
    43    40    13    1
    44    39    18   ar
    45    38    21   ar
    46    35    25   ar
    47     1    43    1
    48     1    44    1
    49     1    45    1
    50     7    46    1
    51     7    47    1
    52     7    48    1
    53     8    49    1
    54     8    50    1
    55     8    51    1
    56     9    52    1
    57     9    53    1
    58     9    54    1
    59    14    55    1
    60    14    56    1
    61    15    57    1
    62    19    58    1
    63    20    59    1
    64    26    60    1
    65    27    61    1
    66    29    62    1
    67    31    63    1
    68    31    64    1
    69    31    65    1
    70    34    66    1
    71    35    67    1
    72    36    68    1
    73    39    69    1
    74    40    70    1
    75    40    71    1
    76    41    72    1
    77    41    73    1
    78    42    74    1
    79    42    75    1
