@<TRIPOS>MOLECULE
*****
 30 32 0 0 0
SMALL
GASTEIGER

@<TRIPOS>ATOM
      1 O          -1.7101    1.5943    2.7807 O.2     1  UNL1       -0.2869
      2 C          -1.2541    0.9944    1.7768 C.ar    1  UNL1        0.1966
      3 C           0.1232    0.8133    1.5896 C.ar    1  UNL1        0.0288
      4 C           0.5705    0.1491    0.4728 C.ar    1  UNL1        0.1392
      5 C           1.9775   -0.0634    0.2336 C.ar    1  UNL1        0.0176
      6 C           2.9228    0.3893    1.1119 C.ar    1  UNL1       -0.0476
      7 C           4.2716    0.1643    0.8455 C.ar    1  UNL1       -0.0195
      8 C           4.6999   -0.5020   -0.2771 C.ar    1  UNL1        0.1169
      9 O           6.0534   -0.7290   -0.5464 O.3     1  UNL1       -0.5068
     10 C           3.7322   -0.9508   -1.1506 C.ar    1  UNL1       -0.0195
     11 C           2.3960   -0.7384   -0.9049 C.ar    1  UNL1       -0.0476
     12 O          -0.2892   -0.3220   -0.4296 O.2     1  UNL1       -0.4544
     13 C          -1.5834   -0.1807   -0.3040 C.ar    1  UNL1        0.1462
     14 C          -2.4650   -0.6852   -1.2667 C.ar    1  UNL1        0.0231
     15 C          -3.8312   -0.5480   -1.1551 C.ar    1  UNL1        0.1239
     16 O          -4.7159   -1.0471   -2.1085 O.3     1  UNL1       -0.5065
     17 C          -4.3151    0.1122   -0.0486 C.ar    1  UNL1        0.0223
     18 C          -3.4571    0.6160    0.9106 C.ar    1  UNL1        0.1347
     19 O          -3.9220    1.2866    2.0370 O.3     1  UNL1       -0.5058
     20 C          -2.0751    0.4785    0.8000 C.ar    1  UNL1        0.1055
     21 H           0.7848    1.2140    2.3506 H       1  UNL1        0.0693
     22 H           2.6962    0.9205    2.0175 H       1  UNL1        0.0626
     23 H           5.0514    0.5175    1.5346 H       1  UNL1        0.0654
     24 H           6.7218    0.0382   -0.6361 H       1  UNL1        0.2921
     25 H           4.0309   -1.4843   -2.0534 H       1  UNL1        0.0654
     26 H           1.6357   -1.0971   -1.6020 H       1  UNL1        0.0626
     27 H          -2.0746   -1.2055   -2.1378 H       1  UNL1        0.0691
     28 H          -5.6745   -1.2394   -1.8134 H       1  UNL1        0.2921
     29 H          -5.3989    0.2494    0.0895 H       1  UNL1        0.0691
     30 H          -4.9018    1.2553    2.3300 H       1  UNL1        0.2922
@<TRIPOS>BOND
     1     1     2    2
     2     2     3   ar
     3     3     4   ar
     4     4     5    1
     5     5     6   ar
     6     6     7   ar
     7     7     8   ar
     8     8     9    1
     9     8    10   ar
    10    10    11   ar
    11     4    12   ar
    12    12    13   ar
    13    13    14   ar
    14    14    15   ar
    15    15    16    1
    16    15    17   ar
    17    17    18   ar
    18    18    19    1
    19    18    20   ar
    20    20     2   ar
    21    11     5   ar
    22    20    13   ar
    23     3    21    1
    24     6    22    1
    25     7    23    1
    26     9    24    1
    27    10    25    1
    28    11    26    1
    29    14    27    1
    30    16    28    1
    31    17    29    1
    32    19    30    1
