
     RDKit          3D

 30 32  0  0  0  0  0  0  0  0999 V2000
   -1.7101    1.5943    2.7807 O   0  0  0  0  0  0  0  0  0  0  0  0
   -1.2541    0.9944    1.7768 C   0  0  0  0  0  0  0  0  0  0  0  0
    0.1232    0.8133    1.5896 C   0  0  0  0  0  0  0  0  0  0  0  0
    0.5705    0.1491    0.4728 C   0  0  0  0  0  0  0  0  0  0  0  0
    1.9775   -0.0634    0.2336 C   0  0  0  0  0  0  0  0  0  0  0  0
    2.9228    0.3893    1.1119 C   0  0  0  0  0  0  0  0  0  0  0  0
    4.2716    0.1643    0.8455 C   0  0  0  0  0  0  0  0  0  0  0  0
    4.6999   -0.5020   -0.2771 C   0  0  0  0  0  0  0  0  0  0  0  0
    6.0534   -0.7290   -0.5464 O   0  0  0  0  0  0  0  0  0  0  0  0
    3.7322   -0.9508   -1.1506 C   0  0  0  0  0  0  0  0  0  0  0  0
    2.3960   -0.7384   -0.9049 C   0  0  0  0  0  0  0  0  0  0  0  0
   -0.2892   -0.3220   -0.4296 O   0  0  0  0  0  0  0  0  0  0  0  0
   -1.5834   -0.1807   -0.3040 C   0  0  0  0  0  0  0  0  0  0  0  0
   -2.4650   -0.6852   -1.2667 C   0  0  0  0  0  0  0  0  0  0  0  0
   -3.8312   -0.5480   -1.1551 C   0  0  0  0  0  0  0  0  0  0  0  0
   -4.7159   -1.0471   -2.1085 O   0  0  0  0  0  0  0  0  0  0  0  0
   -4.3151    0.1122   -0.0486 C   0  0  0  0  0  0  0  0  0  0  0  0
   -3.4571    0.6160    0.9106 C   0  0  0  0  0  0  0  0  0  0  0  0
   -3.9220    1.2866    2.0370 O   0  0  0  0  0  0  0  0  0  0  0  0
   -2.0751    0.4785    0.8000 C   0  0  0  0  0  0  0  0  0  0  0  0
    0.7848    1.2140    2.3506 H   0  0  0  0  0  0  0  0  0  0  0  0
    2.6962    0.9205    2.0175 H   0  0  0  0  0  0  0  0  0  0  0  0
    5.0514    0.5175    1.5346 H   0  0  0  0  0  0  0  0  0  0  0  0
    6.7218    0.0382   -0.6361 H   0  0  0  0  0  0  0  0  0  0  0  0
    4.0309   -1.4843   -2.0534 H   0  0  0  0  0  0  0  0  0  0  0  0
    1.6357   -1.0971   -1.6020 H   0  0  0  0  0  0  0  0  0  0  0  0
   -2.0746   -1.2055   -2.1378 H   0  0  0  0  0  0  0  0  0  0  0  0
   -5.6745   -1.2394   -1.8134 H   0  0  0  0  0  0  0  0  0  0  0  0
   -5.3989    0.2494    0.0895 H   0  0  0  0  0  0  0  0  0  0  0  0
   -4.9018    1.2553    2.3300 H   0  0  0  0  0  0  0  0  0  0  0  0
  1  2  2  0
  2  3  1  0
  3  4  2  0
  4  5  1  0
  5  6  2  0
  6  7  1  0
  7  8  2  0
  8  9  1  0
  8 10  1  0
 10 11  2  0
  4 12  1  0
 12 13  1  0
 13 14  2  0
 14 15  1  0
 15 16  1  0
 15 17  2  0
 17 18  1  0
 18 19  1  0
 18 20  2  0
 20  2  1  0
 11  5  1  0
 20 13  1  0
  3 21  1  0
  6 22  1  0
  7 23  1  0
  9 24  1  0
 10 25  1  0
 11 26  1  0
 14 27  1  0
 16 28  1  0
 17 29  1  0
 19 30  1  0
M  END
$$$$
