
     RDKit          3D

 57 59  0  0  0  0  0  0  0  0999 V2000
    7.6588    0.4226    2.9168 C   0  0  0  0  0  0  0  0  0  0  0  0
    8.1974   -0.2299    1.9158 C   0  0  0  0  0  0  0  0  0  0  0  0
    7.9136   -1.6715    1.6321 C   0  0  0  0  0  0  0  0  0  0  0  0
    7.2999   -1.7997    0.2311 C   0  0  0  0  0  0  0  0  0  0  0  0
    6.0336   -0.9871    0.2599 C   0  0  0  0  0  0  0  0  0  0  0  0
    5.3082   -0.9972   -1.0114 C   0  0  0  0  0  0  0  0  0  0  0  0
    5.7259   -1.6388   -2.0206 O   0  0  0  0  0  0  0  0  0  0  0  0
    4.0988   -0.2710   -1.1328 N   0  0  0  0  0  0  0  0  0  0  0  0
    3.3135    0.5606   -0.2454 C   0  0  0  0  0  0  0  0  0  0  0  0
    2.1280    0.1264   -1.0562 C   0  0  1  0  0  0  0  0  0  0  0  0
    1.0713    1.1773   -1.2800 C   0  0  1  0  0  0  0  0  0  0  0  0
    1.6175    2.3845   -2.0098 C   0  0  0  0  0  0  0  0  0  0  0  0
    0.0177    0.5666   -1.9850 O   0  0  0  0  0  0  0  0  0  0  0  0
   -1.2194    0.4511   -1.3782 C   0  0  0  0  0  0  0  0  0  0  0  0
   -1.3629    0.8931   -0.2219 O   0  0  0  0  0  0  0  0  0  0  0  0
   -2.3557   -0.1873   -2.0902 C   0  0  0  0  0  0  0  0  0  0  0  0
   -3.5299   -0.1709   -1.2171 C   0  0  0  0  0  0  0  0  0  0  0  0
   -3.8249   -1.1912   -0.3375 C   0  0  0  0  0  0  0  0  0  0  0  0
   -4.9460   -1.1353    0.4696 C   0  0  0  0  0  0  0  0  0  0  0  0
   -5.8175   -0.0636    0.4341 C   0  0  0  0  0  0  0  0  0  0  0  0
   -7.0024   -0.0140    1.2925 C   0  0  0  0  0  0  0  0  0  0  0  0
   -7.4611    1.2091    1.7250 C   0  0  0  0  0  0  0  0  0  0  0  0
   -8.5780    1.2811    2.5357 C   0  0  0  0  0  0  0  0  0  0  0  0
   -9.2280    0.1165    2.9070 C   0  0  0  0  0  0  0  0  0  0  0  0
   -8.7893   -1.1252    2.4874 C   0  0  0  0  0  0  0  0  0  0  0  0
   -7.6766   -1.1524    1.6834 C   0  0  0  0  0  0  0  0  0  0  0  0
   -5.5153    0.9552   -0.4498 C   0  0  0  0  0  0  0  0  0  0  0  0
   -4.3954    0.9019   -1.2577 C   0  0  0  0  0  0  0  0  0  0  0  0
    3.1234   -0.0245   -2.1393 C   0  0  0  0  0  0  0  0  0  0  0  0
    3.1694    0.0267   -3.4114 O   0  0  0  0  0  0  0  0  0  0  0  0
    7.9030    1.4626    3.0698 H   0  0  0  0  0  0  0  0  0  0  0  0
    6.9645   -0.0115    3.6279 H   0  0  0  0  0  0  0  0  0  0  0  0
    8.8829    0.2649    1.2441 H   0  0  0  0  0  0  0  0  0  0  0  0
    7.1086   -1.9827    2.3309 H   0  0  0  0  0  0  0  0  0  0  0  0
    8.7891   -2.3070    1.7632 H   0  0  0  0  0  0  0  0  0  0  0  0
    8.0516   -1.3941   -0.4768 H   0  0  0  0  0  0  0  0  0  0  0  0
    7.1023   -2.8663    0.0667 H   0  0  0  0  0  0  0  0  0  0  0  0
    5.4238   -1.3691    1.1188 H   0  0  0  0  0  0  0  0  0  0  0  0
    6.3132    0.0556    0.4984 H   0  0  0  0  0  0  0  0  0  0  0  0
    3.2258    0.1849    0.7929 H   0  0  0  0  0  0  0  0  0  0  0  0
    3.5357    1.6439   -0.3215 H   0  0  0  0  0  0  0  0  0  0  0  0
    1.7091   -0.8346   -0.7613 H   0  0  0  0  0  0  0  0  0  0  0  0
    0.6985    1.4814   -0.2861 H   0  0  0  0  0  0  0  0  0  0  0  0
    1.4120    3.2935   -1.4100 H   0  0  0  0  0  0  0  0  0  0  0  0
    2.6967    2.2755   -2.1083 H   0  0  0  0  0  0  0  0  0  0  0  0
    1.1047    2.5286   -2.9966 H   0  0  0  0  0  0  0  0  0  0  0  0
   -2.0500   -1.2084   -2.3996 H   0  0  0  0  0  0  0  0  0  0  0  0
   -2.5589    0.4220   -2.9973 H   0  0  0  0  0  0  0  0  0  0  0  0
   -3.1565   -2.0488   -0.2872 H   0  0  0  0  0  0  0  0  0  0  0  0
   -5.1614   -1.9545    1.1597 H   0  0  0  0  0  0  0  0  0  0  0  0
   -6.9566    2.1058    1.4364 H   0  0  0  0  0  0  0  0  0  0  0  0
   -8.9001    2.2565    2.8491 H   0  0  0  0  0  0  0  0  0  0  0  0
  -10.1042    0.1749    3.5431 H   0  0  0  0  0  0  0  0  0  0  0  0
   -9.3254   -2.0159    2.7991 H   0  0  0  0  0  0  0  0  0  0  0  0
   -7.2971   -2.0993    1.3309 H   0  0  0  0  0  0  0  0  0  0  0  0
   -6.1919    1.7922   -0.4804 H   0  0  0  0  0  0  0  0  0  0  0  0
   -4.1941    1.7367   -1.9471 H   0  0  0  0  0  0  0  0  0  0  0  0
  1  2  2  3
  2  3  1  0
  3  4  1  0
  4  5  1  0
  5  6  1  0
  6  7  2  0
  6  8  1  0
  8  9  1  0
  9 10  1  0
 10 11  1  0
 11 12  1  0
 11 13  1  0
 13 14  1  0
 14 15  2  0
 14 16  1  0
 16 17  1  0
 17 18  2  0
 18 19  1  0
 19 20  2  0
 20 21  1  0
 21 22  2  0
 22 23  1  0
 23 24  2  0
 24 25  1  0
 25 26  2  0
 20 27  1  0
 27 28  2  0
 10 29  1  0
 29 30  2  0
 29  8  1  0
 28 17  1  0
 26 21  1  0
  1 31  1  0
  1 32  1  0
  2 33  1  0
  3 34  1  0
  3 35  1  0
  4 36  1  0
  4 37  1  0
  5 38  1  0
  5 39  1  0
  9 40  1  0
  9 41  1  0
 10 42  1  1
 11 43  1  1
 12 44  1  0
 12 45  1  0
 12 46  1  0
 16 47  1  0
 16 48  1  0
 18 49  1  0
 19 50  1  0
 22 51  1  0
 23 52  1  0
 24 53  1  0
 25 54  1  0
 26 55  1  0
 27 56  1  0
 28 57  1  0
M  END
$$$$
