@<TRIPOS>MOLECULE
*****
 57 59 0 0 0
SMALL
GASTEIGER

@<TRIPOS>ATOM
      1 C           7.6588    0.4226    2.9168 C.2     1  UNL1       -0.1026
      2 C           8.1974   -0.2299    1.9158 C.2     1  UNL1       -0.0911
      3 C           7.9136   -1.6715    1.6321 C.3     1  UNL1       -0.0346
      4 C           7.2999   -1.7997    0.2311 C.3     1  UNL1       -0.0413
      5 C           6.0336   -0.9871    0.2599 C.3     1  UNL1        0.0248
      6 C           5.3082   -0.9972   -1.0114 C.2     1  UNL1        0.2218
      7 O           5.7259   -1.6388   -2.0206 O.2     1  UNL1       -0.2752
      8 N           4.0988   -0.2710   -1.1328 N.am    1  UNL1       -0.2409
      9 C           3.3135    0.5606   -0.2454 C.3     1  UNL1        0.0369
     10 C           2.1280    0.1264   -1.0562 C.3     1  UNL1        0.0889
     11 C           1.0713    1.1773   -1.2800 C.3     1  UNL1        0.1128
     12 C           1.6175    2.3845   -2.0098 C.3     1  UNL1       -0.0269
     13 O           0.0177    0.5666   -1.9850 O.3     1  UNL1       -0.4606
     14 C          -1.2194    0.4511   -1.3782 C.2     1  UNL1        0.3117
     15 O          -1.3629    0.8931   -0.2219 O.2     1  UNL1       -0.2505
     16 C          -2.3557   -0.1873   -2.0902 C.3     1  UNL1        0.0701
     17 C          -3.5299   -0.1709   -1.2171 C.ar    1  UNL1       -0.0367
     18 C          -3.8249   -1.1912   -0.3375 C.ar    1  UNL1       -0.0575
     19 C          -4.9460   -1.1353    0.4696 C.ar    1  UNL1       -0.0538
     20 C          -5.8175   -0.0636    0.4341 C.ar    1  UNL1       -0.0179
     21 C          -7.0024   -0.0140    1.2925 C.ar    1  UNL1       -0.0179
     22 C          -7.4611    1.2091    1.7250 C.ar    1  UNL1       -0.0540
     23 C          -8.5780    1.2811    2.5357 C.ar    1  UNL1       -0.0612
     24 C          -9.2280    0.1165    2.9070 C.ar    1  UNL1       -0.0617
     25 C          -8.7893   -1.1252    2.4874 C.ar    1  UNL1       -0.0612
     26 C          -7.6766   -1.1524    1.6834 C.ar    1  UNL1       -0.0540
     27 C          -5.5153    0.9552   -0.4498 C.ar    1  UNL1       -0.0538
     28 C          -4.3954    0.9019   -1.2577 C.ar    1  UNL1       -0.0575
     29 C           3.1234   -0.0245   -2.1393 C.2     1  UNL1        0.2300
     30 O           3.1694    0.0267   -3.4114 O.2     1  UNL1       -0.2747
     31 H           7.9030    1.4626    3.0698 H       1  UNL1        0.0532
     32 H           6.9645   -0.0115    3.6279 H       1  UNL1        0.0532
     33 H           8.8829    0.2649    1.2441 H       1  UNL1        0.0566
     34 H           7.1086   -1.9827    2.3309 H       1  UNL1        0.0307
     35 H           8.7891   -2.3070    1.7632 H       1  UNL1        0.0307
     36 H           8.0516   -1.3941   -0.4768 H       1  UNL1        0.0273
     37 H           7.1023   -2.8663    0.0667 H       1  UNL1        0.0273
     38 H           5.4238   -1.3691    1.1188 H       1  UNL1        0.0359
     39 H           6.3132    0.0556    0.4984 H       1  UNL1        0.0359
     40 H           3.2258    0.1849    0.7929 H       1  UNL1        0.0478
     41 H           3.5357    1.6439   -0.3215 H       1  UNL1        0.0478
     42 H           1.7091   -0.8346   -0.7613 H       1  UNL1        0.0446
     43 H           0.6985    1.4814   -0.2861 H       1  UNL1        0.0739
     44 H           1.4120    3.2935   -1.4100 H       1  UNL1        0.0265
     45 H           2.6967    2.2755   -2.1083 H       1  UNL1        0.0265
     46 H           1.1047    2.5286   -2.9966 H       1  UNL1        0.0265
     47 H          -2.0500   -1.2084   -2.3996 H       1  UNL1        0.0426
     48 H          -2.5589    0.4220   -2.9973 H       1  UNL1        0.0426
     49 H          -3.1565   -2.0488   -0.2872 H       1  UNL1        0.0621
     50 H          -5.1614   -1.9545    1.1597 H       1  UNL1        0.0624
     51 H          -6.9566    2.1058    1.4364 H       1  UNL1        0.0624
     52 H          -8.9001    2.2565    2.8491 H       1  UNL1        0.0618
     53 H         -10.1042    0.1749    3.5431 H       1  UNL1        0.0618
     54 H          -9.3254   -2.0159    2.7991 H       1  UNL1        0.0618
     55 H          -7.2971   -2.0993    1.3309 H       1  UNL1        0.0624
     56 H          -6.1919    1.7922   -0.4804 H       1  UNL1        0.0624
     57 H          -4.1941    1.7367   -1.9471 H       1  UNL1        0.0621
@<TRIPOS>BOND
     1     1     2    2
     2     2     3    1
     3     3     4    1
     4     4     5    1
     5     5     6    1
     6     6     7    2
     7     6     8   am
     8     8     9    1
     9     9    10    1
    10    10    11    1
    11    11    12    1
    12    11    13    1
    13    13    14    1
    14    14    15    2
    15    14    16    1
    16    16    17    1
    17    17    18   ar
    18    18    19   ar
    19    19    20   ar
    20    20    21    1
    21    21    22   ar
    22    22    23   ar
    23    23    24   ar
    24    24    25   ar
    25    25    26   ar
    26    20    27   ar
    27    27    28   ar
    28    10    29    1
    29    29    30    2
    30    29     8   am
    31    28    17   ar
    32    26    21   ar
    33     1    31    1
    34     1    32    1
    35     2    33    1
    36     3    34    1
    37     3    35    1
    38     4    36    1
    39     4    37    1
    40     5    38    1
    41     5    39    1
    42     9    40    1
    43     9    41    1
    44    10    42    1
    45    11    43    1
    46    12    44    1
    47    12    45    1
    48    12    46    1
    49    16    47    1
    50    16    48    1
    51    18    49    1
    52    19    50    1
    53    22    51    1
    54    23    52    1
    55    24    53    1
    56    25    54    1
    57    26    55    1
    58    27    56    1
    59    28    57    1
