@<TRIPOS>MOLECULE
*****
 73 78 0 0 0
SMALL
GASTEIGER

@<TRIPOS>ATOM
      1 C          -1.2895   -7.9967    0.8340 C.3     1  UNL1        0.0804
      2 O          -0.7245   -6.7009    0.7639 O.3     1  UNL1       -0.4795
      3 C          -1.4617   -5.5625    0.5668 C.ar    1  UNL1        0.2191
      4 C          -0.7780   -4.3462    0.5180 C.ar    1  UNL1        0.0404
      5 C          -1.4181   -3.1401    0.3252 C.ar    1  UNL1        0.1364
      6 N          -0.7174   -1.8855    0.2947 N.am    1  UNL1       -0.2240
      7 C           0.6989   -1.6847    0.5397 C.2     1  UNL1        0.3219
      8 O           1.3915   -2.4752    1.2081 O.2     1  UNL1       -0.2512
      9 N           1.1312   -0.4833   -0.0879 N.am    1  UNL1       -0.1920
     10 C           2.4474    0.0886   -0.1076 C.ar    1  UNL1        0.0455
     11 C           2.6544    1.3061   -0.7083 C.ar    1  UNL1       -0.0392
     12 C           3.9237    1.8563   -0.7390 C.ar    1  UNL1       -0.0522
     13 C           5.0029    1.2078   -0.1754 C.ar    1  UNL1       -0.0164
     14 C           6.3469    1.7521   -0.1889 C.ar    1  UNL1        0.0005
     15 C           7.0888    1.7279    0.9616 C.ar    1  UNL1       -0.0519
     16 C           8.3848    2.2367    1.0205 C.ar    1  UNL1       -0.0471
     17 C           8.8913    2.7711   -0.1437 C.ar    1  UNL1        0.0602
     18 C          10.2423    3.3130   -0.1268 C.2     1  UNL1        0.3368
     19 O          10.7085    3.8045   -1.1832 O.2     1  UNL1       -0.2451
     20 O          11.0392    3.3135    0.9964 O.3     1  UNL1       -0.4771
     21 C           8.1386    2.7888   -1.2870 C.ar    1  UNL1       -0.0288
     22 C           6.8492    2.2824   -1.3460 C.ar    1  UNL1        0.0494
     23 CL          5.9489    2.3401   -2.8582 Cl      1  UNL1       -0.0829
     24 C           4.7701   -0.0166    0.4239 C.ar    1  UNL1       -0.0522
     25 C           3.5264   -0.5527    0.4524 C.ar    1  UNL1       -0.0392
     26 C          -0.0393    0.0260   -0.7066 C.2     1  UNL1        0.2516
     27 O          -0.1081    0.8232   -1.6740 O.2     1  UNL1       -0.2724
     28 C          -1.2192   -0.5779    0.0234 C.3     1  UNL1        0.1240
     29 C          -1.4290    0.2427    1.2967 C.3     1  UNL1       -0.0095
     30 C          -2.1064    1.5240    0.8623 C.3     1  UNL1        0.0017
     31 N          -3.4960    1.2385    0.6107 N.3     1  UNL1       -0.2965
     32 C          -4.1282    2.2744   -0.1855 C.3     1  UNL1        0.0415
     33 C          -5.5566    1.9785   -0.4422 C.ar    1  UNL1        0.0581
     34 N          -6.0159    1.5295   -1.6335 N.ar    1  UNL1       -0.2583
     35 C          -7.3045    1.2641   -1.8680 C.ar    1  UNL1        0.0279
     36 C          -8.2393    1.4505   -0.8539 C.ar    1  UNL1       -0.0433
     37 C          -7.8396    1.9078    0.3907 C.ar    1  UNL1       -0.0557
     38 C          -6.4985    2.1647    0.5746 C.ar    1  UNL1       -0.0279
     39 C          -5.9953    2.6557    1.8773 C.3     1  UNL1       -0.0380
     40 C          -3.6694   -0.0711    0.0102 C.3     1  UNL1        0.0017
     41 C          -2.4549   -0.4755   -0.7952 C.3     1  UNL1       -0.0095
     42 N          -2.7464   -3.1866    0.1840 N.ar    1  UNL1       -0.2200
     43 C          -3.4293   -4.3388    0.2263 C.ar    1  UNL1        0.1219
     44 N          -2.7942   -5.5095    0.4151 N.ar    1  UNL1       -0.2013
     45 H          -0.5313   -8.7900    0.7618 H       1  UNL1        0.0660
     46 H          -2.0020   -8.1106   -0.0094 H       1  UNL1        0.0660
     47 H          -1.8427   -8.0455    1.7967 H       1  UNL1        0.0660
     48 H           0.2841   -4.3547    0.6307 H       1  UNL1        0.0705
     49 H           1.8208    1.8574   -1.1643 H       1  UNL1        0.0636
     50 H           4.0763    2.8340   -1.2216 H       1  UNL1        0.0624
     51 H           6.7164    1.3113    1.9011 H       1  UNL1        0.0624
     52 H           8.9547    2.2061    1.9479 H       1  UNL1        0.0626
     53 H          12.0477    3.1270    0.9068 H       1  UNL1        0.2954
     54 H           8.5346    3.2126   -2.2178 H       1  UNL1        0.0640
     55 H           5.6506   -0.5135    0.8666 H       1  UNL1        0.0624
     56 H           3.4100   -1.5298    0.9436 H       1  UNL1        0.0636
     57 H          -0.4461    0.4420    1.7962 H       1  UNL1        0.0303
     58 H          -2.1117   -0.3400    1.9806 H       1  UNL1        0.0303
     59 H          -1.9959    2.2873    1.6550 H       1  UNL1        0.0427
     60 H          -1.6001    1.8499   -0.0770 H       1  UNL1        0.0427
     61 H          -3.5884    2.2871   -1.1630 H       1  UNL1        0.0491
     62 H          -3.9800    3.2804    0.2540 H       1  UNL1        0.0491
     63 H          -7.6391    0.9052   -2.8343 H       1  UNL1        0.0829
     64 H          -9.2814    1.2338   -1.0511 H       1  UNL1        0.0633
     65 H          -8.5620    2.0618    1.2063 H       1  UNL1        0.0621
     66 H          -5.3095    1.8943    2.3012 H       1  UNL1        0.0278
     67 H          -5.4963    3.6258    1.7329 H       1  UNL1        0.0278
     68 H          -6.8283    2.7680    2.6004 H       1  UNL1        0.0278
     69 H          -4.5351   -0.0700   -0.6844 H       1  UNL1        0.0427
     70 H          -3.9253   -0.7565    0.8260 H       1  UNL1        0.0427
     71 H          -2.3665    0.2857   -1.6179 H       1  UNL1        0.0303
     72 H          -2.6720   -1.4317   -1.2913 H       1  UNL1        0.0303
     73 H          -4.5071   -4.3918    0.1133 H       1  UNL1        0.1049
@<TRIPOS>BOND
     1     1     2    1
     2     2     3    1
     3     3     4   ar
     4     4     5   ar
     5     5     6    1
     6     6     7   am
     7     7     8    2
     8     7     9   am
     9     9    10    1
    10    10    11   ar
    11    11    12   ar
    12    12    13   ar
    13    13    14    1
    14    14    15   ar
    15    15    16   ar
    16    16    17   ar
    17    17    18    1
    18    18    19    2
    19    18    20    1
    20    17    21   ar
    21    21    22   ar
    22    22    23    1
    23    13    24   ar
    24    24    25   ar
    25     9    26   am
    26    26    27    2
    27    26    28    1
    28    28    29    1
    29    29    30    1
    30    30    31    1
    31    31    32    1
    32    32    33    1
    33    33    34   ar
    34    34    35   ar
    35    35    36   ar
    36    36    37   ar
    37    37    38   ar
    38    38    39    1
    39    31    40    1
    40    40    41    1
    41     5    42   ar
    42    42    43   ar
    43    43    44   ar
    44    44     3   ar
    45    28     6    1
    46    38    33   ar
    47    25    10   ar
    48    41    28    1
    49    22    14   ar
    50     1    45    1
    51     1    46    1
    52     1    47    1
    53     4    48    1
    54    11    49    1
    55    12    50    1
    56    15    51    1
    57    16    52    1
    58    20    53    1
    59    21    54    1
    60    24    55    1
    61    25    56    1
    62    29    57    1
    63    29    58    1
    64    30    59    1
    65    30    60    1
    66    32    61    1
    67    32    62    1
    68    35    63    1
    69    36    64    1
    70    37    65    1
    71    39    66    1
    72    39    67    1
    73    39    68    1
    74    40    69    1
    75    40    70    1
    76    41    71    1
    77    41    72    1
    78    43    73    1
