@<TRIPOS>MOLECULE
*****
 50 54 0 0 0
SMALL
GASTEIGER

@<TRIPOS>ATOM
      1 N          -0.1734   -3.3937   -0.6950 N.pl3   1  UNL1       -0.3425
      2 C          -1.4604   -2.8285   -0.7106 C.ar    1  UNL1        0.1293
      3 N          -2.5409   -3.5991   -0.8923 N.ar    1  UNL1       -0.2204
      4 C          -3.7880   -3.0412   -0.9061 C.ar    1  UNL1        0.1204
      5 N          -3.9392   -1.7121   -0.7370 N.ar    1  UNL1       -0.2175
      6 C          -2.8986   -0.8981   -0.5523 C.ar    1  UNL1        0.1477
      7 C          -1.6429   -1.4784   -0.5410 C.ar    1  UNL1        0.0675
      8 C          -0.7526   -0.4565   -0.3390 C.ar    1  UNL1        0.0312
      9 C           0.6899   -0.6278   -0.2588 C.ar    1  UNL1       -0.0140
     10 C           1.4639   -0.5539   -1.3730 C.ar    1  UNL1       -0.0504
     11 C           2.8489   -0.7121   -1.3400 C.ar    1  UNL1       -0.0188
     12 C           3.4401   -0.9517   -0.1254 C.ar    1  UNL1        0.1285
     13 O           4.8029   -1.1129   -0.0537 O.3     1  UNL1       -0.4560
     14 C           5.6080   -0.0017    0.1524 C.ar    1  UNL1        0.1284
     15 C           5.0759    1.2475    0.2854 C.ar    1  UNL1       -0.0193
     16 C           5.8964    2.3250    0.4879 C.ar    1  UNL1       -0.0583
     17 C           7.2523    2.1388    0.5558 C.ar    1  UNL1       -0.0615
     18 C           7.8045    0.8887    0.4241 C.ar    1  UNL1       -0.0583
     19 C           6.9804   -0.1896    0.2211 C.ar    1  UNL1       -0.0193
     20 C           2.6686   -1.0297    1.0157 C.ar    1  UNL1       -0.0188
     21 C           1.3062   -0.8707    0.9594 C.ar    1  UNL1       -0.0504
     22 C          -1.5013    0.6974   -0.2364 C.ar    1  UNL1        0.1196
     23 CL         -0.7993    2.2969    0.0303 Cl      1  UNL1       -0.0631
     24 N          -2.8120    0.4077   -0.3694 N.ar    1  UNL1       -0.3124
     25 C          -3.8354    1.4292   -0.3048 C.3     1  UNL1        0.0372
     26 C          -4.1387    1.8672    1.1043 C.3     1  UNL1       -0.0320
     27 C          -5.6639    1.8611    1.2169 C.3     1  UNL1       -0.0511
     28 C          -5.9913    0.6905    0.2800 C.3     1  UNL1       -0.0511
     29 C          -5.1310    1.0147   -0.9014 C.3     1  UNL1       -0.0320
     30 H           0.2009   -3.8913    0.1360 H       1  UNL1        0.1437
     31 H           0.4366   -3.3210   -1.5324 H       1  UNL1        0.1437
     32 H          -4.6316   -3.7058   -1.0564 H       1  UNL1        0.1048
     33 H           0.9854   -0.3654   -2.3188 H       1  UNL1        0.0625
     34 H           3.4343   -0.6442   -2.2666 H       1  UNL1        0.0654
     35 H           4.0075    1.3850    0.2306 H       1  UNL1        0.0654
     36 H           5.4188    3.3049    0.5881 H       1  UNL1        0.0619
     37 H           7.8804    3.0073    0.7168 H       1  UNL1        0.0618
     38 H           8.8876    0.7179    0.4753 H       1  UNL1        0.0619
     39 H           7.3965   -1.1999    0.1126 H       1  UNL1        0.0654
     40 H           3.1650   -1.2191    1.9533 H       1  UNL1        0.0654
     41 H           0.6782   -0.9263    1.8334 H       1  UNL1        0.0625
     42 H          -3.4760    2.3432   -0.8543 H       1  UNL1        0.0528
     43 H          -3.8304    2.9319    1.2935 H       1  UNL1        0.0285
     44 H          -3.7220    1.1967    1.8633 H       1  UNL1        0.0285
     45 H          -6.1035    2.7634    0.7313 H       1  UNL1        0.0266
     46 H          -6.0102    1.6856    2.2335 H       1  UNL1        0.0266
     47 H          -5.7210   -0.2152    0.8192 H       1  UNL1        0.0266
     48 H          -7.0808    0.6734    0.0342 H       1  UNL1        0.0266
     49 H          -5.0620    0.2016   -1.6395 H       1  UNL1        0.0285
     50 H          -5.6232    1.8702   -1.4368 H       1  UNL1        0.0285
@<TRIPOS>BOND
     1     1     2    1
     2     2     3   ar
     3     3     4   ar
     4     4     5   ar
     5     5     6   ar
     6     6     7   ar
     7     7     8   ar
     8     8     9    1
     9     9    10   ar
    10    10    11   ar
    11    11    12   ar
    12    12    13    1
    13    13    14    1
    14    14    15   ar
    15    15    16   ar
    16    16    17   ar
    17    17    18   ar
    18    18    19   ar
    19    12    20   ar
    20    20    21   ar
    21     8    22   ar
    22    22    23    1
    23    22    24   ar
    24    24    25    1
    25    25    26    1
    26    26    27    1
    27    27    28    1
    28    28    29    1
    29     7     2   ar
    30    21     9   ar
    31    29    25    1
    32    24     6   ar
    33    19    14   ar
    34     1    30    1
    35     1    31    1
    36     4    32    1
    37    10    33    1
    38    11    34    1
    39    15    35    1
    40    16    36    1
    41    17    37    1
    42    18    38    1
    43    19    39    1
    44    20    40    1
    45    21    41    1
    46    25    42    1
    47    26    43    1
    48    26    44    1
    49    27    45    1
    50    27    46    1
    51    28    47    1
    52    28    48    1
    53    29    49    1
    54    29    50    1
