
     RDKit          3D

 50 54  0  0  0  0  0  0  0  0999 V2000
   -0.1734   -3.3937   -0.6950 N   0  0  0  0  0  0  0  0  0  0  0  0
   -1.4604   -2.8285   -0.7106 C   0  0  0  0  0  0  0  0  0  0  0  0
   -2.5409   -3.5991   -0.8923 N   0  0  0  0  0  0  0  0  0  0  0  0
   -3.7880   -3.0412   -0.9061 C   0  0  0  0  0  0  0  0  0  0  0  0
   -3.9392   -1.7121   -0.7370 N   0  0  0  0  0  0  0  0  0  0  0  0
   -2.8986   -0.8981   -0.5523 C   0  0  0  0  0  0  0  0  0  0  0  0
   -1.6429   -1.4784   -0.5410 C   0  0  0  0  0  0  0  0  0  0  0  0
   -0.7526   -0.4565   -0.3390 C   0  0  0  0  0  0  0  0  0  0  0  0
    0.6899   -0.6278   -0.2588 C   0  0  0  0  0  0  0  0  0  0  0  0
    1.4639   -0.5539   -1.3730 C   0  0  0  0  0  0  0  0  0  0  0  0
    2.8489   -0.7121   -1.3400 C   0  0  0  0  0  0  0  0  0  0  0  0
    3.4401   -0.9517   -0.1254 C   0  0  0  0  0  0  0  0  0  0  0  0
    4.8029   -1.1129   -0.0537 O   0  0  0  0  0  0  0  0  0  0  0  0
    5.6080   -0.0017    0.1524 C   0  0  0  0  0  0  0  0  0  0  0  0
    5.0759    1.2475    0.2854 C   0  0  0  0  0  0  0  0  0  0  0  0
    5.8964    2.3250    0.4879 C   0  0  0  0  0  0  0  0  0  0  0  0
    7.2523    2.1388    0.5558 C   0  0  0  0  0  0  0  0  0  0  0  0
    7.8045    0.8887    0.4241 C   0  0  0  0  0  0  0  0  0  0  0  0
    6.9804   -0.1896    0.2211 C   0  0  0  0  0  0  0  0  0  0  0  0
    2.6686   -1.0297    1.0157 C   0  0  0  0  0  0  0  0  0  0  0  0
    1.3062   -0.8707    0.9594 C   0  0  0  0  0  0  0  0  0  0  0  0
   -1.5013    0.6974   -0.2364 C   0  0  0  0  0  0  0  0  0  0  0  0
   -0.7993    2.2969    0.0303 Cl  0  0  0  0  0  0  0  0  0  0  0  0
   -2.8120    0.4077   -0.3694 N   0  0  0  0  0  0  0  0  0  0  0  0
   -3.8354    1.4292   -0.3048 C   0  0  0  0  0  0  0  0  0  0  0  0
   -4.1387    1.8672    1.1043 C   0  0  0  0  0  0  0  0  0  0  0  0
   -5.6639    1.8611    1.2169 C   0  0  0  0  0  0  0  0  0  0  0  0
   -5.9913    0.6905    0.2800 C   0  0  0  0  0  0  0  0  0  0  0  0
   -5.1310    1.0147   -0.9014 C   0  0  0  0  0  0  0  0  0  0  0  0
    0.2009   -3.8913    0.1360 H   0  0  0  0  0  0  0  0  0  0  0  0
    0.4366   -3.3210   -1.5324 H   0  0  0  0  0  0  0  0  0  0  0  0
   -4.6316   -3.7058   -1.0564 H   0  0  0  0  0  0  0  0  0  0  0  0
    0.9854   -0.3654   -2.3188 H   0  0  0  0  0  0  0  0  0  0  0  0
    3.4343   -0.6442   -2.2666 H   0  0  0  0  0  0  0  0  0  0  0  0
    4.0075    1.3850    0.2306 H   0  0  0  0  0  0  0  0  0  0  0  0
    5.4188    3.3049    0.5881 H   0  0  0  0  0  0  0  0  0  0  0  0
    7.8804    3.0073    0.7168 H   0  0  0  0  0  0  0  0  0  0  0  0
    8.8876    0.7179    0.4753 H   0  0  0  0  0  0  0  0  0  0  0  0
    7.3965   -1.1999    0.1126 H   0  0  0  0  0  0  0  0  0  0  0  0
    3.1650   -1.2191    1.9533 H   0  0  0  0  0  0  0  0  0  0  0  0
    0.6782   -0.9263    1.8334 H   0  0  0  0  0  0  0  0  0  0  0  0
   -3.4760    2.3432   -0.8543 H   0  0  0  0  0  0  0  0  0  0  0  0
   -3.8304    2.9319    1.2935 H   0  0  0  0  0  0  0  0  0  0  0  0
   -3.7220    1.1967    1.8633 H   0  0  0  0  0  0  0  0  0  0  0  0
   -6.1035    2.7634    0.7313 H   0  0  0  0  0  0  0  0  0  0  0  0
   -6.0102    1.6856    2.2335 H   0  0  0  0  0  0  0  0  0  0  0  0
   -5.7210   -0.2152    0.8192 H   0  0  0  0  0  0  0  0  0  0  0  0
   -7.0808    0.6734    0.0342 H   0  0  0  0  0  0  0  0  0  0  0  0
   -5.0620    0.2016   -1.6395 H   0  0  0  0  0  0  0  0  0  0  0  0
   -5.6232    1.8702   -1.4368 H   0  0  0  0  0  0  0  0  0  0  0  0
  1  2  1  0
  2  3  2  0
  3  4  1  0
  4  5  2  0
  5  6  1  0
  6  7  2  0
  7  8  1  0
  8  9  1  0
  9 10  2  0
 10 11  1  0
 11 12  2  0
 12 13  1  0
 13 14  1  0
 14 15  2  0
 15 16  1  0
 16 17  2  0
 17 18  1  0
 18 19  2  0
 12 20  1  0
 20 21  2  0
  8 22  2  0
 22 23  1  0
 22 24  1  0
 24 25  1  0
 25 26  1  0
 26 27  1  0
 27 28  1  0
 28 29  1  0
  7  2  1  0
 21  9  1  0
 29 25  1  0
 24  6  1  0
 19 14  1  0
  1 30  1  0
  1 31  1  0
  4 32  1  0
 10 33  1  0
 11 34  1  0
 15 35  1  0
 16 36  1  0
 17 37  1  0
 18 38  1  0
 19 39  1  0
 20 40  1  0
 21 41  1  0
 25 42  1  0
 26 43  1  0
 26 44  1  0
 27 45  1  0
 27 46  1  0
 28 47  1  0
 28 48  1  0
 29 49  1  0
 29 50  1  0
M  END
$$$$
