@<TRIPOS>MOLECULE
*****
 43 44 0 0 0
SMALL
GASTEIGER

@<TRIPOS>ATOM
      1 C          -0.4227   -2.4474    1.0570 C.3     1  UNL1       -0.0259
      2 C          -0.3678   -0.9991    1.3981 C.3     1  UNL1        0.1583
      3 O          -0.5122   -0.8041    2.7707 O.3     1  UNL1       -0.3780
      4 C          -1.4489   -0.2478    0.6540 C.3     1  UNL1        0.1078
      5 S          -3.0109   -0.8993    1.1210 S.O2    1  UNL1        0.0001
      6 O          -3.0698   -2.3472    0.8064 O.2     1  UNL1       -0.1693
      7 O          -3.2361   -0.7148    2.5936 O.2     1  UNL1       -0.1693
      8 C          -4.3005   -0.0405    0.2699 C.ar    1  UNL1        0.0885
      9 C          -4.7890   -0.4415   -0.9591 C.ar    1  UNL1       -0.0342
     10 C          -5.7957    0.2456   -1.6025 C.ar    1  UNL1       -0.0247
     11 C          -6.2950    1.3600   -0.9560 C.ar    1  UNL1        0.1235
     12 F          -7.2888    2.0774   -1.5427 F       1  UNL1       -0.2055
     13 C          -5.8528    1.8114    0.2668 C.ar    1  UNL1       -0.0247
     14 C          -4.8312    1.0891    0.8886 C.ar    1  UNL1       -0.0342
     15 C           0.9220   -0.3559    0.9777 C.2     1  UNL1        0.2503
     16 O           0.7406   -0.2091    2.2145 O.2     1  UNL1       -0.2723
     17 N           1.3485   -0.3890   -0.3810 N.am    1  UNL1       -0.2831
     18 C           2.6129    0.3013   -0.4973 C.ar    1  UNL1        0.0341
     19 C           3.7609   -0.4579   -0.3344 C.ar    1  UNL1       -0.0276
     20 C           5.0025    0.1270   -0.4306 C.ar    1  UNL1        0.0739
     21 C           5.0715    1.4990   -0.6954 C.ar    1  UNL1        0.0635
     22 C           3.9354    2.2677   -0.8600 C.ar    1  UNL1       -0.0421
     23 C           2.6858    1.6607   -0.7597 C.ar    1  UNL1       -0.0392
     24 C           6.3668    2.1466   -0.8030 C.1     1  UNL1        0.0997
     25 N           7.4042    2.6446   -0.8883 N.1     1  UNL1       -0.1909
     26 C           6.3015   -0.5957   -0.2726 C.3     1  UNL1        0.4187
     27 F           7.0882   -0.5157   -1.4004 F       1  UNL1       -0.1659
     28 F           6.9693   -0.1223    0.8489 F       1  UNL1       -0.1659
     29 F           6.0364   -1.9314   -0.0337 F       1  UNL1       -0.1659
     30 H          -1.0621   -2.9808    1.8091 H       1  UNL1        0.0263
     31 H          -0.8796   -2.6212    0.0550 H       1  UNL1        0.0263
     32 H           0.5920   -2.9267    1.0507 H       1  UNL1        0.0263
     33 H          -0.1356   -1.5436    3.2931 H       1  UNL1        0.2109
     34 H          -1.3273    0.8237    0.9119 H       1  UNL1        0.0538
     35 H          -1.2266   -0.3507   -0.4109 H       1  UNL1        0.0538
     36 H          -4.3552   -1.3300   -1.4211 H       1  UNL1        0.0637
     37 H          -6.1700   -0.0834   -2.5715 H       1  UNL1        0.0647
     38 H          -6.2819    2.6975    0.7329 H       1  UNL1        0.0647
     39 H          -4.4733    1.4341    1.8529 H       1  UNL1        0.0637
     40 H           0.6988   -0.8864   -1.0297 H       1  UNL1        0.1549
     41 H           3.7909   -1.5062   -0.1309 H       1  UNL1        0.0642
     42 H           4.0257    3.3345   -1.0655 H       1  UNL1        0.0631
     43 H           1.7793    2.2274   -0.8820 H       1  UNL1        0.0636
@<TRIPOS>BOND
     1     1     2    1
     2     2     3    1
     3     2     4    1
     4     4     5    1
     5     5     6    2
     6     5     7    2
     7     5     8    1
     8     8     9   ar
     9     9    10   ar
    10    10    11   ar
    11    11    12    1
    12    11    13   ar
    13    13    14   ar
    14     2    15    1
    15    15    16    2
    16    15    17   am
    17    17    18    1
    18    18    19   ar
    19    19    20   ar
    20    20    21   ar
    21    21    22   ar
    22    22    23   ar
    23    21    24    1
    24    24    25    3
    25    20    26    1
    26    26    27    1
    27    26    28    1
    28    26    29    1
    29    14     8   ar
    30    23    18   ar
    31     1    30    1
    32     1    31    1
    33     1    32    1
    34     3    33    1
    35     4    34    1
    36     4    35    1
    37     9    36    1
    38    10    37    1
    39    13    38    1
    40    14    39    1
    41    17    40    1
    42    19    41    1
    43    22    42    1
    44    23    43    1
