
     RDKit          3D

 43 44  0  0  0  0  0  0  0  0999 V2000
   -0.4227   -2.4474    1.0570 C   0  0  0  0  0  0  0  0  0  0  0  0
   -0.3678   -0.9991    1.3981 C   0  0  2  0  0  0  0  0  0  0  0  0
   -0.5122   -0.8041    2.7707 O   0  0  0  0  0  0  0  0  0  0  0  0
   -1.4489   -0.2478    0.6540 C   0  0  0  0  0  0  0  0  0  0  0  0
   -3.0109   -0.8993    1.1210 S   0  0  0  0  0  0  0  0  0  0  0  0
   -3.0698   -2.3472    0.8064 O   0  0  0  0  0  0  0  0  0  0  0  0
   -3.2361   -0.7148    2.5936 O   0  0  0  0  0  0  0  0  0  0  0  0
   -4.3005   -0.0405    0.2699 C   0  0  0  0  0  0  0  0  0  0  0  0
   -4.7890   -0.4415   -0.9591 C   0  0  0  0  0  0  0  0  0  0  0  0
   -5.7957    0.2456   -1.6025 C   0  0  0  0  0  0  0  0  0  0  0  0
   -6.2950    1.3600   -0.9560 C   0  0  0  0  0  0  0  0  0  0  0  0
   -7.2888    2.0774   -1.5427 F   0  0  0  0  0  0  0  0  0  0  0  0
   -5.8528    1.8114    0.2668 C   0  0  0  0  0  0  0  0  0  0  0  0
   -4.8312    1.0891    0.8886 C   0  0  0  0  0  0  0  0  0  0  0  0
    0.9220   -0.3559    0.9777 C   0  0  0  0  0  0  0  0  0  0  0  0
    0.7406   -0.2091    2.2145 O   0  0  0  0  0  0  0  0  0  0  0  0
    1.3485   -0.3890   -0.3810 N   0  0  0  0  0  0  0  0  0  0  0  0
    2.6129    0.3013   -0.4973 C   0  0  0  0  0  0  0  0  0  0  0  0
    3.7609   -0.4579   -0.3344 C   0  0  0  0  0  0  0  0  0  0  0  0
    5.0025    0.1270   -0.4306 C   0  0  0  0  0  0  0  0  0  0  0  0
    5.0715    1.4990   -0.6954 C   0  0  0  0  0  0  0  0  0  0  0  0
    3.9354    2.2677   -0.8600 C   0  0  0  0  0  0  0  0  0  0  0  0
    2.6858    1.6607   -0.7597 C   0  0  0  0  0  0  0  0  0  0  0  0
    6.3668    2.1466   -0.8030 C   0  0  0  0  0  0  0  0  0  0  0  0
    7.4042    2.6446   -0.8883 N   0  0  0  0  0  0  0  0  0  0  0  0
    6.3015   -0.5957   -0.2726 C   0  0  0  0  0  0  0  0  0  0  0  0
    7.0882   -0.5157   -1.4004 F   0  0  0  0  0  0  0  0  0  0  0  0
    6.9693   -0.1223    0.8489 F   0  0  0  0  0  0  0  0  0  0  0  0
    6.0364   -1.9314   -0.0337 F   0  0  0  0  0  0  0  0  0  0  0  0
   -1.0621   -2.9808    1.8091 H   0  0  0  0  0  0  0  0  0  0  0  0
   -0.8796   -2.6212    0.0550 H   0  0  0  0  0  0  0  0  0  0  0  0
    0.5920   -2.9267    1.0507 H   0  0  0  0  0  0  0  0  0  0  0  0
   -0.1356   -1.5436    3.2931 H   0  0  0  0  0  0  0  0  0  0  0  0
   -1.3273    0.8237    0.9119 H   0  0  0  0  0  0  0  0  0  0  0  0
   -1.2266   -0.3507   -0.4109 H   0  0  0  0  0  0  0  0  0  0  0  0
   -4.3552   -1.3300   -1.4211 H   0  0  0  0  0  0  0  0  0  0  0  0
   -6.1700   -0.0834   -2.5715 H   0  0  0  0  0  0  0  0  0  0  0  0
   -6.2819    2.6975    0.7329 H   0  0  0  0  0  0  0  0  0  0  0  0
   -4.4733    1.4341    1.8529 H   0  0  0  0  0  0  0  0  0  0  0  0
    0.6988   -0.8864   -1.0297 H   0  0  0  0  0  0  0  0  0  0  0  0
    3.7909   -1.5062   -0.1309 H   0  0  0  0  0  0  0  0  0  0  0  0
    4.0257    3.3345   -1.0655 H   0  0  0  0  0  0  0  0  0  0  0  0
    1.7793    2.2274   -0.8820 H   0  0  0  0  0  0  0  0  0  0  0  0
  1  2  1  0
  2  3  1  1
  2  4  1  0
  4  5  1  0
  5  6  2  0
  5  7  2  0
  5  8  1  0
  8  9  2  0
  9 10  1  0
 10 11  2  0
 11 12  1  0
 11 13  1  0
 13 14  2  0
  2 15  1  0
 15 16  2  0
 15 17  1  0
 17 18  1  0
 18 19  2  0
 19 20  1  0
 20 21  2  0
 21 22  1  0
 22 23  2  0
 21 24  1  0
 24 25  3  0
 20 26  1  0
 26 27  1  0
 26 28  1  0
 26 29  1  0
 14  8  1  0
 23 18  1  0
  1 30  1  0
  1 31  1  0
  1 32  1  0
  3 33  1  0
  4 34  1  0
  4 35  1  0
  9 36  1  0
 10 37  1  0
 13 38  1  0
 14 39  1  0
 17 40  1  0
 19 41  1  0
 22 42  1  0
 23 43  1  0
M  END
$$$$
