
     RDKit          3D

 53 56  0  0  0  0  0  0  0  0999 V2000
   -0.4523    3.8244   -1.5469 C   0  0  0  0  0  0  0  0  0  0  0  0
   -0.3904    2.4252   -1.4613 O   0  0  0  0  0  0  0  0  0  0  0  0
   -1.2537    1.6432   -0.7308 C   0  0  0  0  0  0  0  0  0  0  0  0
   -2.1529    2.3070   -0.1102 O   0  0  0  0  0  0  0  0  0  0  0  0
   -1.2418    0.2035   -0.6086 C   0  0  0  0  0  0  0  0  0  0  0  0
   -2.2627   -0.3790    0.1519 C   0  0  0  0  0  0  0  0  0  0  0  0
   -3.2347    0.4540    0.7973 C   0  0  0  0  0  0  0  0  0  0  0  0
   -2.9649    0.8965    2.0897 C   0  0  0  0  0  0  0  0  0  0  0  0
   -3.8351    1.6957    2.8072 C   0  0  0  0  0  0  0  0  0  0  0  0
   -5.0161    2.0700    2.2223 C   0  0  0  0  0  0  0  0  0  0  0  0
   -5.3033    1.6428    0.9427 C   0  0  0  0  0  0  0  0  0  0  0  0
   -4.4293    0.8428    0.2277 C   0  0  0  0  0  0  0  0  0  0  0  0
   -2.3843   -1.7494    0.3146 C   0  0  0  0  0  0  0  0  0  0  0  0
   -3.4009   -2.2890    1.0689 C   0  0  0  0  0  0  0  0  0  0  0  0
   -3.4750   -3.6545    1.1965 C   0  0  0  0  0  0  0  0  0  0  0  0
   -4.8578   -4.4537    2.2262 Br  0  0  0  0  0  0  0  0  0  0  0  0
   -2.5574   -4.5015    0.5887 C   0  0  0  0  0  0  0  0  0  0  0  0
   -1.5559   -3.9209   -0.1571 C   0  0  0  0  0  0  0  0  0  0  0  0
   -1.4503   -2.5586   -0.3070 C   0  0  0  0  0  0  0  0  0  0  0  0
   -0.4462   -1.9656   -1.0545 C   0  0  0  0  0  0  0  0  0  0  0  0
    0.3631   -2.7380   -1.5898 O   0  0  0  0  0  0  0  0  0  0  0  0
   -0.3500   -0.6097   -1.1964 N   0  0  0  0  0  0  0  0  0  0  0  0
    0.7396   -0.1467   -1.9930 C   0  0  0  0  0  0  0  0  0  0  0  0
    2.0298   -0.0305   -1.2661 C   0  0  0  0  0  0  0  0  0  0  0  0
    2.9940   -1.0118   -1.5314 C   0  0  0  0  0  0  0  0  0  0  0  0
    4.2210   -1.0187   -0.9052 C   0  0  0  0  0  0  0  0  0  0  0  0
    4.5359   -0.0346    0.0201 C   0  0  0  0  0  0  0  0  0  0  0  0
    6.1061   -0.1006    0.7767 S   0  0  0  0  0  6  0  0  0  0  0  0
    7.2434    0.8454   -0.2306 C   0  0  0  0  0  0  0  0  0  0  0  0
    6.6377   -1.4940    0.8473 O   0  0  0  0  0  0  0  0  0  0  0  0
    6.1105    0.5001    2.1379 O   0  0  0  0  0  0  0  0  0  0  0  0
    3.6085    0.9421    0.3006 C   0  0  0  0  0  0  0  0  0  0  0  0
    2.3672    0.9179   -0.3566 C   0  0  0  0  0  0  0  0  0  0  0  0
   -1.0465    4.2960   -0.7403 H   0  0  0  0  0  0  0  0  0  0  0  0
   -0.9143    4.0761   -2.5271 H   0  0  0  0  0  0  0  0  0  0  0  0
    0.5579    4.2972   -1.5419 H   0  0  0  0  0  0  0  0  0  0  0  0
   -2.0391    0.6180    2.5810 H   0  0  0  0  0  0  0  0  0  0  0  0
   -3.5761    2.0185    3.8241 H   0  0  0  0  0  0  0  0  0  0  0  0
   -5.7384    2.6926    2.7285 H   0  0  0  0  0  0  0  0  0  0  0  0
   -6.2344    1.9345    0.4740 H   0  0  0  0  0  0  0  0  0  0  0  0
   -4.6451    0.5003   -0.7809 H   0  0  0  0  0  0  0  0  0  0  0  0
   -4.1026   -1.6263    1.5329 H   0  0  0  0  0  0  0  0  0  0  0  0
   -2.6233   -5.5916    0.6954 H   0  0  0  0  0  0  0  0  0  0  0  0
   -0.8238   -4.5502   -0.6446 H   0  0  0  0  0  0  0  0  0  0  0  0
    0.5549    0.7872   -2.5640 H   0  0  0  0  0  0  0  0  0  0  0  0
    0.9314   -0.9031   -2.8347 H   0  0  0  0  0  0  0  0  0  0  0  0
    2.8235   -1.8130   -2.2483 H   0  0  0  0  0  0  0  0  0  0  0  0
    4.9541   -1.7922   -1.1279 H   0  0  0  0  0  0  0  0  0  0  0  0
    6.9101    1.9122   -0.2967 H   0  0  0  0  0  0  0  0  0  0  0  0
    8.2737    0.7461    0.1592 H   0  0  0  0  0  0  0  0  0  0  0  0
    7.2712    0.4438   -1.2775 H   0  0  0  0  0  0  0  0  0  0  0  0
    3.8401    1.7147    1.0189 H   0  0  0  0  0  0  0  0  0  0  0  0
    1.6850    1.6857   -0.1008 H   0  0  0  0  0  0  0  0  0  0  0  0
  1  2  1  0
  2  3  1  0
  3  4  2  0
  3  5  1  0
  5  6  2  0
  6  7  1  0
  7  8  2  0
  8  9  1  0
  9 10  2  0
 10 11  1  0
 11 12  2  0
  6 13  1  0
 13 14  2  0
 14 15  1  0
 15 16  1  0
 15 17  2  0
 17 18  1  0
 18 19  2  0
 19 20  1  0
 20 21  2  0
 20 22  1  0
 22 23  1  0
 23 24  1  0
 24 25  2  0
 25 26  1  0
 26 27  2  0
 27 28  1  0
 28 29  1  0
 28 30  2  0
 28 31  2  0
 27 32  1  0
 32 33  2  0
 22  5  1  0
 33 24  1  0
 12  7  1  0
 19 13  1  0
  1 34  1  0
  1 35  1  0
  1 36  1  0
  8 37  1  0
  9 38  1  0
 10 39  1  0
 11 40  1  0
 12 41  1  0
 14 42  1  0
 17 43  1  0
 18 44  1  0
 23 45  1  0
 23 46  1  0
 25 47  1  0
 26 48  1  0
 29 49  1  0
 29 50  1  0
 29 51  1  0
 32 52  1  0
 33 53  1  0
M  END
$$$$
