@<TRIPOS>MOLECULE
*****
 53 56 0 0 0
SMALL
GASTEIGER

@<TRIPOS>ATOM
      1 C          -0.4523    3.8244   -1.5469 C.3     1  UNL1        0.0820
      2 O          -0.3904    2.4252   -1.4613 O.3     1  UNL1       -0.4634
      3 C          -1.2537    1.6432   -0.7308 C.2     1  UNL1        0.3563
      4 O          -2.1529    2.3070   -0.1102 O.2     1  UNL1       -0.2433
      5 C          -1.2418    0.2035   -0.6086 C.ar    1  UNL1        0.1383
      6 C          -2.2627   -0.3790    0.1519 C.ar    1  UNL1        0.0206
      7 C          -3.2347    0.4540    0.7973 C.ar    1  UNL1       -0.0151
      8 C          -2.9649    0.8965    2.0897 C.ar    1  UNL1       -0.0539
      9 C          -3.8351    1.6957    2.8072 C.ar    1  UNL1       -0.0612
     10 C          -5.0161    2.0700    2.2223 C.ar    1  UNL1       -0.0617
     11 C          -5.3033    1.6428    0.9427 C.ar    1  UNL1       -0.0612
     12 C          -4.4293    0.8428    0.2277 C.ar    1  UNL1       -0.0539
     13 C          -2.3843   -1.7494    0.3146 C.ar    1  UNL1       -0.0018
     14 C          -3.4009   -2.2890    1.0689 C.ar    1  UNL1       -0.0392
     15 C          -3.4750   -3.6545    1.1965 C.ar    1  UNL1        0.0185
     16 BR         -4.8578   -4.4537    2.2262 Br      1  UNL1       -0.0503
     17 C          -2.5574   -4.5015    0.5887 C.ar    1  UNL1       -0.0470
     18 C          -1.5559   -3.9209   -0.1571 C.ar    1  UNL1       -0.0478
     19 C          -1.4503   -2.5586   -0.3070 C.ar    1  UNL1        0.0474
     20 C          -0.4462   -1.9656   -1.0545 C.ar    1  UNL1        0.2600
     21 O           0.3631   -2.7380   -1.5898 O.2     1  UNL1       -0.2670
     22 N          -0.3500   -0.6097   -1.1964 N.ar    1  UNL1       -0.2973
     23 C           0.7396   -0.1467   -1.9930 C.3     1  UNL1        0.0519
     24 C           2.0298   -0.0305   -1.2661 C.ar    1  UNL1       -0.0275
     25 C           2.9940   -1.0118   -1.5314 C.ar    1  UNL1       -0.0551
     26 C           4.2210   -1.0187   -0.9052 C.ar    1  UNL1       -0.0366
     27 C           4.5359   -0.0346    0.0201 C.ar    1  UNL1        0.0879
     28 S           6.1061   -0.1006    0.7767 S.O2    1  UNL1       -0.0059
     29 C           7.2434    0.8454   -0.2306 C.3     1  UNL1        0.0596
     30 O           6.6377   -1.4940    0.8473 O.2     1  UNL1       -0.1696
     31 O           6.1105    0.5001    2.1379 O.2     1  UNL1       -0.1696
     32 C           3.6085    0.9421    0.3006 C.ar    1  UNL1       -0.0366
     33 C           2.3672    0.9179   -0.3566 C.ar    1  UNL1       -0.0551
     34 H          -1.0465    4.2960   -0.7403 H       1  UNL1        0.0661
     35 H          -0.9143    4.0761   -2.5271 H       1  UNL1        0.0661
     36 H           0.5579    4.2972   -1.5419 H       1  UNL1        0.0661
     37 H          -2.0391    0.6180    2.5810 H       1  UNL1        0.0624
     38 H          -3.5761    2.0185    3.8241 H       1  UNL1        0.0618
     39 H          -5.7384    2.6926    2.7285 H       1  UNL1        0.0618
     40 H          -6.2344    1.9345    0.4740 H       1  UNL1        0.0618
     41 H          -4.6451    0.5003   -0.7809 H       1  UNL1        0.0624
     42 H          -4.1026   -1.6263    1.5329 H       1  UNL1        0.0635
     43 H          -2.6233   -5.5916    0.6954 H       1  UNL1        0.0629
     44 H          -0.8238   -4.5502   -0.6446 H       1  UNL1        0.0626
     45 H           0.5549    0.7872   -2.5640 H       1  UNL1        0.0542
     46 H           0.9314   -0.9031   -2.8347 H       1  UNL1        0.0542
     47 H           2.8235   -1.8130   -2.2483 H       1  UNL1        0.0621
     48 H           4.9541   -1.7922   -1.1279 H       1  UNL1        0.0637
     49 H           6.9101    1.9122   -0.2967 H       1  UNL1        0.0468
     50 H           8.2737    0.7461    0.1592 H       1  UNL1        0.0468
     51 H           7.2712    0.4438   -1.2775 H       1  UNL1        0.0468
     52 H           3.8401    1.7147    1.0189 H       1  UNL1        0.0637
     53 H           1.6850    1.6857   -0.1008 H       1  UNL1        0.0621
@<TRIPOS>BOND
     1     1     2    1
     2     2     3    1
     3     3     4    2
     4     3     5    1
     5     5     6   ar
     6     6     7    1
     7     7     8   ar
     8     8     9   ar
     9     9    10   ar
    10    10    11   ar
    11    11    12   ar
    12     6    13   ar
    13    13    14   ar
    14    14    15   ar
    15    15    16    1
    16    15    17   ar
    17    17    18   ar
    18    18    19   ar
    19    19    20   ar
    20    20    21    2
    21    20    22   ar
    22    22    23    1
    23    23    24    1
    24    24    25   ar
    25    25    26   ar
    26    26    27   ar
    27    27    28    1
    28    28    29    1
    29    28    30    2
    30    28    31    2
    31    27    32   ar
    32    32    33   ar
    33    22     5   ar
    34    33    24   ar
    35    12     7   ar
    36    19    13   ar
    37     1    34    1
    38     1    35    1
    39     1    36    1
    40     8    37    1
    41     9    38    1
    42    10    39    1
    43    11    40    1
    44    12    41    1
    45    14    42    1
    46    17    43    1
    47    18    44    1
    48    23    45    1
    49    23    46    1
    50    25    47    1
    51    26    48    1
    52    29    49    1
    53    29    50    1
    54    29    51    1
    55    32    52    1
    56    33    53    1
