
     RDKit          3D

 40 41  0  0  0  0  0  0  0  0999 V2000
    5.1985    0.2955    0.3125 C   0  0  0  0  0  0  0  0  0  0  0  0
    3.9426    0.0522   -0.3752 N   0  0  0  0  0  0  0  0  0  0  0  0
    3.8874   -1.2986   -0.9013 C   0  0  0  0  0  0  0  0  0  0  0  0
    2.8013    0.3300    0.4800 C   0  0  0  0  0  0  0  0  0  0  0  0
    1.5569    0.0481   -0.3230 C   0  0  0  0  0  0  0  0  0  0  0  0
    0.3922    0.2710    0.3700 O   0  0  0  0  0  0  0  0  0  0  0  0
   -0.7576    0.0087   -0.3777 C   0  0  0  0  0  0  0  0  0  0  0  0
   -1.5483   -1.1048    0.2023 C   0  0  0  0  0  0  0  0  0  0  0  0
   -1.7509   -1.1056    1.5731 C   0  0  0  0  0  0  0  0  0  0  0  0
   -2.4851   -2.1315    2.1451 C   0  0  0  0  0  0  0  0  0  0  0  0
   -3.0131   -3.1446    1.3746 C   0  0  0  0  0  0  0  0  0  0  0  0
   -2.8128   -3.1499   -0.0065 C   0  0  0  0  0  0  0  0  0  0  0  0
   -2.0794   -2.1243   -0.5749 C   0  0  0  0  0  0  0  0  0  0  0  0
   -1.5776    1.2259   -0.5794 C   0  0  0  0  0  0  0  0  0  0  0  0
   -2.9493    1.2369   -0.4193 C   0  0  0  0  0  0  0  0  0  0  0  0
   -3.7162    2.3753   -0.6079 C   0  0  0  0  0  0  0  0  0  0  0  0
   -3.0246    3.5346   -0.9747 C   0  0  0  0  0  0  0  0  0  0  0  0
   -4.1239    5.0765   -1.2229 Br  0  0  0  0  0  0  0  0  0  0  0  0
   -1.6479    3.5611   -1.1446 C   0  0  0  0  0  0  0  0  0  0  0  0
   -0.9277    2.3875   -0.9418 C   0  0  0  0  0  0  0  0  0  0  0  0
    5.9809   -0.1580   -0.3518 H   0  0  0  0  0  0  0  0  0  0  0  0
    5.3832    1.3717    0.3560 H   0  0  0  0  0  0  0  0  0  0  0  0
    5.2371   -0.2200    1.2959 H   0  0  0  0  0  0  0  0  0  0  0  0
    3.4147   -1.9793   -0.1643 H   0  0  0  0  0  0  0  0  0  0  0  0
    3.2230   -1.2804   -1.7906 H   0  0  0  0  0  0  0  0  0  0  0  0
    4.8887   -1.6781   -1.1779 H   0  0  0  0  0  0  0  0  0  0  0  0
    2.8920    1.3989    0.7668 H   0  0  0  0  0  0  0  0  0  0  0  0
    2.8091   -0.2558    1.4227 H   0  0  0  0  0  0  0  0  0  0  0  0
    1.6346    0.6376   -1.2571 H   0  0  0  0  0  0  0  0  0  0  0  0
    1.5974   -1.0477   -0.5734 H   0  0  0  0  0  0  0  0  0  0  0  0
   -0.4129   -0.3246   -1.3789 H   0  0  0  0  0  0  0  0  0  0  0  0
   -1.3644   -0.3356    2.2586 H   0  0  0  0  0  0  0  0  0  0  0  0
   -2.6637   -2.1615    3.2277 H   0  0  0  0  0  0  0  0  0  0  0  0
   -3.5935   -3.9702    1.7648 H   0  0  0  0  0  0  0  0  0  0  0  0
   -3.1912   -3.9071   -0.6923 H   0  0  0  0  0  0  0  0  0  0  0  0
   -1.9078   -2.1021   -1.6437 H   0  0  0  0  0  0  0  0  0  0  0  0
   -3.4061    0.2912   -0.1329 H   0  0  0  0  0  0  0  0  0  0  0  0
   -4.7859    2.3529   -0.4755 H   0  0  0  0  0  0  0  0  0  0  0  0
   -1.2354    4.5196   -1.4289 H   0  0  0  0  0  0  0  0  0  0  0  0
    0.1358    2.5044   -1.0967 H   0  0  0  0  0  0  0  0  0  0  0  0
  1  2  1  0
  2  3  1  0
  2  4  1  0
  4  5  1  0
  5  6  1  0
  6  7  1  0
  7  8  1  0
  8  9  2  0
  9 10  1  0
 10 11  2  0
 11 12  1  0
 12 13  2  0
  7 14  1  0
 14 15  2  0
 15 16  1  0
 16 17  2  0
 17 18  1  0
 17 19  1  0
 19 20  2  0
 13  8  1  0
 20 14  1  0
  1 21  1  0
  1 22  1  0
  1 23  1  0
  3 24  1  0
  3 25  1  0
  3 26  1  0
  4 27  1  0
  4 28  1  0
  5 29  1  0
  5 30  1  0
  7 31  1  0
  9 32  1  0
 10 33  1  0
 11 34  1  0
 12 35  1  0
 13 36  1  0
 15 37  1  0
 16 38  1  0
 19 39  1  0
 20 40  1  0
M  END
$$$$
