@<TRIPOS>MOLECULE
*****
 47 50 0 0 0
SMALL
GASTEIGER

@<TRIPOS>ATOM
      1 C          -0.7148   -0.0797    3.6389 C.3     1  UNL1       -0.0274
      2 C          -1.1726    0.0682    2.1829 C.3     1  UNL1        0.1037
      3 O          -0.7404   -0.9977    1.3964 O.3     1  UNL1       -0.4725
      4 C           0.1288   -0.9059    0.3154 C.ar    1  UNL1        0.2265
      5 N           0.6559    0.2662   -0.0896 N.ar    1  UNL1       -0.2122
      6 C           1.5036    0.3502   -1.1448 C.ar    1  UNL1        0.0783
      7 C           2.0558    1.6393   -1.5548 C.ar    1  UNL1        0.0187
      8 C           2.9155    1.7635   -2.6168 C.ar    1  UNL1       -0.0491
      9 C           3.4215    2.9919   -2.9807 C.ar    1  UNL1       -0.0310
     10 C           3.0796    4.1340   -2.2888 C.ar    1  UNL1        0.1436
     11 C           3.6219    5.4543   -2.6771 C.3     1  UNL1        0.4342
     12 F           4.9525    5.3486   -3.0941 F       1  UNL1       -0.1644
     13 F           3.6134    6.3660   -1.6492 F       1  UNL1       -0.1644
     14 F           2.9150    5.9294   -3.7448 F       1  UNL1       -0.1644
     15 N           2.2361    3.9777   -1.2546 N.ar    1  UNL1       -0.2503
     16 C           1.7252    2.7953   -0.8741 C.ar    1  UNL1        0.0374
     17 C           1.8079   -0.8058   -1.7896 C.ar    1  UNL1       -0.0077
     18 C           1.2900   -2.0510   -1.4126 C.ar    1  UNL1        0.0999
     19 N           1.4043   -3.3130   -1.8407 N.ar    1  UNL1       -0.1712
     20 N           0.6579   -4.1188   -1.0759 N.ar    1  UNL1       -0.2732
     21 C           0.4936   -5.5604   -1.1907 C.3     1  UNL1        0.0302
     22 C           0.0342   -3.3898   -0.1221 C.ar    1  UNL1        0.0380
     23 C           0.4332   -2.0843   -0.3345 C.ar    1  UNL1        0.0812
     24 C          -2.6680    0.2202    2.2232 C.3     1  UNL1        0.0196
     25 C          -3.2985    0.3784    0.8768 C.3     1  UNL1        0.0182
     26 N          -4.7018    0.1383    1.1468 N.am    1  UNL1       -0.3149
     27 C          -4.7396   -0.8361    2.1830 C.2     1  UNL1        0.2135
     28 O          -5.7249   -1.4803    2.6233 O.2     1  UNL1       -0.2758
     29 C          -3.3538   -1.0264    2.7404 C.3     1  UNL1        0.0315
     30 H           0.3905   -0.2365    3.6899 H       1  UNL1        0.0265
     31 H          -1.2819   -0.8602    4.1463 H       1  UNL1        0.0265
     32 H          -0.9012    0.8953    4.1372 H       1  UNL1        0.0265
     33 H          -0.7302    1.0096    1.8241 H       1  UNL1        0.0734
     34 H           3.2325    0.9205   -3.2094 H       1  UNL1        0.0625
     35 H           4.1009    3.1026   -3.8171 H       1  UNL1        0.0638
     36 H           1.0562    2.7517   -0.0359 H       1  UNL1        0.0836
     37 H           2.4712   -0.8368   -2.6367 H       1  UNL1        0.0661
     38 H           1.2714   -6.0322   -0.5310 H       1  UNL1        0.0473
     39 H          -0.5247   -5.8337   -0.8866 H       1  UNL1        0.0473
     40 H           0.6688   -5.9239   -2.2119 H       1  UNL1        0.0473
     41 H          -0.6270   -3.7175    0.6422 H       1  UNL1        0.0834
     42 H          -2.9174    1.0601    2.8923 H       1  UNL1        0.0356
     43 H          -3.1422    1.3866    0.4379 H       1  UNL1        0.0466
     44 H          -2.9564   -0.4410    0.2195 H       1  UNL1        0.0466
     45 H          -5.5222    0.5835    0.6822 H       1  UNL1        0.1487
     46 H          -3.4503   -1.0559    3.8320 H       1  UNL1        0.0363
     47 H          -2.9694   -1.9444    2.2814 H       1  UNL1        0.0363
@<TRIPOS>BOND
     1     1     2    1
     2     2     3    1
     3     3     4    1
     4     4     5   ar
     5     5     6   ar
     6     6     7    1
     7     7     8   ar
     8     8     9   ar
     9     9    10   ar
    10    10    11    1
    11    11    12    1
    12    11    13    1
    13    11    14    1
    14    10    15   ar
    15    15    16   ar
    16     6    17   ar
    17    17    18   ar
    18    18    19   ar
    19    19    20   ar
    20    20    21    1
    21    20    22   ar
    22    22    23   ar
    23     2    24    1
    24    24    25    1
    25    25    26    1
    26    26    27   am
    27    27    28    2
    28    27    29    1
    29    23     4   ar
    30    29    24    1
    31    16     7   ar
    32    23    18   ar
    33     1    30    1
    34     1    31    1
    35     1    32    1
    36     2    33    1
    37     8    34    1
    38     9    35    1
    39    16    36    1
    40    17    37    1
    41    21    38    1
    42    21    39    1
    43    21    40    1
    44    22    41    1
    45    24    42    1
    46    25    43    1
    47    25    44    1
    48    26    45    1
    49    29    46    1
    50    29    47    1
