
     RDKit          3D

 33 34  0  0  0  0  0  0  0  0999 V2000
    0.1227    1.7170   -1.2596 C   0  0  0  0  0  0  0  0  0  0  0  0
   -0.0338    0.2750   -0.7804 C   0  0  0  0  0  0  0  0  0  0  0  0
   -0.2427   -0.5845   -2.0331 C   0  0  0  0  0  0  0  0  0  0  0  0
    1.2013   -0.1227   -0.1099 C   0  0  0  0  0  0  0  0  0  0  0  0
    2.1988    0.8003    0.0886 C   0  0  0  0  0  0  0  0  0  0  0  0
    3.3920    0.4733    0.7251 C   0  0  0  0  0  0  0  0  0  0  0  0
    3.6133   -0.8080    1.1835 C   0  0  0  0  0  0  0  0  0  0  0  0
    4.8138   -1.1499    1.8277 O   0  0  0  0  0  0  0  0  0  0  0  0
    2.6167   -1.7380    0.9870 C   0  0  0  0  0  0  0  0  0  0  0  0
    1.4368   -1.4134    0.3572 C   0  0  0  0  0  0  0  0  0  0  0  0
   -1.2253    0.2196    0.0769 C   0  0  0  0  0  0  0  0  0  0  0  0
   -1.4188    1.1158    1.1074 C   0  0  0  0  0  0  0  0  0  0  0  0
   -2.5670    1.0004    1.8768 C   0  0  0  0  0  0  0  0  0  0  0  0
   -3.5224    0.0346    1.6613 C   0  0  0  0  0  0  0  0  0  0  0  0
   -4.6773   -0.0687    2.4481 O   0  0  0  0  0  0  0  0  0  0  0  0
   -3.3196   -0.8590    0.6262 C   0  0  0  0  0  0  0  0  0  0  0  0
   -2.1666   -0.7557   -0.1586 C   0  0  0  0  0  0  0  0  0  0  0  0
    0.9624    1.8084   -1.9766 H   0  0  0  0  0  0  0  0  0  0  0  0
    0.1879    2.4247   -0.4083 H   0  0  0  0  0  0  0  0  0  0  0  0
   -0.8027    2.0400   -1.8191 H   0  0  0  0  0  0  0  0  0  0  0  0
    0.5417   -0.1987   -2.7480 H   0  0  0  0  0  0  0  0  0  0  0  0
   -1.2598   -0.3585   -2.4028 H   0  0  0  0  0  0  0  0  0  0  0  0
   -0.0614   -1.6476   -1.8429 H   0  0  0  0  0  0  0  0  0  0  0  0
    2.1285    1.8383   -0.2334 H   0  0  0  0  0  0  0  0  0  0  0  0
    4.1758    1.2273    0.8725 H   0  0  0  0  0  0  0  0  0  0  0  0
    5.6418   -0.6806    1.5303 H   0  0  0  0  0  0  0  0  0  0  0  0
    2.7716   -2.7654    1.3429 H   0  0  0  0  0  0  0  0  0  0  0  0
    0.6519   -2.1714    0.2087 H   0  0  0  0  0  0  0  0  0  0  0  0
   -0.7148    1.9017    1.3407 H   0  0  0  0  0  0  0  0  0  0  0  0
   -2.7356    1.7025    2.6978 H   0  0  0  0  0  0  0  0  0  0  0  0
   -5.5859   -0.1311    1.9620 H   0  0  0  0  0  0  0  0  0  0  0  0
   -4.0429   -1.6372    0.4154 H   0  0  0  0  0  0  0  0  0  0  0  0
   -2.0805   -1.4886   -0.9432 H   0  0  0  0  0  0  0  0  0  0  0  0
  1  2  1  0
  2  3  1  0
  2  4  1  0
  4  5  2  0
  5  6  1  0
  6  7  2  0
  7  8  1  0
  7  9  1  0
  9 10  2  0
  2 11  1  0
 11 12  2  0
 12 13  1  0
 13 14  2  0
 14 15  1  0
 14 16  1  0
 16 17  2  0
 10  4  1  0
 17 11  1  0
  1 18  1  0
  1 19  1  0
  1 20  1  0
  3 21  1  0
  3 22  1  0
  3 23  1  0
  5 24  1  0
  6 25  1  0
  8 26  1  0
  9 27  1  0
 10 28  1  0
 12 29  1  0
 13 30  1  0
 15 31  1  0
 16 32  1  0
 17 33  1  0
M  END
$$$$
