
     RDKit          3D

 59 62  0  0  0  0  0  0  0  0999 V2000
   -2.5067    1.3054    2.5924 N   0  0  0  0  0  0  0  0  0  0  0  0
   -3.7581    0.9967    2.0070 C   0  0  0  0  0  0  0  0  0  0  0  0
   -4.9188    1.4580    2.5876 C   0  0  0  0  0  0  0  0  0  0  0  0
   -6.1295    1.1528    2.0111 C   0  0  0  0  0  0  0  0  0  0  0  0
   -6.1563    0.3843    0.8534 C   0  0  0  0  0  0  0  0  0  0  0  0
   -7.4275    0.0563    0.2359 C   0  0  0  0  0  0  0  0  0  0  0  0
   -7.5068   -0.1053   -1.1296 C   0  0  0  0  0  0  0  0  0  0  0  0
   -8.7241   -0.4213   -1.7422 C   0  0  0  0  0  0  0  0  0  0  0  0
   -9.8540   -0.5757   -1.0046 C   0  0  0  0  0  0  0  0  0  0  0  0
   -9.7944   -0.4182    0.3606 C   0  0  0  0  0  0  0  0  0  0  0  0
   -8.5744   -0.1028    0.9620 C   0  0  0  0  0  0  0  0  0  0  0  0
   -4.9613   -0.0696    0.2876 C   0  0  0  0  0  0  0  0  0  0  0  0
   -3.7410    0.2303    0.8567 C   0  0  0  0  0  0  0  0  0  0  0  0
   -2.4941   -0.2153    0.3068 N   0  0  0  0  0  0  0  0  0  0  0  0
   -1.7709    0.5357   -0.6413 C   0  0  0  0  0  0  0  0  0  0  0  0
   -2.3212    1.6493   -0.9709 O   0  0  0  0  0  0  0  0  0  0  0  0
   -0.5047    0.1487   -1.2398 C   0  0  0  0  0  0  0  0  0  0  0  0
    0.0944   -1.0346   -0.9011 C   0  0  0  0  0  0  0  0  0  0  0  0
    1.3158   -1.4289   -1.4636 C   0  0  0  0  0  0  0  0  0  0  0  0
    1.9470   -0.6245   -2.3798 C   0  0  0  0  0  0  0  0  0  0  0  0
    3.2540   -1.0031   -3.0014 C   0  0  0  0  0  0  0  0  0  0  0  0
    4.3940   -0.5171   -2.2971 N   0  0  0  0  0  0  0  0  0  0  0  0
    4.9328   -1.0358   -1.1051 C   0  0  0  0  0  0  0  0  0  0  0  0
    4.3878   -2.0186   -0.5828 O   0  0  0  0  0  0  0  0  0  0  0  0
    6.0558   -0.4963   -0.4781 O   0  0  0  0  0  0  0  0  0  0  0  0
    6.5138   -1.0978    0.7188 C   0  0  0  0  0  0  0  0  0  0  0  0
    7.7059   -0.3292    1.1617 C   0  0  0  0  0  0  0  0  0  0  0  0
    7.5730    0.7588    2.0045 C   0  0  0  0  0  0  0  0  0  0  0  0
    8.6467    1.4976    2.4387 C   0  0  0  0  0  0  0  0  0  0  0  0
    9.9031    1.1374    2.0159 C   0  0  0  0  0  0  0  0  0  0  0  0
   10.0545    0.0524    1.1732 C   0  0  0  0  0  0  0  0  0  0  0  0
    8.9693   -0.6795    0.7456 C   0  0  0  0  0  0  0  0  0  0  0  0
    1.3241    0.5755   -2.7132 C   0  0  0  0  0  0  0  0  0  0  0  0
    0.1202    0.9628   -2.1581 C   0  0  0  0  0  0  0  0  0  0  0  0
   -2.2930    2.2515    2.9763 H   0  0  0  0  0  0  0  0  0  0  0  0
   -1.7918    0.5457    2.6294 H   0  0  0  0  0  0  0  0  0  0  0  0
   -4.9324    2.0569    3.4869 H   0  0  0  0  0  0  0  0  0  0  0  0
   -7.0830    1.4889    2.4234 H   0  0  0  0  0  0  0  0  0  0  0  0
   -6.6506    0.0047   -1.7528 H   0  0  0  0  0  0  0  0  0  0  0  0
   -8.7782   -0.5479   -2.8277 H   0  0  0  0  0  0  0  0  0  0  0  0
  -10.8257   -0.8247   -1.4608 H   0  0  0  0  0  0  0  0  0  0  0  0
  -10.7012   -0.5442    0.9327 H   0  0  0  0  0  0  0  0  0  0  0  0
   -8.5607    0.0129    2.0239 H   0  0  0  0  0  0  0  0  0  0  0  0
   -4.9881   -0.6686   -0.6153 H   0  0  0  0  0  0  0  0  0  0  0  0
   -2.1177   -1.1296    0.6270 H   0  0  0  0  0  0  0  0  0  0  0  0
   -0.3736   -1.7028   -0.1771 H   0  0  0  0  0  0  0  0  0  0  0  0
    1.7480   -2.3733   -1.1674 H   0  0  0  0  0  0  0  0  0  0  0  0
    3.2180   -0.6244   -4.0459 H   0  0  0  0  0  0  0  0  0  0  0  0
    3.2257   -2.1099   -3.0932 H   0  0  0  0  0  0  0  0  0  0  0  0
    4.8917    0.3263   -2.7139 H   0  0  0  0  0  0  0  0  0  0  0  0
    5.7223   -1.1200    1.4992 H   0  0  0  0  0  0  0  0  0  0  0  0
    6.7932   -2.1698    0.5478 H   0  0  0  0  0  0  0  0  0  0  0  0
    6.5861    1.0293    2.3272 H   0  0  0  0  0  0  0  0  0  0  0  0
    8.4676    2.3299    3.0926 H   0  0  0  0  0  0  0  0  0  0  0  0
   10.7779    1.6784    2.3233 H   0  0  0  0  0  0  0  0  0  0  0  0
   11.0286   -0.2255    0.8463 H   0  0  0  0  0  0  0  0  0  0  0  0
    9.0595   -1.5266    0.0910 H   0  0  0  0  0  0  0  0  0  0  0  0
    1.8520    1.1933   -3.4457 H   0  0  0  0  0  0  0  0  0  0  0  0
   -0.3228    1.9211   -2.4603 H   0  0  0  0  0  0  0  0  0  0  0  0
  1  2  1  0
  2  3  2  0
  3  4  1  0
  4  5  2  0
  5  6  1  0
  6  7  2  0
  7  8  1  0
  8  9  2  0
  9 10  1  0
 10 11  2  0
  5 12  1  0
 12 13  2  0
 13 14  1  0
 14 15  1  0
 15 16  2  0
 15 17  1  0
 17 18  2  0
 18 19  1  0
 19 20  2  0
 20 21  1  0
 21 22  1  0
 22 23  1  0
 23 24  2  0
 23 25  1  0
 25 26  1  0
 26 27  1  0
 27 28  2  0
 28 29  1  0
 29 30  2  0
 30 31  1  0
 31 32  2  0
 20 33  1  0
 33 34  2  0
 13  2  1  0
 34 17  1  0
 11  6  1  0
 32 27  1  0
  1 35  1  0
  1 36  1  0
  3 37  1  0
  4 38  1  0
  7 39  1  0
  8 40  1  0
  9 41  1  0
 10 42  1  0
 11 43  1  0
 12 44  1  0
 14 45  1  0
 18 46  1  0
 19 47  1  0
 21 48  1  0
 21 49  1  0
 22 50  1  0
 26 51  1  0
 26 52  1  0
 28 53  1  0
 29 54  1  0
 30 55  1  0
 31 56  1  0
 32 57  1  0
 33 58  1  0
 34 59  1  0
M  END
$$$$
