@<TRIPOS>MOLECULE
*****
 59 62 0 0 0
SMALL
GASTEIGER

@<TRIPOS>ATOM
      1 N          -2.5067    1.3054    2.5924 N.pl3   1  UNL1       -0.3565
      2 C          -3.7581    0.9967    2.0070 C.ar    1  UNL1        0.0461
      3 C          -4.9188    1.4580    2.5876 C.ar    1  UNL1       -0.0387
      4 C          -6.1295    1.1528    2.0111 C.ar    1  UNL1       -0.0522
      5 C          -6.1563    0.3843    0.8534 C.ar    1  UNL1       -0.0160
      6 C          -7.4275    0.0563    0.2359 C.ar    1  UNL1       -0.0178
      7 C          -7.5068   -0.1053   -1.1296 C.ar    1  UNL1       -0.0540
      8 C          -8.7241   -0.4213   -1.7422 C.ar    1  UNL1       -0.0612
      9 C          -9.8540   -0.5757   -1.0046 C.ar    1  UNL1       -0.0617
     10 C          -9.7944   -0.4182    0.3606 C.ar    1  UNL1       -0.0612
     11 C          -8.5744   -0.1028    0.9620 C.ar    1  UNL1       -0.0540
     12 C          -4.9613   -0.0696    0.2876 C.ar    1  UNL1       -0.0310
     13 C          -3.7410    0.2303    0.8567 C.ar    1  UNL1        0.0551
     14 N          -2.4941   -0.2153    0.3068 N.am    1  UNL1       -0.2799
     15 C          -1.7709    0.5357   -0.6413 C.2     1  UNL1        0.2483
     16 O          -2.3212    1.6493   -0.9709 O.2     1  UNL1       -0.2699
     17 C          -0.5047    0.1487   -1.2398 C.ar    1  UNL1        0.0370
     18 C           0.0944   -1.0346   -0.9011 C.ar    1  UNL1       -0.0493
     19 C           1.3158   -1.4289   -1.4636 C.ar    1  UNL1       -0.0564
     20 C           1.9470   -0.6245   -2.3798 C.ar    1  UNL1       -0.0302
     21 C           3.2540   -1.0031   -3.0014 C.3     1  UNL1        0.0400
     22 N           4.3940   -0.5171   -2.2971 N.am    1  UNL1       -0.2770
     23 C           4.9328   -1.0358   -1.1051 C.2     1  UNL1        0.4008
     24 O           4.3878   -2.0186   -0.5828 O.2     1  UNL1       -0.2265
     25 O           6.0558   -0.4963   -0.4781 O.3     1  UNL1       -0.4456
     26 C           6.5138   -1.0978    0.7188 C.3     1  UNL1        0.1191
     27 C           7.7059   -0.3292    1.1617 C.ar    1  UNL1       -0.0103
     28 C           7.5730    0.7588    2.0045 C.ar    1  UNL1       -0.0554
     29 C           8.6467    1.4976    2.4387 C.ar    1  UNL1       -0.0614
     30 C           9.9031    1.1374    2.0159 C.ar    1  UNL1       -0.0617
     31 C          10.0545    0.0524    1.1732 C.ar    1  UNL1       -0.0614
     32 C           8.9693   -0.6795    0.7456 C.ar    1  UNL1       -0.0554
     33 C           1.3241    0.5755   -2.7132 C.ar    1  UNL1       -0.0564
     34 C           0.1202    0.9628   -2.1581 C.ar    1  UNL1       -0.0493
     35 H          -2.2930    2.2515    2.9763 H       1  UNL1        0.1424
     36 H          -1.7918    0.5457    2.6294 H       1  UNL1        0.1424
     37 H          -4.9324    2.0569    3.4869 H       1  UNL1        0.0637
     38 H          -7.0830    1.4889    2.4234 H       1  UNL1        0.0624
     39 H          -6.6506    0.0047   -1.7528 H       1  UNL1        0.0624
     40 H          -8.7782   -0.5479   -2.8277 H       1  UNL1        0.0618
     41 H         -10.8257   -0.8247   -1.4608 H       1  UNL1        0.0618
     42 H         -10.7012   -0.5442    0.9327 H       1  UNL1        0.0618
     43 H          -8.5607    0.0129    2.0239 H       1  UNL1        0.0624
     44 H          -4.9881   -0.6686   -0.6153 H       1  UNL1        0.0643
     45 H          -2.1177   -1.1296    0.6270 H       1  UNL1        0.1552
     46 H          -0.3736   -1.7028   -0.1771 H       1  UNL1        0.0625
     47 H           1.7480   -2.3733   -1.1674 H       1  UNL1        0.0621
     48 H           3.2180   -0.6244   -4.0459 H       1  UNL1        0.0513
     49 H           3.2257   -2.1099   -3.0932 H       1  UNL1        0.0513
     50 H           4.8917    0.3263   -2.7139 H       1  UNL1        0.1523
     51 H           5.7223   -1.1200    1.4992 H       1  UNL1        0.0749
     52 H           6.7932   -2.1698    0.5478 H       1  UNL1        0.0749
     53 H           6.5861    1.0293    2.3272 H       1  UNL1        0.0621
     54 H           8.4676    2.3299    3.0926 H       1  UNL1        0.0618
     55 H          10.7779    1.6784    2.3233 H       1  UNL1        0.0618
     56 H          11.0286   -0.2255    0.8463 H       1  UNL1        0.0618
     57 H           9.0595   -1.5266    0.0910 H       1  UNL1        0.0621
     58 H           1.8520    1.1933   -3.4457 H       1  UNL1        0.0621
     59 H          -0.3228    1.9211   -2.4603 H       1  UNL1        0.0625
@<TRIPOS>BOND
     1     1     2    1
     2     2     3   ar
     3     3     4   ar
     4     4     5   ar
     5     5     6    1
     6     6     7   ar
     7     7     8   ar
     8     8     9   ar
     9     9    10   ar
    10    10    11   ar
    11     5    12   ar
    12    12    13   ar
    13    13    14    1
    14    14    15   am
    15    15    16    2
    16    15    17    1
    17    17    18   ar
    18    18    19   ar
    19    19    20   ar
    20    20    21    1
    21    21    22    1
    22    22    23   am
    23    23    24    2
    24    23    25    1
    25    25    26    1
    26    26    27    1
    27    27    28   ar
    28    28    29   ar
    29    29    30   ar
    30    30    31   ar
    31    31    32   ar
    32    20    33   ar
    33    33    34   ar
    34    13     2   ar
    35    34    17   ar
    36    11     6   ar
    37    32    27   ar
    38     1    35    1
    39     1    36    1
    40     3    37    1
    41     4    38    1
    42     7    39    1
    43     8    40    1
    44     9    41    1
    45    10    42    1
    46    11    43    1
    47    12    44    1
    48    14    45    1
    49    18    46    1
    50    19    47    1
    51    21    48    1
    52    21    49    1
    53    22    50    1
    54    26    51    1
    55    26    52    1
    56    28    53    1
    57    29    54    1
    58    30    55    1
    59    31    56    1
    60    32    57    1
    61    33    58    1
    62    34    59    1
