@<TRIPOS>MOLECULE
*****
 46 50 0 0 0
SMALL
GASTEIGER

@<TRIPOS>ATOM
      1 N           7.0318    2.1026    3.2635 N.1     1  UNL1       -0.1908
      2 C           6.3466    1.5594    2.4925 C.1     1  UNL1        0.1007
      3 C           5.5141    0.8912    1.5237 C.ar    1  UNL1        0.0705
      4 C           4.2554    1.4113    1.2818 C.ar    1  UNL1        0.0458
      5 N           3.3966    0.8724    0.4066 N.ar    1  UNL1       -0.2502
      6 C           3.7956   -0.2373   -0.2680 C.ar    1  UNL1        0.1137
      7 C           2.8781   -0.7782   -1.1708 C.ar    1  UNL1        0.1492
      8 N           1.5989   -0.1631   -1.3520 N.pl3   1  UNL1       -0.2977
      9 C           0.5263   -0.4750   -0.4696 C.ar    1  UNL1        0.0329
     10 C           0.6726   -1.3913    0.5546 C.ar    1  UNL1       -0.0378
     11 C          -0.3262   -1.7186    1.4392 C.ar    1  UNL1       -0.0243
     12 C          -1.5518   -1.0698    1.2672 C.ar    1  UNL1        0.1291
     13 F          -2.5372   -1.3933    2.1371 F       1  UNL1       -0.2051
     14 C          -1.7267   -0.1520    0.2551 C.ar    1  UNL1        0.0198
     15 C          -3.0854    0.5028    0.1569 C.3     1  UNL1        0.1284
     16 C          -3.2301    1.3273    1.4037 C.3     1  UNL1        0.1199
     17 F          -4.4370    1.9933    1.4597 F       1  UNL1       -0.2462
     18 N          -3.0803    1.4209   -0.9560 N.2     1  UNL1       -0.2225
     19 C          -4.2106    1.8026   -1.4447 C.2     1  UNL1        0.2763
     20 N          -4.2818    2.7122   -2.5476 N.pl3   1  UNL1       -0.3134
     21 O          -5.3545    1.2771   -0.8359 O.2     1  UNL1       -0.4622
     22 C          -5.4131   -0.0980   -0.5961 C.3     1  UNL1        0.1090
     23 C          -5.3259   -0.6941    0.7439 C.3     1  UNL1       -0.0065
     24 C          -4.0855   -0.5523   -0.0317 C.3     1  UNL1        0.0315
     25 C          -0.6990    0.1451   -0.6075 C.ar    1  UNL1       -0.0322
     26 N           3.2642   -1.8776   -1.8403 N.ar    1  UNL1       -0.2351
     27 C           4.4733   -2.4438   -1.6616 C.ar    1  UNL1        0.0656
     28 C           5.3934   -1.9246   -0.7742 C.ar    1  UNL1        0.1507
     29 F           6.6124   -2.4879   -0.5872 F       1  UNL1       -0.2032
     30 C           5.0318   -0.7989   -0.0713 C.ar    1  UNL1        0.0417
     31 C           5.9221   -0.2306    0.8441 C.ar    1  UNL1       -0.0308
     32 H           3.9141    2.3103    1.8187 H       1  UNL1        0.0843
     33 H           1.4935    0.5024   -2.1361 H       1  UNL1        0.1536
     34 H           1.6479   -1.8744    0.6518 H       1  UNL1        0.0637
     35 H          -0.1439   -2.4445    2.2179 H       1  UNL1        0.0647
     36 H          -2.4527    2.1487    1.3893 H       1  UNL1        0.0643
     37 H          -3.0882    0.8086    2.3452 H       1  UNL1        0.0643
     38 H          -4.4334    3.7117   -2.3467 H       1  UNL1        0.1466
     39 H          -4.1857    2.3908   -3.5221 H       1  UNL1        0.1466
     40 H          -5.8875   -0.6810   -1.4171 H       1  UNL1        0.0737
     41 H          -5.5539   -0.0716    1.6307 H       1  UNL1        0.0306
     42 H          -5.7417   -1.7188    0.8400 H       1  UNL1        0.0306
     43 H          -3.7058   -1.4852   -0.5441 H       1  UNL1        0.0365
     44 H          -0.8948    0.8700   -1.3768 H       1  UNL1        0.0640
     45 H           4.7670   -3.3415   -2.2208 H       1  UNL1        0.0860
     46 H           6.8971   -0.6574    1.0126 H       1  UNL1        0.0638
@<TRIPOS>BOND
     1     1     2    3
     2     2     3    1
     3     3     4   ar
     4     4     5   ar
     5     5     6   ar
     6     6     7   ar
     7     7     8    1
     8     8     9    1
     9     9    10   ar
    10    10    11   ar
    11    11    12   ar
    12    12    13    1
    13    12    14   ar
    14    14    15    1
    15    15    16    1
    16    16    17    1
    17    15    18    1
    18    18    19    2
    19    19    20    1
    20    19    21    1
    21    21    22    1
    22    22    23    1
    23    23    24    1
    24    14    25   ar
    25     7    26   ar
    26    26    27   ar
    27    27    28   ar
    28    28    29    1
    29    28    30   ar
    30    30    31   ar
    31    31     3   ar
    32    30     6   ar
    33    25     9   ar
    34    24    15    1
    35    24    22    1
    36     4    32    1
    37     8    33    1
    38    10    34    1
    39    11    35    1
    40    16    36    1
    41    16    37    1
    42    20    38    1
    43    20    39    1
    44    22    40    1
    45    23    41    1
    46    23    42    1
    47    24    43    1
    48    25    44    1
    49    27    45    1
    50    31    46    1
