@<TRIPOS>MOLECULE
*****
 24 23 0 0 0
SMALL
GASTEIGER

@<TRIPOS>ATOM
      1 O           2.4374    0.1458    1.3366 O.3     1  UNL1       -0.3937
      2 C           1.6315   -0.9515    1.2459 C.3     1  UNL1        0.0569
      3 C           0.8416   -0.9876   -0.0050 C.3     1  UNL1        0.0227
      4 N          -0.0846   -0.1040   -0.4219 N.3     1  UNL1       -0.2881
      5 C          -0.0670    1.1815   -0.8403 C.3     1  UNL1        0.0227
      6 C           0.1109    2.3899   -0.0047 C.3     1  UNL1        0.0569
      7 O           1.2640    2.5250    0.6987 O.3     1  UNL1       -0.3937
      8 C          -1.2675   -0.8152   -0.9582 C.3     1  UNL1        0.0969
      9 C          -1.9728   -1.5312    0.1229 C.2     1  UNL1        0.3189
     10 O          -3.1030   -2.2224   -0.3573 O.3     1  UNL1       -0.4797
     11 O          -1.8407   -1.7003    1.3834 O.2     1  UNL1       -0.2496
     12 H           3.0922    0.1196    0.5807 H       1  UNL1        0.2095
     13 H           0.9678   -1.0765    2.1436 H       1  UNL1        0.0570
     14 H           2.3386   -1.8429    1.3166 H       1  UNL1        0.0570
     15 H           1.6014   -1.1165   -0.9028 H       1  UNL1        0.0449
     16 H           0.3875   -2.0784   -0.1075 H       1  UNL1        0.0449
     17 H          -1.0489    1.4098   -1.4522 H       1  UNL1        0.0449
     18 H           0.7493    1.3203   -1.6819 H       1  UNL1        0.0449
     19 H           0.0909    3.3058   -0.7002 H       1  UNL1        0.0570
     20 H          -0.8106    2.5780    0.6538 H       1  UNL1        0.0570
     21 H           1.5475    3.4469    0.8697 H       1  UNL1        0.2095
     22 H          -1.9608   -0.0641   -1.4320 H       1  UNL1        0.0541
     23 H          -1.0013   -1.5323   -1.7582 H       1  UNL1        0.0541
     24 H          -3.9031   -2.3996    0.2701 H       1  UNL1        0.2951
@<TRIPOS>BOND
     1     1     2    1
     2     2     3    1
     3     3     4    1
     4     4     5    1
     5     5     6    1
     6     6     7    1
     7     4     8    1
     8     8     9    1
     9     9    10    1
    10     9    11    2
    11     1    12    1
    12     2    13    1
    13     2    14    1
    14     3    15    1
    15     3    16    1
    16     5    17    1
    17     5    18    1
    18     6    19    1
    19     6    20    1
    20     7    21    1
    21     8    22    1
    22     8    23    1
    23    10    24    1
