@<TRIPOS>MOLECULE
*****
 62 65 0 0 0
SMALL
GASTEIGER

@<TRIPOS>ATOM
      1 C           7.7375    1.4395   -0.5468 C.3     1  UNL1       -0.0253
      2 C           7.7071    0.0189   -0.0260 C.3     1  UNL1        0.1068
      3 C           7.9526    0.0614    1.4774 C.3     1  UNL1       -0.0253
      4 C           8.8088   -0.7912   -0.6581 C.3     1  UNL1       -0.0253
      5 O           6.4562   -0.5994   -0.3137 O.3     1  UNL1       -0.4447
      6 C           5.2823   -0.0575    0.1853 C.2     1  UNL1        0.4010
      7 O           5.3892    0.9930    0.8936 O.2     1  UNL1       -0.2265
      8 N           3.9966   -0.6132   -0.0558 N.am    1  UNL1       -0.2767
      9 C           2.8035   -0.0158    0.4834 C.3     1  UNL1        0.0435
     10 C           1.9932   -0.9637    1.3286 C.3     1  UNL1       -0.0170
     11 C           0.8584   -1.3455    0.4349 C.3     1  UNL1        0.0196
     12 N           0.5635   -0.1238   -0.2594 N.am    1  UNL1       -0.2656
     13 C          -0.7035    0.4394   -0.5753 C.2     1  UNL1        0.4032
     14 O          -0.7932    1.5162   -1.1878 O.2     1  UNL1       -0.2262
     15 O          -1.8701   -0.2108   -0.2009 O.3     1  UNL1       -0.4464
     16 C          -3.1259    0.3941   -0.5407 C.3     1  UNL1        0.1103
     17 C          -3.9436   -0.5577   -1.3495 C.3     1  UNL1       -0.0023
     18 C          -4.0882   -1.8923   -0.6487 C.3     1  UNL1       -0.0439
     19 C          -4.7152   -1.6925    0.7161 C.3     1  UNL1       -0.0394
     20 C          -3.8257   -0.7537    1.4862 C.3     1  UNL1       -0.0439
     21 C          -3.8480    0.5789    0.8002 C.3     1  UNL1       -0.0023
     22 C          -5.2197    1.1331    0.6039 C.3     1  UNL1       -0.0328
     23 C          -6.0174    0.1577   -0.2685 C.3     1  UNL1        0.0477
     24 C          -7.3732    0.7328   -0.4515 C.2     1  UNL1        0.2167
     25 N          -7.6142    1.9817   -1.0530 N.am    1  UNL1       -0.3289
     26 O          -8.3745    0.0796   -0.0516 O.2     1  UNL1       -0.2754
     27 C          -6.0990   -1.1325    0.5076 C.3     1  UNL1       -0.0362
     28 C          -5.3156    0.0010   -1.5858 C.3     1  UNL1       -0.0328
     29 C           1.8507    0.4622   -0.5975 C.3     1  UNL1        0.0364
     30 H           7.3329    1.4642   -1.5638 H       1  UNL1        0.0268
     31 H           7.2728    2.1601    0.1483 H       1  UNL1        0.0268
     32 H           8.8222    1.7373   -0.6230 H       1  UNL1        0.0268
     33 H           7.5695   -0.8705    1.9414 H       1  UNL1        0.0268
     34 H           9.0528    0.1724    1.6046 H       1  UNL1        0.0268
     35 H           7.4833    0.9607    1.9316 H       1  UNL1        0.0268
     36 H           8.9253   -0.4839   -1.7103 H       1  UNL1        0.0268
     37 H           8.5503   -1.8542   -0.5438 H       1  UNL1        0.0268
     38 H           9.7781   -0.5635   -0.1592 H       1  UNL1        0.0268
     39 H           3.9429   -1.4753   -0.6407 H       1  UNL1        0.1523
     40 H           3.0861    0.8929    1.0755 H       1  UNL1        0.0515
     41 H           1.6076   -0.4258    2.2217 H       1  UNL1        0.0299
     42 H           2.5883   -1.8386    1.6631 H       1  UNL1        0.0299
     43 H           0.0003   -1.7923    0.9492 H       1  UNL1        0.0466
     44 H           1.2267   -2.0835   -0.3161 H       1  UNL1        0.0466
     45 H          -3.0013    1.3364   -1.0774 H       1  UNL1        0.0740
     46 H          -3.4295   -0.7330   -2.3084 H       1  UNL1        0.0337
     47 H          -3.0386   -2.2545   -0.4667 H       1  UNL1        0.0272
     48 H          -4.6634   -2.5824   -1.2808 H       1  UNL1        0.0272
     49 H          -4.7630   -2.6551    1.2443 H       1  UNL1        0.0301
     50 H          -4.0344   -0.7146    2.5545 H       1  UNL1        0.0272
     51 H          -2.7750   -1.1519    1.3717 H       1  UNL1        0.0272
     52 H          -3.2642    1.3093    1.4279 H       1  UNL1        0.0337
     53 H          -5.1301    2.0832    0.0457 H       1  UNL1        0.0279
     54 H          -5.6923    1.2638    1.5768 H       1  UNL1        0.0279
     55 H          -6.9901    2.7809   -0.8079 H       1  UNL1        0.1449
     56 H          -8.3998    2.1038   -1.7286 H       1  UNL1        0.1449
     57 H          -6.6992   -1.8979   -0.0172 H       1  UNL1        0.0278
     58 H          -6.5931   -0.9056    1.4700 H       1  UNL1        0.0278
     59 H          -5.2666    0.9930   -2.0636 H       1  UNL1        0.0279
     60 H          -5.8860   -0.7209   -2.2119 H       1  UNL1        0.0279
     61 H           1.7944    1.5661   -0.6521 H       1  UNL1        0.0484
     62 H           2.1207    0.0339   -1.6012 H       1  UNL1        0.0484
@<TRIPOS>BOND
     1     1     2    1
     2     2     3    1
     3     2     4    1
     4     2     5    1
     5     5     6    1
     6     6     7    2
     7     6     8   am
     8     8     9    1
     9     9    10    1
    10    10    11    1
    11    11    12    1
    12    12    13   am
    13    13    14    2
    14    13    15    1
    15    15    16    1
    16    16    17    1
    17    17    18    1
    18    18    19    1
    19    19    20    1
    20    20    21    1
    21    21    22    1
    22    22    23    1
    23    23    24    1
    24    24    25   am
    25    24    26    2
    26    23    27    1
    27    23    28    1
    28    12    29    1
    29    29     9    1
    30    21    16    1
    31    28    17    1
    32    27    19    1
    33     1    30    1
    34     1    31    1
    35     1    32    1
    36     3    33    1
    37     3    34    1
    38     3    35    1
    39     4    36    1
    40     4    37    1
    41     4    38    1
    42     8    39    1
    43     9    40    1
    44    10    41    1
    45    10    42    1
    46    11    43    1
    47    11    44    1
    48    16    45    1
    49    17    46    1
    50    18    47    1
    51    18    48    1
    52    19    49    1
    53    20    50    1
    54    20    51    1
    55    21    52    1
    56    22    53    1
    57    22    54    1
    58    25    55    1
    59    25    56    1
    60    27    57    1
    61    27    58    1
    62    28    59    1
    63    28    60    1
    64    29    61    1
    65    29    62    1
