@<TRIPOS>MOLECULE
*****
 44 44 0 0 0
SMALL
GASTEIGER

@<TRIPOS>ATOM
      1 O          -8.5998   -1.5261    0.7454 O.3     1  UNL1       -0.2949
      2 N          -7.3234   -1.0921    0.6167 N.am    1  UNL1       -0.1940
      3 C          -6.9529   -0.0597   -0.2882 C.2     1  UNL1        0.2593
      4 O          -7.9122    0.4101   -0.9534 O.2     1  UNL1       -0.2687
      5 C          -5.5987    0.4403   -0.4627 C.2     1  UNL1        0.0024
      6 C          -4.5715   -0.0279    0.2162 C.2     1  UNL1       -0.0541
      7 C          -3.2033    0.4496    0.0664 C.2     1  UNL1       -0.0535
      8 C          -2.7263    1.5173   -0.8480 C.3     1  UNL1       -0.0400
      9 C          -2.1940   -0.0648    0.7854 C.2     1  UNL1       -0.0708
     10 C          -0.7835    0.3621    0.6935 C.3     1  UNL1        0.0379
     11 C          -0.3525    0.8462    2.0474 C.3     1  UNL1       -0.0518
     12 C           0.1120   -0.7512    0.2895 C.2     1  UNL1        0.1697
     13 O          -0.3015   -1.9186    0.0708 O.2     1  UNL1       -0.2914
     14 C           1.5434   -0.5423    0.1229 C.ar    1  UNL1        0.0181
     15 C           2.3379   -1.6110   -0.2494 C.ar    1  UNL1       -0.0495
     16 C           3.7218   -1.5220   -0.4385 C.ar    1  UNL1       -0.0400
     17 C           4.3397   -0.3051   -0.2458 C.ar    1  UNL1        0.0292
     18 N           5.7436   -0.1712   -0.4274 N.pl3   1  UNL1       -0.3360
     19 C           6.5015   -1.3261   -0.8144 C.3     1  UNL1        0.0004
     20 C           6.3900    1.1024   -0.2255 C.3     1  UNL1        0.0004
     21 C           3.5647    0.7945    0.1308 C.ar    1  UNL1       -0.0400
     22 C           2.2102    0.6505    0.3025 C.ar    1  UNL1       -0.0495
     23 H          -9.2604   -0.8412    0.4154 H       1  UNL1        0.2414
     24 H          -6.6041   -1.5353    1.2026 H       1  UNL1        0.1825
     25 H          -5.4333    1.2161   -1.1682 H       1  UNL1        0.0670
     26 H          -4.7260   -0.8171    0.9369 H       1  UNL1        0.0622
     27 H          -3.5671    1.9646   -1.4120 H       1  UNL1        0.0277
     28 H          -2.0183    1.1064   -1.6178 H       1  UNL1        0.0277
     29 H          -2.2630    2.3606   -0.2851 H       1  UNL1        0.0277
     30 H          -2.3812   -0.8608    1.5052 H       1  UNL1        0.0582
     31 H          -0.6358    1.1457   -0.0985 H       1  UNL1        0.0421
     32 H          -0.2188    1.9523    2.0632 H       1  UNL1        0.0239
     33 H           0.5578    0.3324    2.3895 H       1  UNL1        0.0239
     34 H          -1.1368    0.6409    2.8168 H       1  UNL1        0.0239
     35 H           1.9500   -2.6244   -0.4291 H       1  UNL1        0.0625
     36 H           4.3198   -2.3656   -0.7280 H       1  UNL1        0.0636
     37 H           7.5914   -1.1081   -0.7677 H       1  UNL1        0.0428
     38 H           6.3146   -2.1443   -0.0921 H       1  UNL1        0.0428
     39 H           6.2225   -1.6954   -1.8206 H       1  UNL1        0.0428
     40 H           6.4439    1.3320    0.8555 H       1  UNL1        0.0428
     41 H           5.8281    1.9436   -0.7085 H       1  UNL1        0.0428
     42 H           7.4055    1.0758   -0.7036 H       1  UNL1        0.0428
     43 H           4.0447    1.7594    0.2851 H       1  UNL1        0.0636
     44 H           1.6213    1.5077    0.5927 H       1  UNL1        0.0625
@<TRIPOS>BOND
     1     1     2    1
     2     2     3   am
     3     3     4    2
     4     3     5    1
     5     5     6    2
     6     6     7    1
     7     7     8    1
     8     7     9    2
     9     9    10    1
    10    10    11    1
    11    10    12    1
    12    12    13    2
    13    12    14    1
    14    14    15   ar
    15    15    16   ar
    16    16    17   ar
    17    17    18    1
    18    18    19    1
    19    18    20    1
    20    17    21   ar
    21    21    22   ar
    22    22    14   ar
    23     1    23    1
    24     2    24    1
    25     5    25    1
    26     6    26    1
    27     8    27    1
    28     8    28    1
    29     8    29    1
    30     9    30    1
    31    10    31    1
    32    11    32    1
    33    11    33    1
    34    11    34    1
    35    15    35    1
    36    16    36    1
    37    19    37    1
    38    19    38    1
    39    19    39    1
    40    20    40    1
    41    20    41    1
    42    20    42    1
    43    21    43    1
    44    22    44    1
