@<TRIPOS>MOLECULE
*****
 37 38 0 0 0
SMALL
GASTEIGER

@<TRIPOS>ATOM
      1 C          -3.2171    2.2313    0.0582 C.3     1  UNL1       -0.0127
      2 N          -3.6153    0.9723   -0.5097 N.3     1  UNL1       -0.3041
      3 C          -4.9898    0.6524   -0.1714 C.3     1  UNL1       -0.0127
      4 C          -2.7866   -0.0899   -0.0517 C.3     1  UNL1        0.0254
      5 C          -1.3696   -0.0129   -0.4143 C.ar    1  UNL1       -0.0084
      6 C          -0.6441    0.8450   -1.1967 C.ar    1  UNL1        0.0071
      7 N           0.6346    0.4649   -1.2042 N.ar    1  UNL1       -0.3601
      8 C           0.7353   -0.6275   -0.4339 C.ar    1  UNL1        0.0500
      9 C          -0.4900   -0.9791    0.0913 C.ar    1  UNL1        0.0043
     10 C          -0.6196   -2.0905    0.9110 C.ar    1  UNL1       -0.0523
     11 C           0.5103   -2.8293    1.1831 C.ar    1  UNL1       -0.0608
     12 C           1.6983   -2.4310    0.6337 C.ar    1  UNL1       -0.0566
     13 C           1.8908   -1.3177   -0.2005 C.ar    1  UNL1       -0.0234
     14 C           3.2830   -1.1326   -0.5939 C.3     1  UNL1       -0.0237
     15 C           4.0890   -0.1762    0.2055 C.3     1  UNL1       -0.0257
     16 C           3.6746    1.2495    0.1994 C.3     1  UNL1        0.0445
     17 O           3.7935    1.7239   -1.1193 O.3     1  UNL1       -0.3950
     18 H          -3.8082    2.3693    1.0112 H       1  UNL1        0.0391
     19 H          -3.4847    3.0780   -0.6079 H       1  UNL1        0.0391
     20 H          -2.1549    2.1823    0.3329 H       1  UNL1        0.0391
     21 H          -5.6773    0.8544   -1.0427 H       1  UNL1        0.0391
     22 H          -5.0768   -0.4587   -0.0095 H       1  UNL1        0.0391
     23 H          -5.3425    1.1540    0.7604 H       1  UNL1        0.0391
     24 H          -2.8997   -0.2378    1.0607 H       1  UNL1        0.0476
     25 H          -3.1868   -1.0471   -0.4977 H       1  UNL1        0.0476
     26 H          -1.0625    1.6894   -1.7197 H       1  UNL1        0.0810
     27 H           1.3647    0.9627   -1.7382 H       1  UNL1        0.1654
     28 H          -1.5901   -2.3401    1.3070 H       1  UNL1        0.0624
     29 H           0.3748   -3.6843    1.8197 H       1  UNL1        0.0618
     30 H           2.5129   -3.1052    0.9293 H       1  UNL1        0.0621
     31 H           3.3408   -0.8404   -1.6913 H       1  UNL1        0.0315
     32 H           3.8415   -2.1045   -0.5843 H       1  UNL1        0.0315
     33 H           4.2160   -0.5703    1.2493 H       1  UNL1        0.0290
     34 H           5.1365   -0.2143   -0.2264 H       1  UNL1        0.0290
     35 H           4.3707    1.8109    0.8288 H       1  UNL1        0.0557
     36 H           2.6146    1.3661    0.5560 H       1  UNL1        0.0557
     37 H           3.9338    2.6832   -1.1644 H       1  UNL1        0.2094
@<TRIPOS>BOND
     1     1     2    1
     2     2     3    1
     3     2     4    1
     4     4     5    1
     5     5     6   ar
     6     6     7   ar
     7     7     8   ar
     8     8     9   ar
     9     9    10   ar
    10    10    11   ar
    11    11    12   ar
    12    12    13   ar
    13    13    14    1
    14    14    15    1
    15    15    16    1
    16    16    17    1
    17     9     5   ar
    18    13     8   ar
    19     1    18    1
    20     1    19    1
    21     1    20    1
    22     3    21    1
    23     3    22    1
    24     3    23    1
    25     4    24    1
    26     4    25    1
    27     6    26    1
    28     7    27    1
    29    10    28    1
    30    11    29    1
    31    12    30    1
    32    14    31    1
    33    14    32    1
    34    15    33    1
    35    15    34    1
    36    16    35    1
    37    16    36    1
    38    17    37    1
