
     RDKit          3D

 52 56  0  0  0  0  0  0  0  0999 V2000
   -0.5722    1.6708   -2.8529 C   0  0  0  0  0  0  0  0  0  0  0  0
    0.3094    1.3395   -1.8006 O   0  0  0  0  0  0  0  0  0  0  0  0
   -0.1569    0.6842   -0.6520 C   0  0  0  0  0  0  0  0  0  0  0  0
   -1.5138    0.3648   -0.5713 C   0  0  0  0  0  0  0  0  0  0  0  0
   -2.0529   -0.2777    0.5203 C   0  0  0  0  0  0  0  0  0  0  0  0
   -3.3909   -0.5995    0.6234 C   0  0  0  0  0  0  0  0  0  0  0  0
   -4.3024   -0.3119   -0.4131 N   0  0  0  0  0  0  0  0  0  0  0  0
   -5.7032   -0.5112   -0.3237 C   0  0  0  0  0  0  0  0  0  0  0  0
   -6.4089   -0.7475   -1.5181 C   0  0  0  0  0  0  0  0  0  0  0  0
   -7.7680   -0.9299   -1.5210 C   0  0  0  0  0  0  0  0  0  0  0  0
   -8.4386   -0.8773   -0.3199 C   0  0  0  0  0  0  0  0  0  0  0  0
  -10.1789   -1.1115   -0.3249 Cl  0  0  0  0  0  0  0  0  0  0  0  0
   -7.7417   -0.6455    0.8446 C   0  0  0  0  0  0  0  0  0  0  0  0
   -8.6019   -0.5803    2.3666 Cl  0  0  0  0  0  0  0  0  0  0  0  0
   -6.3736   -0.4596    0.8651 C   0  0  0  0  0  0  0  0  0  0  0  0
   -3.8156   -1.2183    1.7232 N   0  0  0  0  0  0  0  0  0  0  0  0
   -2.9930   -1.5414    2.7355 C   0  0  0  0  0  0  0  0  0  0  0  0
   -1.7068   -1.2278    2.6274 N   0  0  0  0  0  0  0  0  0  0  0  0
   -1.1731   -0.6020    1.5596 C   0  0  0  0  0  0  0  0  0  0  0  0
    0.1646   -0.2892    1.4840 C   0  0  0  0  0  0  0  0  0  0  0  0
    0.6776    0.3558    0.3765 C   0  0  0  0  0  0  0  0  0  0  0  0
    2.0290    0.6813    0.2821 O   0  0  0  0  0  0  0  0  0  0  0  0
    2.8683    0.3348    1.3517 C   0  0  0  0  0  0  0  0  0  0  0  0
    4.2694    0.7776    1.0505 C   0  0  0  0  0  0  0  0  0  0  0  0
    4.8043    1.9049    1.6563 C   0  0  0  0  0  0  0  0  0  0  0  0
    6.0989    2.3250    1.3819 C   0  0  0  0  0  0  0  0  0  0  0  0
    6.7917    3.7490    2.1395 Cl  0  0  0  0  0  0  0  0  0  0  0  0
    6.8785    1.6162    0.4914 C   0  0  0  0  0  0  0  0  0  0  0  0
    6.3837    0.4915   -0.1308 C   0  0  0  0  0  0  0  0  0  0  0  0
    5.0768    0.1000    0.1709 C   0  0  0  0  0  0  0  0  0  0  0  0
    4.6339   -1.0234   -0.4740 O   0  0  0  0  0  0  0  0  0  0  0  0
    5.5180   -1.9553   -1.0381 C   0  0  0  0  0  0  0  0  0  0  0  0
    6.8464   -1.6433   -0.9639 O   0  0  0  0  0  0  0  0  0  0  0  0
    7.1791   -0.3213   -1.1045 C   0  0  0  0  0  0  0  0  0  0  0  0
   -0.0079    2.3551   -3.5499 H   0  0  0  0  0  0  0  0  0  0  0  0
   -0.8103    0.7420   -3.4384 H   0  0  0  0  0  0  0  0  0  0  0  0
   -1.4794    2.1808   -2.5261 H   0  0  0  0  0  0  0  0  0  0  0  0
   -2.1569    0.6335   -1.3919 H   0  0  0  0  0  0  0  0  0  0  0  0
   -3.9687    0.0778   -1.3348 H   0  0  0  0  0  0  0  0  0  0  0  0
   -5.8955   -0.7930   -2.4746 H   0  0  0  0  0  0  0  0  0  0  0  0
   -8.2988   -1.1126   -2.4591 H   0  0  0  0  0  0  0  0  0  0  0  0
   -5.8830   -0.2725    1.7922 H   0  0  0  0  0  0  0  0  0  0  0  0
   -3.3566   -2.0419    3.6167 H   0  0  0  0  0  0  0  0  0  0  0  0
    0.8046   -0.5602    2.3109 H   0  0  0  0  0  0  0  0  0  0  0  0
    2.5153    0.9038    2.2395 H   0  0  0  0  0  0  0  0  0  0  0  0
    2.8344   -0.7301    1.6100 H   0  0  0  0  0  0  0  0  0  0  0  0
    4.2161    2.4672    2.3493 H   0  0  0  0  0  0  0  0  0  0  0  0
    7.9044    1.9272    0.2575 H   0  0  0  0  0  0  0  0  0  0  0  0
    5.2007   -2.2623   -2.0697 H   0  0  0  0  0  0  0  0  0  0  0  0
    5.3858   -2.9005   -0.4306 H   0  0  0  0  0  0  0  0  0  0  0  0
    7.1012    0.0880   -2.1118 H   0  0  0  0  0  0  0  0  0  0  0  0
    8.2573   -0.2238   -0.7941 H   0  0  0  0  0  0  0  0  0  0  0  0
  1  2  1  0
  2  3  1  0
  3  4  2  0
  4  5  1  0
  5  6  2  0
  6  7  1  0
  7  8  1  0
  8  9  2  0
  9 10  1  0
 10 11  2  0
 11 12  1  0
 11 13  1  0
 13 14  1  0
 13 15  2  0
  6 16  1  0
 16 17  2  0
 17 18  1  0
 18 19  2  0
 19 20  1  0
 20 21  2  0
 21 22  1  0
 22 23  1  0
 23 24  1  0
 24 25  2  0
 25 26  1  0
 26 27  1  0
 26 28  2  0
 28 29  1  0
 29 30  2  0
 30 31  1  0
 31 32  1  0
 32 33  1  0
 33 34  1  0
 21  3  1  0
 30 24  1  0
 19  5  1  0
 34 29  1  0
 15  8  1  0
  1 35  1  0
  1 36  1  0
  1 37  1  0
  4 38  1  0
  7 39  1  0
  9 40  1  0
 10 41  1  0
 15 42  1  0
 17 43  1  0
 20 44  1  0
 23 45  1  0
 23 46  1  0
 25 47  1  0
 28 48  1  0
 32 49  1  0
 32 50  1  0
 34 51  1  0
 34 52  1  0
M  END
$$$$
