@<TRIPOS>MOLECULE
*****
 52 56 0 0 0
SMALL
GASTEIGER

@<TRIPOS>ATOM
      1 C          -0.5722    1.6708   -2.8529 C.3     1  UNL1        0.0790
      2 O           0.3094    1.3395   -1.8006 O.3     1  UNL1       -0.4914
      3 C          -0.1569    0.6842   -0.6520 C.ar    1  UNL1        0.1623
      4 C          -1.5138    0.3648   -0.5713 C.ar    1  UNL1       -0.0038
      5 C          -2.0529   -0.2777    0.5203 C.ar    1  UNL1        0.0441
      6 C          -3.3909   -0.5995    0.6234 C.ar    1  UNL1        0.1340
      7 N          -4.3024   -0.3119   -0.4131 N.pl3   1  UNL1       -0.2988
      8 C          -5.7032   -0.5112   -0.3237 C.ar    1  UNL1        0.0339
      9 C          -6.4089   -0.7475   -1.5181 C.ar    1  UNL1       -0.0390
     10 C          -7.7680   -0.9299   -1.5210 C.ar    1  UNL1       -0.0402
     11 C          -8.4386   -0.8773   -0.3199 C.ar    1  UNL1        0.0594
     12 CL        -10.1789   -1.1115   -0.3249 Cl      1  UNL1       -0.0820
     13 C          -7.7417   -0.6455    0.8446 C.ar    1  UNL1        0.0610
     14 CL         -8.6019   -0.5803    2.3666 Cl      1  UNL1       -0.0820
     15 C          -6.3736   -0.4596    0.8651 C.ar    1  UNL1       -0.0207
     16 N          -3.8156   -1.2183    1.7232 N.ar    1  UNL1       -0.2200
     17 C          -2.9930   -1.5414    2.7355 C.ar    1  UNL1        0.1187
     18 N          -1.7068   -1.2278    2.6274 N.ar    1  UNL1       -0.2352
     19 C          -1.1731   -0.6020    1.5596 C.ar    1  UNL1        0.0797
     20 C           0.1646   -0.2892    1.4840 C.ar    1  UNL1        0.0099
     21 C           0.6776    0.3558    0.3765 C.ar    1  UNL1        0.1644
     22 O           2.0290    0.6813    0.2821 O.3     1  UNL1       -0.4835
     23 C           2.8683    0.3348    1.3517 C.3     1  UNL1        0.1182
     24 C           4.2694    0.7776    1.0505 C.ar    1  UNL1        0.0331
     25 C           4.8043    1.9049    1.6563 C.ar    1  UNL1       -0.0335
     26 C           6.0989    2.3250    1.3819 C.ar    1  UNL1        0.0419
     27 CL          6.7917    3.7490    2.1395 Cl      1  UNL1       -0.0835
     28 C           6.8785    1.6162    0.4914 C.ar    1  UNL1       -0.0345
     29 C           6.3837    0.4915   -0.1308 C.ar    1  UNL1        0.0217
     30 C           5.0768    0.1000    0.1709 C.ar    1  UNL1        0.1354
     31 O           4.6339   -1.0234   -0.4740 O.3     1  UNL1       -0.4654
     32 C           5.5180   -1.9553   -1.0381 C.3     1  UNL1        0.1911
     33 O           6.8464   -1.6433   -0.9639 O.3     1  UNL1       -0.3392
     34 C           7.1791   -0.3213   -1.1045 C.3     1  UNL1        0.0799
     35 H          -0.0079    2.3551   -3.5499 H       1  UNL1        0.0660
     36 H          -0.8103    0.7420   -3.4384 H       1  UNL1        0.0660
     37 H          -1.4794    2.1808   -2.5261 H       1  UNL1        0.0660
     38 H          -2.1569    0.6335   -1.3919 H       1  UNL1        0.0663
     39 H          -3.9687    0.0778   -1.3348 H       1  UNL1        0.1536
     40 H          -5.8955   -0.7930   -2.4746 H       1  UNL1        0.0636
     41 H          -8.2988   -1.1126   -2.4591 H       1  UNL1        0.0633
     42 H          -5.8830   -0.2725    1.7922 H       1  UNL1        0.0651
     43 H          -3.3566   -2.0419    3.6167 H       1  UNL1        0.1048
     44 H           0.8046   -0.5602    2.3109 H       1  UNL1        0.0677
     45 H           2.5153    0.9038    2.2395 H       1  UNL1        0.0749
     46 H           2.8344   -0.7301    1.6100 H       1  UNL1        0.0749
     47 H           4.2161    2.4672    2.3493 H       1  UNL1        0.0637
     48 H           7.9044    1.9272    0.2575 H       1  UNL1        0.0637
     49 H           5.2007   -2.2623   -2.0697 H       1  UNL1        0.1017
     50 H           5.3858   -2.9005   -0.4306 H       1  UNL1        0.1017
     51 H           7.1012    0.0880   -2.1118 H       1  UNL1        0.0612
     52 H           8.2573   -0.2238   -0.7941 H       1  UNL1        0.0612
@<TRIPOS>BOND
     1     1     2    1
     2     2     3    1
     3     3     4   ar
     4     4     5   ar
     5     5     6   ar
     6     6     7    1
     7     7     8    1
     8     8     9   ar
     9     9    10   ar
    10    10    11   ar
    11    11    12    1
    12    11    13   ar
    13    13    14    1
    14    13    15   ar
    15     6    16   ar
    16    16    17   ar
    17    17    18   ar
    18    18    19   ar
    19    19    20   ar
    20    20    21   ar
    21    21    22    1
    22    22    23    1
    23    23    24    1
    24    24    25   ar
    25    25    26   ar
    26    26    27    1
    27    26    28   ar
    28    28    29   ar
    29    29    30   ar
    30    30    31    1
    31    31    32    1
    32    32    33    1
    33    33    34    1
    34    21     3   ar
    35    30    24   ar
    36    19     5   ar
    37    34    29    1
    38    15     8   ar
    39     1    35    1
    40     1    36    1
    41     1    37    1
    42     4    38    1
    43     7    39    1
    44     9    40    1
    45    10    41    1
    46    15    42    1
    47    17    43    1
    48    20    44    1
    49    23    45    1
    50    23    46    1
    51    25    47    1
    52    28    48    1
    53    32    49    1
    54    32    50    1
    55    34    51    1
    56    34    52    1
