@<TRIPOS>MOLECULE
*****
 50 53 0 0 0
SMALL
GASTEIGER

@<TRIPOS>ATOM
      1 C           1.9616   -1.3966   -2.2310 C.3     1  UNL1        0.0093
      2 N           1.8854   -0.0979   -1.6780 N.3     1  UNL1       -0.1762
      3 C           0.7669    0.1951   -0.8363 C.3     1  UNL1        0.0372
      4 C           0.2448   -1.1532   -0.3099 C.3     1  UNL1       -0.0313
      5 C          -0.7421   -0.9434    0.7910 C.3     1  UNL1       -0.0242
      6 C          -1.8486   -0.0726    0.2448 C.ar    1  UNL1       -0.0219
      7 C          -3.1642    0.0771    0.6433 C.ar    1  UNL1       -0.0081
      8 C          -3.7801   -0.6450    1.7686 C.3     1  UNL1        0.0721
      9 C          -3.3413   -0.0580    3.0599 C.2     1  UNL1        0.3091
     10 O          -2.5400    0.9347    3.0808 O.2     1  UNL1       -0.2507
     11 O          -3.8062   -0.5938    4.2288 O.3     1  UNL1       -0.4804
     12 C          -3.7264    1.0000   -0.2027 C.ar    1  UNL1        0.0503
     13 C          -5.0164    1.5446   -0.2834 C.ar    1  UNL1       -0.0375
     14 C          -5.3656    2.4751   -1.2325 C.ar    1  UNL1       -0.0584
     15 C          -4.3950    2.8689   -2.1233 C.ar    1  UNL1       -0.0451
     16 C          -3.1372    2.3253   -2.0295 C.ar    1  UNL1        0.0100
     17 N          -2.8109    1.4137   -1.0929 N.ar    1  UNL1       -0.3195
     18 C          -1.6336    0.7491   -0.8215 C.ar    1  UNL1        0.0287
     19 C          -0.3489    0.8965   -1.5616 C.3     1  UNL1        0.0056
     20 S           3.3707    0.5608   -1.2352 S.O2    1  UNL1        0.0609
     21 O           4.2709    0.5635   -2.4639 O.2     1  UNL1       -0.1528
     22 O           3.2437    2.0243   -0.8406 O.2     1  UNL1       -0.1528
     23 C           4.2215   -0.3371   -0.0058 C.ar    1  UNL1        0.1056
     24 C           4.0241   -0.0752    1.3288 C.ar    1  UNL1       -0.0326
     25 C           4.6750   -0.7562    2.3358 C.ar    1  UNL1       -0.0246
     26 C           5.5839   -1.7657    2.0045 C.ar    1  UNL1        0.1235
     27 F           6.2202   -2.4304    2.9987 F       1  UNL1       -0.2055
     28 C           5.7901   -2.0373    0.6692 C.ar    1  UNL1       -0.0246
     29 C           5.1286   -1.3443   -0.3237 C.ar    1  UNL1       -0.0326
     30 H           2.7089   -1.3615   -3.0649 H       1  UNL1        0.0408
     31 H           0.9981   -1.6602   -2.7385 H       1  UNL1        0.0408
     32 H           2.2913   -2.1914   -1.5508 H       1  UNL1        0.0408
     33 H           1.0405    0.8489    0.0301 H       1  UNL1        0.0483
     34 H          -0.2786   -1.6309   -1.1602 H       1  UNL1        0.0284
     35 H           1.1284   -1.7408    0.0398 H       1  UNL1        0.0284
     36 H          -0.2640   -0.4478    1.6646 H       1  UNL1        0.0314
     37 H          -1.2092   -1.9103    1.0320 H       1  UNL1        0.0314
     38 H          -4.9040   -0.5571    1.7354 H       1  UNL1        0.0427
     39 H          -3.5080   -1.7366    1.7269 H       1  UNL1        0.0427
     40 H          -3.5832   -0.2393    5.1436 H       1  UNL1        0.2951
     41 H          -5.7522    1.2113    0.4335 H       1  UNL1        0.0638
     42 H          -6.3502    2.9089   -1.3156 H       1  UNL1        0.0619
     43 H          -4.6627    3.6074   -2.8806 H       1  UNL1        0.0632
     44 H          -2.3922    2.6558   -2.7470 H       1  UNL1        0.0813
     45 H          -0.4813    0.5175   -2.6018 H       1  UNL1        0.0343
     46 H          -0.1140    2.0004   -1.6025 H       1  UNL1        0.0343
     47 H           3.3097    0.7171    1.5623 H       1  UNL1        0.0638
     48 H           4.5216   -0.5527    3.3719 H       1  UNL1        0.0647
     49 H           6.4933   -2.8181    0.4129 H       1  UNL1        0.0647
     50 H           5.2768   -1.5422   -1.3736 H       1  UNL1        0.0638
@<TRIPOS>BOND
     1     1     2    1
     2     2     3    1
     3     3     4    1
     4     4     5    1
     5     5     6    1
     6     6     7   ar
     7     7     8    1
     8     8     9    1
     9     9    10    2
    10     9    11    1
    11     7    12   ar
    12    12    13   ar
    13    13    14   ar
    14    14    15   ar
    15    15    16   ar
    16    16    17   ar
    17    17    18   ar
    18    18    19    1
    19     2    20    1
    20    20    21    2
    21    20    22    2
    22    20    23    1
    23    23    24   ar
    24    24    25   ar
    25    25    26   ar
    26    26    27    1
    27    26    28   ar
    28    28    29   ar
    29    19     3    1
    30    29    23   ar
    31    18     6   ar
    32    17    12   ar
    33     1    30    1
    34     1    31    1
    35     1    32    1
    36     3    33    1
    37     4    34    1
    38     4    35    1
    39     5    36    1
    40     5    37    1
    41     8    38    1
    42     8    39    1
    43    11    40    1
    44    13    41    1
    45    14    42    1
    46    15    43    1
    47    16    44    1
    48    19    45    1
    49    19    46    1
    50    24    47    1
    51    25    48    1
    52    28    49    1
    53    29    50    1
