
     RDKit          3D

 50 53  0  0  0  0  0  0  0  0999 V2000
    1.9616   -1.3966   -2.2310 C   0  0  0  0  0  0  0  0  0  0  0  0
    1.8854   -0.0979   -1.6780 N   0  0  0  0  0  0  0  0  0  0  0  0
    0.7669    0.1951   -0.8363 C   0  0  2  0  0  0  0  0  0  0  0  0
    0.2448   -1.1532   -0.3099 C   0  0  0  0  0  0  0  0  0  0  0  0
   -0.7421   -0.9434    0.7910 C   0  0  0  0  0  0  0  0  0  0  0  0
   -1.8486   -0.0726    0.2448 C   0  0  0  0  0  0  0  0  0  0  0  0
   -3.1642    0.0771    0.6433 C   0  0  0  0  0  0  0  0  0  0  0  0
   -3.7801   -0.6450    1.7686 C   0  0  0  0  0  0  0  0  0  0  0  0
   -3.3413   -0.0580    3.0599 C   0  0  0  0  0  0  0  0  0  0  0  0
   -2.5400    0.9347    3.0808 O   0  0  0  0  0  0  0  0  0  0  0  0
   -3.8062   -0.5938    4.2288 O   0  0  0  0  0  0  0  0  0  0  0  0
   -3.7264    1.0000   -0.2027 C   0  0  0  0  0  0  0  0  0  0  0  0
   -5.0164    1.5446   -0.2834 C   0  0  0  0  0  0  0  0  0  0  0  0
   -5.3656    2.4751   -1.2325 C   0  0  0  0  0  0  0  0  0  0  0  0
   -4.3950    2.8689   -2.1233 C   0  0  0  0  0  0  0  0  0  0  0  0
   -3.1372    2.3253   -2.0295 C   0  0  0  0  0  0  0  0  0  0  0  0
   -2.8109    1.4137   -1.0929 N   0  0  0  0  0  0  0  0  0  0  0  0
   -1.6336    0.7491   -0.8215 C   0  0  0  0  0  0  0  0  0  0  0  0
   -0.3489    0.8965   -1.5616 C   0  0  0  0  0  0  0  0  0  0  0  0
    3.3707    0.5608   -1.2352 S   0  0  0  0  0  6  0  0  0  0  0  0
    4.2709    0.5635   -2.4639 O   0  0  0  0  0  0  0  0  0  0  0  0
    3.2437    2.0243   -0.8406 O   0  0  0  0  0  0  0  0  0  0  0  0
    4.2215   -0.3371   -0.0058 C   0  0  0  0  0  0  0  0  0  0  0  0
    4.0241   -0.0752    1.3288 C   0  0  0  0  0  0  0  0  0  0  0  0
    4.6750   -0.7562    2.3358 C   0  0  0  0  0  0  0  0  0  0  0  0
    5.5839   -1.7657    2.0045 C   0  0  0  0  0  0  0  0  0  0  0  0
    6.2202   -2.4304    2.9987 F   0  0  0  0  0  0  0  0  0  0  0  0
    5.7901   -2.0373    0.6692 C   0  0  0  0  0  0  0  0  0  0  0  0
    5.1286   -1.3443   -0.3237 C   0  0  0  0  0  0  0  0  0  0  0  0
    2.7089   -1.3615   -3.0649 H   0  0  0  0  0  0  0  0  0  0  0  0
    0.9981   -1.6602   -2.7385 H   0  0  0  0  0  0  0  0  0  0  0  0
    2.2913   -2.1914   -1.5508 H   0  0  0  0  0  0  0  0  0  0  0  0
    1.0405    0.8489    0.0301 H   0  0  0  0  0  0  0  0  0  0  0  0
   -0.2786   -1.6309   -1.1602 H   0  0  0  0  0  0  0  0  0  0  0  0
    1.1284   -1.7408    0.0398 H   0  0  0  0  0  0  0  0  0  0  0  0
   -0.2640   -0.4478    1.6646 H   0  0  0  0  0  0  0  0  0  0  0  0
   -1.2092   -1.9103    1.0320 H   0  0  0  0  0  0  0  0  0  0  0  0
   -4.9040   -0.5571    1.7354 H   0  0  0  0  0  0  0  0  0  0  0  0
   -3.5080   -1.7366    1.7269 H   0  0  0  0  0  0  0  0  0  0  0  0
   -3.5832   -0.2393    5.1436 H   0  0  0  0  0  0  0  0  0  0  0  0
   -5.7522    1.2113    0.4335 H   0  0  0  0  0  0  0  0  0  0  0  0
   -6.3502    2.9089   -1.3156 H   0  0  0  0  0  0  0  0  0  0  0  0
   -4.6627    3.6074   -2.8806 H   0  0  0  0  0  0  0  0  0  0  0  0
   -2.3922    2.6558   -2.7470 H   0  0  0  0  0  0  0  0  0  0  0  0
   -0.4813    0.5175   -2.6018 H   0  0  0  0  0  0  0  0  0  0  0  0
   -0.1140    2.0004   -1.6025 H   0  0  0  0  0  0  0  0  0  0  0  0
    3.3097    0.7171    1.5623 H   0  0  0  0  0  0  0  0  0  0  0  0
    4.5216   -0.5527    3.3719 H   0  0  0  0  0  0  0  0  0  0  0  0
    6.4933   -2.8181    0.4129 H   0  0  0  0  0  0  0  0  0  0  0  0
    5.2768   -1.5422   -1.3736 H   0  0  0  0  0  0  0  0  0  0  0  0
  1  2  1  0
  2  3  1  0
  3  4  1  0
  4  5  1  0
  5  6  1  0
  6  7  1  0
  7  8  1  0
  8  9  1  0
  9 10  2  0
  9 11  1  0
  7 12  2  0
 12 13  1  0
 13 14  2  0
 14 15  1  0
 15 16  2  0
 16 17  1  0
 17 18  1  0
 18 19  1  0
  2 20  1  0
 20 21  2  0
 20 22  2  0
 20 23  1  0
 23 24  2  0
 24 25  1  0
 25 26  2  0
 26 27  1  0
 26 28  1  0
 28 29  2  0
 19  3  1  0
 29 23  1  0
 18  6  2  0
 17 12  1  0
  1 30  1  0
  1 31  1  0
  1 32  1  0
  3 33  1  1
  4 34  1  0
  4 35  1  0
  5 36  1  0
  5 37  1  0
  8 38  1  0
  8 39  1  0
 11 40  1  0
 13 41  1  0
 14 42  1  0
 15 43  1  0
 16 44  1  0
 19 45  1  0
 19 46  1  0
 24 47  1  0
 25 48  1  0
 28 49  1  0
 29 50  1  0
M  END
$$$$
