@<TRIPOS>MOLECULE
*****
 52 54 0 0 0
SMALL
GASTEIGER

@<TRIPOS>ATOM
      1 C          -1.0696   -1.9730   -2.6358 C.3     1  UNL1       -0.0464
      2 C          -1.3185   -1.4571   -1.2482 C.3     1  UNL1        0.0448
      3 C          -2.4428   -0.4063   -1.3927 C.3     1  UNL1        0.0292
      4 N          -2.8582    0.0266   -0.0836 N.pl3   1  UNL1       -0.3266
      5 C          -4.1791    0.2350    0.3644 C.ar    1  UNL1        0.0417
      6 C          -4.7217   -0.5846    1.3704 C.ar    1  UNL1       -0.0374
      7 C          -5.9932   -0.4299    1.8473 C.ar    1  UNL1       -0.0247
      8 C          -6.8095    0.5530    1.3525 C.ar    1  UNL1        0.1241
      9 F          -8.0926    0.7194    1.8245 F       1  UNL1       -0.2055
     10 C          -6.3079    1.3695    0.3691 C.ar    1  UNL1       -0.0130
     11 C          -5.0064    1.2150   -0.1225 C.ar    1  UNL1        0.0785
     12 C          -4.5131    2.1237   -1.1909 C.3     1  UNL1        0.4192
     13 F          -5.5501    3.0381   -1.4545 F       1  UNL1       -0.1658
     14 F          -3.4076    2.8367   -0.8493 F       1  UNL1       -0.1658
     15 F          -4.3780    1.4412   -2.4090 F       1  UNL1       -0.1658
     16 C          -1.7820    0.2737    0.8802 C.3     1  UNL1        0.0267
     17 C          -0.4388    0.2533    0.2254 C.3     1  UNL1        0.0366
     18 N          -0.1870   -0.8469   -0.6376 N.3     1  UNL1       -0.1703
     19 S           0.8794   -1.9615    0.1128 S.O2    1  UNL1        0.0674
     20 O           1.1752   -3.1446   -0.7636 O.2     1  UNL1       -0.1523
     21 O           0.3773   -2.4696    1.4107 O.2     1  UNL1       -0.1523
     22 C           2.4230   -1.1856    0.4463 C.ar    1  UNL1        0.1430
     23 C           3.0975   -0.9663    1.5903 C.ar    1  UNL1       -0.0277
     24 C           4.2915   -0.3279    1.5309 C.ar    1  UNL1       -0.0466
     25 C           4.7586    0.0621    0.3381 C.ar    1  UNL1        0.0314
     26 C           5.9553    0.7494   -0.1350 C.3     1  UNL1        0.1890
     27 C           7.0552   -0.2571   -0.4665 C.3     1  UNL1       -0.0227
     28 O           5.6643    1.4030   -1.3310 O.3     1  UNL1       -0.3754
     29 C           6.4304    1.7541    0.8459 C.3     1  UNL1        0.4226
     30 F           6.7388    1.1309    2.0357 F       1  UNL1       -0.1673
     31 F           5.5751    2.8150    1.0168 F       1  UNL1       -0.1673
     32 F           7.6367    2.3151    0.3994 F       1  UNL1       -0.1673
     33 S           3.4992   -0.4692   -0.7833 S.2     1  UNL1       -0.0703
     34 H          -0.5305   -1.2276   -3.2209 H       1  UNL1        0.0246
     35 H          -2.0752   -2.0863   -3.1200 H       1  UNL1        0.0246
     36 H          -0.6125   -2.9806   -2.6559 H       1  UNL1        0.0246
     37 H          -1.7713   -2.2557   -0.6197 H       1  UNL1        0.0493
     38 H          -3.2262   -0.9193   -1.9758 H       1  UNL1        0.0479
     39 H          -1.9593    0.4438   -1.9245 H       1  UNL1        0.0479
     40 H          -4.0419   -1.3649    1.7477 H       1  UNL1        0.0637
     41 H          -6.3480   -1.0873    2.6153 H       1  UNL1        0.0647
     42 H          -6.9414    2.1563   -0.0366 H       1  UNL1        0.0652
     43 H          -1.9031    1.2547    1.3768 H       1  UNL1        0.0477
     44 H          -1.8253   -0.5704    1.5973 H       1  UNL1        0.0477
     45 H          -0.2597    1.2029   -0.3391 H       1  UNL1        0.0459
     46 H           0.3216    0.2708    1.0543 H       1  UNL1        0.0459
     47 H           2.6564   -1.3169    2.5685 H       1  UNL1        0.0643
     48 H           4.9078   -0.1135    2.4525 H       1  UNL1        0.0627
     49 H           6.6902   -0.8324   -1.3449 H       1  UNL1        0.0264
     50 H           7.9894    0.2713   -0.7409 H       1  UNL1        0.0264
     51 H           7.2023   -0.9551    0.3672 H       1  UNL1        0.0264
     52 H           5.2253    2.2751   -1.1174 H       1  UNL1        0.2110
@<TRIPOS>BOND
     1     1     2    1
     2     2     3    1
     3     3     4    1
     4     4     5    1
     5     5     6   ar
     6     6     7   ar
     7     7     8   ar
     8     8     9    1
     9     8    10   ar
    10    10    11   ar
    11    11    12    1
    12    12    13    1
    13    12    14    1
    14    12    15    1
    15     4    16    1
    16    16    17    1
    17    17    18    1
    18    18    19    1
    19    19    20    2
    20    19    21    2
    21    19    22    1
    22    22    23   ar
    23    23    24   ar
    24    24    25   ar
    25    25    26    1
    26    26    27    1
    27    26    28    1
    28    26    29    1
    29    29    30    1
    30    29    31    1
    31    29    32    1
    32    25    33   ar
    33    18     2    1
    34    33    22   ar
    35    11     5   ar
    36     1    34    1
    37     1    35    1
    38     1    36    1
    39     2    37    1
    40     3    38    1
    41     3    39    1
    42     6    40    1
    43     7    41    1
    44    10    42    1
    45    16    43    1
    46    16    44    1
    47    17    45    1
    48    17    46    1
    49    23    47    1
    50    24    48    1
    51    27    49    1
    52    27    50    1
    53    27    51    1
    54    28    52    1
