
     RDKit          3D

 52 54  0  0  0  0  0  0  0  0999 V2000
   -1.0696   -1.9730   -2.6358 C   0  0  0  0  0  0  0  0  0  0  0  0
   -1.3185   -1.4571   -1.2482 C   0  0  2  0  0  0  0  0  0  0  0  0
   -2.4428   -0.4063   -1.3927 C   0  0  0  0  0  0  0  0  0  0  0  0
   -2.8582    0.0266   -0.0836 N   0  0  0  0  0  0  0  0  0  0  0  0
   -4.1791    0.2350    0.3644 C   0  0  0  0  0  0  0  0  0  0  0  0
   -4.7217   -0.5846    1.3704 C   0  0  0  0  0  0  0  0  0  0  0  0
   -5.9932   -0.4299    1.8473 C   0  0  0  0  0  0  0  0  0  0  0  0
   -6.8095    0.5530    1.3525 C   0  0  0  0  0  0  0  0  0  0  0  0
   -8.0926    0.7194    1.8245 F   0  0  0  0  0  0  0  0  0  0  0  0
   -6.3079    1.3695    0.3691 C   0  0  0  0  0  0  0  0  0  0  0  0
   -5.0064    1.2150   -0.1225 C   0  0  0  0  0  0  0  0  0  0  0  0
   -4.5131    2.1237   -1.1909 C   0  0  0  0  0  0  0  0  0  0  0  0
   -5.5501    3.0381   -1.4545 F   0  0  0  0  0  0  0  0  0  0  0  0
   -3.4076    2.8367   -0.8493 F   0  0  0  0  0  0  0  0  0  0  0  0
   -4.3780    1.4412   -2.4090 F   0  0  0  0  0  0  0  0  0  0  0  0
   -1.7820    0.2737    0.8802 C   0  0  0  0  0  0  0  0  0  0  0  0
   -0.4388    0.2533    0.2254 C   0  0  0  0  0  0  0  0  0  0  0  0
   -0.1870   -0.8469   -0.6376 N   0  0  0  0  0  0  0  0  0  0  0  0
    0.8794   -1.9615    0.1128 S   0  0  0  0  0  6  0  0  0  0  0  0
    1.1752   -3.1446   -0.7636 O   0  0  0  0  0  0  0  0  0  0  0  0
    0.3773   -2.4696    1.4107 O   0  0  0  0  0  0  0  0  0  0  0  0
    2.4230   -1.1856    0.4463 C   0  0  0  0  0  0  0  0  0  0  0  0
    3.0975   -0.9663    1.5903 C   0  0  0  0  0  0  0  0  0  0  0  0
    4.2915   -0.3279    1.5309 C   0  0  0  0  0  0  0  0  0  0  0  0
    4.7586    0.0621    0.3381 C   0  0  0  0  0  0  0  0  0  0  0  0
    5.9553    0.7494   -0.1350 C   0  0  1  0  0  0  0  0  0  0  0  0
    7.0552   -0.2571   -0.4665 C   0  0  0  0  0  0  0  0  0  0  0  0
    5.6643    1.4030   -1.3310 O   0  0  0  0  0  0  0  0  0  0  0  0
    6.4304    1.7541    0.8459 C   0  0  0  0  0  0  0  0  0  0  0  0
    6.7388    1.1309    2.0357 F   0  0  0  0  0  0  0  0  0  0  0  0
    5.5751    2.8150    1.0168 F   0  0  0  0  0  0  0  0  0  0  0  0
    7.6367    2.3151    0.3994 F   0  0  0  0  0  0  0  0  0  0  0  0
    3.4992   -0.4692   -0.7833 S   0  0  0  0  0  0  0  0  0  0  0  0
   -0.5305   -1.2276   -3.2209 H   0  0  0  0  0  0  0  0  0  0  0  0
   -2.0752   -2.0863   -3.1200 H   0  0  0  0  0  0  0  0  0  0  0  0
   -0.6125   -2.9806   -2.6559 H   0  0  0  0  0  0  0  0  0  0  0  0
   -1.7713   -2.2557   -0.6197 H   0  0  0  0  0  0  0  0  0  0  0  0
   -3.2262   -0.9193   -1.9758 H   0  0  0  0  0  0  0  0  0  0  0  0
   -1.9593    0.4438   -1.9245 H   0  0  0  0  0  0  0  0  0  0  0  0
   -4.0419   -1.3649    1.7477 H   0  0  0  0  0  0  0  0  0  0  0  0
   -6.3480   -1.0873    2.6153 H   0  0  0  0  0  0  0  0  0  0  0  0
   -6.9414    2.1563   -0.0366 H   0  0  0  0  0  0  0  0  0  0  0  0
   -1.9031    1.2547    1.3768 H   0  0  0  0  0  0  0  0  0  0  0  0
   -1.8253   -0.5704    1.5973 H   0  0  0  0  0  0  0  0  0  0  0  0
   -0.2597    1.2029   -0.3391 H   0  0  0  0  0  0  0  0  0  0  0  0
    0.3216    0.2708    1.0543 H   0  0  0  0  0  0  0  0  0  0  0  0
    2.6564   -1.3169    2.5685 H   0  0  0  0  0  0  0  0  0  0  0  0
    4.9078   -0.1135    2.4525 H   0  0  0  0  0  0  0  0  0  0  0  0
    6.6902   -0.8324   -1.3449 H   0  0  0  0  0  0  0  0  0  0  0  0
    7.9894    0.2713   -0.7409 H   0  0  0  0  0  0  0  0  0  0  0  0
    7.2023   -0.9551    0.3672 H   0  0  0  0  0  0  0  0  0  0  0  0
    5.2253    2.2751   -1.1174 H   0  0  0  0  0  0  0  0  0  0  0  0
  1  2  1  0
  2  3  1  0
  3  4  1  0
  4  5  1  0
  5  6  2  0
  6  7  1  0
  7  8  2  0
  8  9  1  0
  8 10  1  0
 10 11  2  0
 11 12  1  0
 12 13  1  0
 12 14  1  0
 12 15  1  0
  4 16  1  0
 16 17  1  0
 17 18  1  0
 18 19  1  0
 19 20  2  0
 19 21  2  0
 19 22  1  0
 22 23  2  0
 23 24  1  0
 24 25  2  0
 25 26  1  0
 26 27  1  0
 26 28  1  6
 26 29  1  0
 29 30  1  0
 29 31  1  0
 29 32  1  0
 25 33  1  0
 18  2  1  0
 33 22  1  0
 11  5  1  0
  1 34  1  0
  1 35  1  0
  1 36  1  0
  2 37  1  1
  3 38  1  0
  3 39  1  0
  6 40  1  0
  7 41  1  0
 10 42  1  0
 16 43  1  0
 16 44  1  0
 17 45  1  0
 17 46  1  0
 23 47  1  0
 24 48  1  0
 27 49  1  0
 27 50  1  0
 27 51  1  0
 28 52  1  0
M  END
$$$$
