@<TRIPOS>MOLECULE
*****
 50 53 0 0 0
SMALL
GASTEIGER

@<TRIPOS>ATOM
      1 C          -2.1209   -1.1657   -1.1536 C.3     1  UNL1        0.0093
      2 N          -1.8380    0.0333   -0.4337 N.3     1  UNL1       -0.1749
      3 C          -0.4586    0.2407   -0.1244 C.3     1  UNL1        0.0498
      4 C           0.0871    1.5074   -0.7335 C.3     1  UNL1       -0.0287
      5 C           1.2696    1.2778   -1.6491 C.3     1  UNL1       -0.0105
      6 C           2.2710    0.4842   -0.8989 C.ar    1  UNL1        0.0236
      7 C           3.6154    0.6224   -0.6180 C.ar    1  UNL1       -0.0083
      8 C           4.4717    1.7438   -1.0599 C.3     1  UNL1        0.0721
      9 C           4.1446    2.9141   -0.1872 C.2     1  UNL1        0.3091
     10 O           3.2881    2.8539    0.7253 O.2     1  UNL1       -0.2507
     11 O           4.8205    4.1071   -0.4042 O.3     1  UNL1       -0.4804
     12 C           3.9446   -0.4829    0.1369 C.ar    1  UNL1        0.0040
     13 C           5.1248   -0.8755    0.6930 C.ar    1  UNL1       -0.0496
     14 C           5.1715   -2.0558    1.4165 C.ar    1  UNL1       -0.0258
     15 C           4.0508   -2.8403    1.5856 C.ar    1  UNL1        0.1254
     16 F           4.1421   -3.9938    2.3048 F       1  UNL1       -0.2054
     17 C           2.8585   -2.4389    1.0210 C.ar    1  UNL1       -0.0023
     18 C           2.8204   -1.2752    0.3097 C.ar    1  UNL1        0.0523
     19 N           1.8112   -0.6532   -0.3383 N.ar    1  UNL1       -0.3419
     20 C           0.4070   -0.9490   -0.5416 C.3     1  UNL1        0.0408
     21 S          -2.7706   -0.0317    1.0173 S.O2    1  UNL1        0.0609
     22 O          -2.3979   -1.2836    1.7395 O.2     1  UNL1       -0.1528
     23 O          -2.5117    1.1347    1.9129 O.2     1  UNL1       -0.1528
     24 C          -4.4611   -0.0865    0.5768 C.ar    1  UNL1        0.1056
     25 C          -5.0999   -1.2874    0.3942 C.ar    1  UNL1       -0.0326
     26 C          -6.4372   -1.3326    0.0440 C.ar    1  UNL1       -0.0246
     27 C          -7.1637   -0.1594   -0.1305 C.ar    1  UNL1        0.1235
     28 F          -8.4750   -0.2659   -0.4750 F       1  UNL1       -0.2055
     29 C          -6.5419    1.0501    0.0478 C.ar    1  UNL1       -0.0246
     30 C          -5.1941    1.0776    0.4004 C.ar    1  UNL1       -0.0326
     31 H          -3.2345   -1.2400   -1.2437 H       1  UNL1        0.0408
     32 H          -1.7395   -1.1852   -2.1864 H       1  UNL1        0.0408
     33 H          -1.7558   -2.0304   -0.5876 H       1  UNL1        0.0408
     34 H          -0.3499    0.3048    0.9774 H       1  UNL1        0.0497
     35 H           0.3847    2.2235    0.0643 H       1  UNL1        0.0285
     36 H          -0.6713    2.0439   -1.3418 H       1  UNL1        0.0285
     37 H           1.6799    2.2787   -1.8907 H       1  UNL1        0.0328
     38 H           0.9024    0.7674   -2.5475 H       1  UNL1        0.0328
     39 H           4.2208    1.9686   -2.1212 H       1  UNL1        0.0427
     40 H           5.5446    1.4601   -0.9763 H       1  UNL1        0.0427
     41 H           4.9793    4.7258    0.3869 H       1  UNL1        0.2951
     42 H           5.9982   -0.2763    0.5682 H       1  UNL1        0.0625
     43 H           6.0909   -2.3611    1.8490 H       1  UNL1        0.0646
     44 H           1.9600   -3.0306    1.1343 H       1  UNL1        0.0667
     45 H           0.2893   -1.1768   -1.6263 H       1  UNL1        0.0508
     46 H           0.1482   -1.8399    0.0975 H       1  UNL1        0.0508
     47 H          -4.5420   -2.2017    0.5277 H       1  UNL1        0.0638
     48 H          -6.9209   -2.2897   -0.0944 H       1  UNL1        0.0647
     49 H          -7.1181    1.9515   -0.0915 H       1  UNL1        0.0647
     50 H          -4.6948    2.0376    0.5433 H       1  UNL1        0.0638
@<TRIPOS>BOND
     1     1     2    1
     2     2     3    1
     3     3     4    1
     4     4     5    1
     5     5     6    1
     6     6     7   ar
     7     7     8    1
     8     8     9    1
     9     9    10    2
    10     9    11    1
    11     7    12   ar
    12    12    13   ar
    13    13    14   ar
    14    14    15   ar
    15    15    16    1
    16    15    17   ar
    17    17    18   ar
    18    18    19   ar
    19    19    20    1
    20     2    21    1
    21    21    22    2
    22    21    23    2
    23    21    24    1
    24    24    25   ar
    25    25    26   ar
    26    26    27   ar
    27    27    28    1
    28    27    29   ar
    29    29    30   ar
    30    20     3    1
    31    30    24   ar
    32    19     6   ar
    33    18    12   ar
    34     1    31    1
    35     1    32    1
    36     1    33    1
    37     3    34    1
    38     4    35    1
    39     4    36    1
    40     5    37    1
    41     5    38    1
    42     8    39    1
    43     8    40    1
    44    11    41    1
    45    13    42    1
    46    14    43    1
    47    17    44    1
    48    20    45    1
    49    20    46    1
    50    25    47    1
    51    26    48    1
    52    29    49    1
    53    30    50    1
