
     RDKit          3D

 63 66  0  0  0  0  0  0  0  0999 V2000
    9.9754   -1.5055    0.8279 C   0  0  0  0  0  0  0  0  0  0  0  0
    8.9643   -2.2659    0.0701 C   0  0  0  0  0  0  0  0  0  0  0  0
    9.3122   -3.3131   -0.5189 O   0  0  0  0  0  0  0  0  0  0  0  0
    7.5844   -1.8139    0.0037 C   0  0  0  0  0  0  0  0  0  0  0  0
    7.1990   -0.6655    0.6479 C   0  0  0  0  0  0  0  0  0  0  0  0
    5.8751   -0.1990    0.6067 C   0  0  0  0  0  0  0  0  0  0  0  0
    4.9453   -0.9102   -0.0949 C   0  0  0  0  0  0  0  0  0  0  0  0
    3.6075   -0.5000   -0.1488 N   0  0  0  0  0  0  0  0  0  0  0  0
    3.0175    0.2393    0.9229 C   0  0  0  0  0  0  0  0  0  0  0  0
    2.0448    1.3097    0.4726 C   0  0  0  0  0  0  0  0  0  0  0  0
    1.3816    0.9433   -0.7554 N   0  0  0  0  0  0  0  0  0  0  0  0
   -0.0270    1.0367   -0.8248 C   0  0  0  0  0  0  0  0  0  0  0  0
   -0.5530    0.7046   -1.9245 O   0  0  0  0  0  0  0  0  0  0  0  0
   -0.7958    1.4950    0.3331 C   0  0  0  0  0  0  0  0  0  0  0  0
   -2.2010    1.5340    0.1375 N   0  0  0  0  0  0  0  0  0  0  0  0
   -2.7197    2.4902   -0.7625 C   0  0  0  0  0  0  0  0  0  0  0  0
   -3.6409    3.3543    0.0447 C   0  0  0  0  0  0  0  0  0  0  0  0
   -4.1563    2.4041    1.1036 C   0  0  1  0  0  0  0  0  0  0  0  0
   -5.1536    1.5215    0.4742 C   0  0  0  0  0  0  0  0  0  0  0  0
   -5.4679    1.6336   -0.7367 O   0  0  0  0  0  0  0  0  0  0  0  0
   -5.8278    0.4809    1.1954 N   0  0  0  0  0  0  0  0  0  0  0  0
   -6.7892   -0.3740    0.5836 C   0  0  0  0  0  0  0  0  0  0  0  0
   -8.1228   -0.1290    0.5205 C   0  0  0  0  0  0  0  0  0  0  0  0
   -8.9552   -1.0571   -0.1118 C   0  0  0  0  0  0  0  0  0  0  0  0
   -8.4407   -2.2045   -0.6645 C   0  0  0  0  0  0  0  0  0  0  0  0
   -9.2452   -3.1509   -1.3026 O   0  0  0  0  0  0  0  0  0  0  0  0
   -7.0944   -2.4282   -0.5878 C   0  0  0  0  0  0  0  0  0  0  0  0
   -6.4286   -3.8965   -1.2931 Cl  0  0  0  0  0  0  0  0  0  0  0  0
   -6.2657   -1.5381    0.0230 C   0  0  0  0  0  0  0  0  0  0  0  0
   -2.8657    1.6509    1.4173 C   0  0  0  0  0  0  0  0  0  0  0  0
    2.2359    0.4924   -1.8349 C   0  0  0  0  0  0  0  0  0  0  0  0
    2.8192   -0.8410   -1.3429 C   0  0  0  0  0  0  0  0  0  0  0  0
    5.3195   -2.0667   -0.7474 C   0  0  0  0  0  0  0  0  0  0  0  0
    6.6329   -2.4992   -0.6872 C   0  0  0  0  0  0  0  0  0  0  0  0
    9.6080   -1.2614    1.8571 H   0  0  0  0  0  0  0  0  0  0  0  0
   10.9132   -2.0614    0.9622 H   0  0  0  0  0  0  0  0  0  0  0  0
   10.2062   -0.5477    0.3379 H   0  0  0  0  0  0  0  0  0  0  0  0
    7.9105   -0.0849    1.2089 H   0  0  0  0  0  0  0  0  0  0  0  0
    5.6276    0.7095    1.1206 H   0  0  0  0  0  0  0  0  0  0  0  0
    2.3998   -0.5157    1.5037 H   0  0  0  0  0  0  0  0  0  0  0  0
    3.7505    0.7243    1.5678 H   0  0  0  0  0  0  0  0  0  0  0  0
    1.3478    1.4839    1.2962 H   0  0  0  0  0  0  0  0  0  0  0  0
    2.6061    2.2485    0.2800 H   0  0  0  0  0  0  0  0  0  0  0  0
   -0.4066    2.4722    0.7398 H   0  0  0  0  0  0  0  0  0  0  0  0
   -0.5996    0.7648    1.1673 H   0  0  0  0  0  0  0  0  0  0  0  0
   -1.9601    3.1574   -1.2217 H   0  0  0  0  0  0  0  0  0  0  0  0
   -3.3133    1.9550   -1.5566 H   0  0  0  0  0  0  0  0  0  0  0  0
   -4.4668    3.7422   -0.5864 H   0  0  0  0  0  0  0  0  0  0  0  0
   -3.0405    4.1659    0.5048 H   0  0  0  0  0  0  0  0  0  0  0  0
   -4.5261    2.9867    1.9467 H   0  0  0  0  0  0  0  0  0  0  0  0
   -5.5551    0.3999    2.2123 H   0  0  0  0  0  0  0  0  0  0  0  0
   -8.5135    0.7723    0.9573 H   0  0  0  0  0  0  0  0  0  0  0  0
  -10.0091   -0.8527   -0.1559 H   0  0  0  0  0  0  0  0  0  0  0  0
   -9.2028   -4.1212   -1.0480 H   0  0  0  0  0  0  0  0  0  0  0  0
   -5.1957   -1.7562    0.0613 H   0  0  0  0  0  0  0  0  0  0  0  0
   -3.0656    0.6603    1.8673 H   0  0  0  0  0  0  0  0  0  0  0  0
   -2.3157    2.2691    2.1473 H   0  0  0  0  0  0  0  0  0  0  0  0
    3.0666    1.2152   -1.9326 H   0  0  0  0  0  0  0  0  0  0  0  0
    1.7091    0.3736   -2.7840 H   0  0  0  0  0  0  0  0  0  0  0  0
    3.4085   -1.3077   -2.1324 H   0  0  0  0  0  0  0  0  0  0  0  0
    1.9427   -1.4588   -1.0601 H   0  0  0  0  0  0  0  0  0  0  0  0
    4.6156   -2.6621   -1.3092 H   0  0  0  0  0  0  0  0  0  0  0  0
    6.8945   -3.4030   -1.2052 H   0  0  0  0  0  0  0  0  0  0  0  0
  1  2  1  0
  2  3  2  0
  2  4  1  0
  4  5  2  0
  5  6  1  0
  6  7  2  0
  7  8  1  0
  8  9  1  0
  9 10  1  0
 10 11  1  0
 11 12  1  0
 12 13  2  0
 12 14  1  0
 14 15  1  0
 15 16  1  0
 16 17  1  0
 17 18  1  0
 18 19  1  0
 19 20  2  0
 19 21  1  0
 21 22  1  0
 22 23  2  0
 23 24  1  0
 24 25  2  0
 25 26  1  0
 25 27  1  0
 27 28  1  0
 27 29  2  0
 18 30  1  0
 11 31  1  0
 31 32  1  0
  7 33  1  0
 33 34  2  0
 34  4  1  0
 32  8  1  0
 30 15  1  0
 29 22  1  0
  1 35  1  0
  1 36  1  0
  1 37  1  0
  5 38  1  0
  6 39  1  0
  9 40  1  0
  9 41  1  0
 10 42  1  0
 10 43  1  0
 14 44  1  0
 14 45  1  0
 16 46  1  0
 16 47  1  0
 17 48  1  0
 17 49  1  0
 18 50  1  1
 21 51  1  0
 23 52  1  0
 24 53  1  0
 26 54  1  0
 29 55  1  0
 30 56  1  0
 30 57  1  0
 31 58  1  0
 31 59  1  0
 32 60  1  0
 32 61  1  0
 33 62  1  0
 34 63  1  0
M  END
$$$$
