@<TRIPOS>MOLECULE
*****
 63 66 0 0 0
SMALL
GASTEIGER

@<TRIPOS>ATOM
      1 C           9.9754   -1.5055    0.8279 C.3     1  UNL1       -0.0014
      2 C           8.9643   -2.2659    0.0701 C.2     1  UNL1        0.1601
      3 O           9.3122   -3.3131   -0.5189 O.2     1  UNL1       -0.2924
      4 C           7.5844   -1.8139    0.0037 C.ar    1  UNL1        0.0172
      5 C           7.1990   -0.6655    0.6479 C.ar    1  UNL1       -0.0495
      6 C           5.8751   -0.1990    0.6067 C.ar    1  UNL1       -0.0400
      7 C           4.9453   -0.9102   -0.0949 C.ar    1  UNL1        0.0298
      8 N           3.6075   -0.5000   -0.1488 N.pl3   1  UNL1       -0.3269
      9 C           3.0175    0.2393    0.9229 C.3     1  UNL1        0.0280
     10 C           2.0448    1.3097    0.4726 C.3     1  UNL1        0.0305
     11 N           1.3816    0.9433   -0.7554 N.am    1  UNL1       -0.2974
     12 C          -0.0270    1.0367   -0.8248 C.2     1  UNL1        0.2297
     13 O          -0.5530    0.7046   -1.9245 O.2     1  UNL1       -0.2742
     14 C          -0.7958    1.4950    0.3331 C.3     1  UNL1        0.0759
     15 N          -2.2010    1.5340    0.1375 N.3     1  UNL1       -0.2933
     16 C          -2.7197    2.4902   -0.7625 C.3     1  UNL1        0.0001
     17 C          -3.6409    3.3543    0.0447 C.3     1  UNL1       -0.0279
     18 C          -4.1563    2.4041    1.1036 C.3     1  UNL1        0.0497
     19 C          -5.1536    1.5215    0.4742 C.2     1  UNL1        0.2216
     20 O          -5.4679    1.6336   -0.7367 O.2     1  UNL1       -0.2751
     21 N          -5.8278    0.4809    1.1954 N.am    1  UNL1       -0.2852
     22 C          -6.7892   -0.3740    0.5836 C.ar    1  UNL1        0.0350
     23 C          -8.1228   -0.1290    0.5205 C.ar    1  UNL1       -0.0369
     24 C          -8.9552   -1.0571   -0.1118 C.ar    1  UNL1       -0.0170
     25 C          -8.4407   -2.2045   -0.6645 C.ar    1  UNL1        0.1352
     26 O          -9.2452   -3.1509   -1.3026 O.3     1  UNL1       -0.5053
     27 C          -7.0944   -2.4282   -0.5878 C.ar    1  UNL1        0.0840
     28 CL         -6.4286   -3.8965   -1.2931 Cl      1  UNL1       -0.0797
     29 C          -6.2657   -1.5381    0.0230 C.ar    1  UNL1       -0.0186
     30 C          -2.8657    1.6509    1.4173 C.3     1  UNL1        0.0105
     31 C           2.2359    0.4924   -1.8349 C.3     1  UNL1        0.0305
     32 C           2.8192   -0.8410   -1.3429 C.3     1  UNL1        0.0280
     33 C           5.3195   -2.0667   -0.7474 C.ar    1  UNL1       -0.0400
     34 C           6.6329   -2.4992   -0.6872 C.ar    1  UNL1       -0.0495
     35 H           9.6080   -1.2614    1.8571 H       1  UNL1        0.0309
     36 H          10.9132   -2.0614    0.9622 H       1  UNL1        0.0309
     37 H          10.2062   -0.5477    0.3379 H       1  UNL1        0.0309
     38 H           7.9105   -0.0849    1.2089 H       1  UNL1        0.0625
     39 H           5.6276    0.7095    1.1206 H       1  UNL1        0.0636
     40 H           2.3998   -0.5157    1.5037 H       1  UNL1        0.0479
     41 H           3.7505    0.7243    1.5678 H       1  UNL1        0.0479
     42 H           1.3478    1.4839    1.2962 H       1  UNL1        0.0480
     43 H           2.6061    2.2485    0.2800 H       1  UNL1        0.0480
     44 H          -0.4066    2.4722    0.7398 H       1  UNL1        0.0522
     45 H          -0.5996    0.7648    1.1673 H       1  UNL1        0.0522
     46 H          -1.9601    3.1574   -1.2217 H       1  UNL1        0.0427
     47 H          -3.3133    1.9550   -1.5566 H       1  UNL1        0.0427
     48 H          -4.4668    3.7422   -0.5864 H       1  UNL1        0.0285
     49 H          -3.0405    4.1659    0.5048 H       1  UNL1        0.0285
     50 H          -4.5261    2.9867    1.9467 H       1  UNL1        0.0407
     51 H          -5.5551    0.3999    2.2123 H       1  UNL1        0.1548
     52 H          -8.5135    0.7723    0.9573 H       1  UNL1        0.0637
     53 H         -10.0091   -0.8527   -0.1559 H       1  UNL1        0.0655
     54 H          -9.2028   -4.1212   -1.0480 H       1  UNL1        0.2922
     55 H          -5.1957   -1.7562    0.0613 H       1  UNL1        0.0652
     56 H          -3.0656    0.6603    1.8673 H       1  UNL1        0.0434
     57 H          -2.3157    2.2691    2.1473 H       1  UNL1        0.0434
     58 H           3.0666    1.2152   -1.9326 H       1  UNL1        0.0480
     59 H           1.7091    0.3736   -2.7840 H       1  UNL1        0.0480
     60 H           3.4085   -1.3077   -2.1324 H       1  UNL1        0.0479
     61 H           1.9427   -1.4588   -1.0601 H       1  UNL1        0.0479
     62 H           4.6156   -2.6621   -1.3092 H       1  UNL1        0.0636
     63 H           6.8945   -3.4030   -1.2052 H       1  UNL1        0.0625
@<TRIPOS>BOND
     1     1     2    1
     2     2     3    2
     3     2     4    1
     4     4     5   ar
     5     5     6   ar
     6     6     7   ar
     7     7     8    1
     8     8     9    1
     9     9    10    1
    10    10    11    1
    11    11    12   am
    12    12    13    2
    13    12    14    1
    14    14    15    1
    15    15    16    1
    16    16    17    1
    17    17    18    1
    18    18    19    1
    19    19    20    2
    20    19    21   am
    21    21    22    1
    22    22    23   ar
    23    23    24   ar
    24    24    25   ar
    25    25    26    1
    26    25    27   ar
    27    27    28    1
    28    27    29   ar
    29    18    30    1
    30    11    31    1
    31    31    32    1
    32     7    33   ar
    33    33    34   ar
    34    34     4   ar
    35    32     8    1
    36    30    15    1
    37    29    22   ar
    38     1    35    1
    39     1    36    1
    40     1    37    1
    41     5    38    1
    42     6    39    1
    43     9    40    1
    44     9    41    1
    45    10    42    1
    46    10    43    1
    47    14    44    1
    48    14    45    1
    49    16    46    1
    50    16    47    1
    51    17    48    1
    52    17    49    1
    53    18    50    1
    54    21    51    1
    55    23    52    1
    56    24    53    1
    57    26    54    1
    58    29    55    1
    59    30    56    1
    60    30    57    1
    61    31    58    1
    62    31    59    1
    63    32    60    1
    64    32    61    1
    65    33    62    1
    66    34    63    1
