@<TRIPOS>MOLECULE
*****
 65 68 0 0 0
SMALL
GASTEIGER

@<TRIPOS>ATOM
      1 C          -8.3019    2.2335   -2.5584 C.3     1  UNL1       -0.0223
      2 C          -7.7792    1.3123   -1.5163 C.ar    1  UNL1        0.0393
      3 C          -6.4784    0.8628   -1.6031 C.ar    1  UNL1       -0.0337
      4 C          -5.9638   -0.0055   -0.6322 C.ar    1  UNL1        0.0004
      5 C          -4.5578   -0.4848   -0.7355 C.3     1  UNL1        0.1153
      6 O          -3.7911    0.2197    0.1928 O.3     1  UNL1       -0.4874
      7 C          -2.4157    0.0293    0.3748 C.ar    1  UNL1        0.1211
      8 C          -1.6743   -0.8650   -0.3328 C.ar    1  UNL1       -0.0181
      9 C          -0.2997   -0.9934   -0.0884 C.ar    1  UNL1       -0.0334
     10 C           0.3148   -0.2205    0.8657 C.ar    1  UNL1        0.0885
     11 S           2.0720   -0.4060    1.1574 S.O2    1  UNL1       -0.0012
     12 O           2.3300   -1.8685    0.9820 O.2     1  UNL1       -0.1693
     13 O           2.2687   -0.0800    2.6060 O.2     1  UNL1       -0.1693
     14 C           2.8503    0.6833    0.0837 C.3     1  UNL1        0.0920
     15 C           4.2708    0.9344   -0.0008 C.3     1  UNL1        0.0751
     16 C           5.3048   -0.0582   -0.3040 C.3     1  UNL1       -0.0184
     17 C           5.5939   -1.2158    0.5363 C.3     1  UNL1       -0.0464
     18 C           6.1818   -2.3312   -0.3649 C.3     1  UNL1       -0.0270
     19 C           7.0602   -1.7093   -1.4287 C.3     1  UNL1        0.0921
     20 N           8.1732   -2.6174   -1.6226 N.2     1  UNL1       -0.0657
     21 O           8.5202   -3.3762   -0.7722 O.2     1  UNL1       -0.1487
     22 C           7.6324   -0.3923   -1.0220 C.3     1  UNL1       -0.0270
     23 C           6.6692    0.6345   -0.5460 C.3     1  UNL1       -0.0464
     24 N           4.7424    1.7965    1.1357 N.am    1  UNL1       -0.1815
     25 O           4.7932    1.2961    2.3755 O.3     1  UNL1       -0.2924
     26 C           5.1407    3.1334    0.9492 C.2     1  UNL1        0.2253
     27 O           5.5259    3.8145    1.9161 O.2     1  UNL1       -0.2772
     28 C          -0.4489    0.6751    1.5686 C.ar    1  UNL1       -0.0334
     29 C          -1.8200    0.8110    1.3327 C.ar    1  UNL1       -0.0181
     30 C          -6.8217   -0.3657    0.3812 C.ar    1  UNL1        0.0068
     31 C          -6.3704   -1.2123    1.3571 C.ar    1  UNL1       -0.0522
     32 C          -7.2079   -1.5930    2.3886 C.ar    1  UNL1       -0.0611
     33 C          -8.5084   -1.1523    2.4876 C.ar    1  UNL1       -0.0597
     34 C          -8.9565   -0.3018    1.5043 C.ar    1  UNL1       -0.0357
     35 C          -8.1293    0.0874    0.4665 C.ar    1  UNL1        0.0716
     36 N          -8.5640    0.9186   -0.4960 N.ar    1  UNL1       -0.2519
     37 H          -9.2720    1.8525   -2.9558 H       1  UNL1        0.0292
     38 H          -7.5724    2.3500   -3.3637 H       1  UNL1        0.0292
     39 H          -8.5271    3.1978   -2.0549 H       1  UNL1        0.0292
     40 H          -5.8195    1.1495   -2.3957 H       1  UNL1        0.0639
     41 H          -4.4601   -1.5721   -0.5204 H       1  UNL1        0.0748
     42 H          -4.1808   -0.3135   -1.7800 H       1  UNL1        0.0748
     43 H          -2.1520   -1.4726   -1.0814 H       1  UNL1        0.0655
     44 H           0.2547   -1.7088   -0.6651 H       1  UNL1        0.0638
     45 H           2.4630    0.5640   -0.9840 H       1  UNL1        0.0523
     46 H           2.3524    1.6975    0.3249 H       1  UNL1        0.0523
     47 H           4.3658    1.6911   -0.8706 H       1  UNL1        0.0544
     48 H           5.1285   -0.4885   -1.3630 H       1  UNL1        0.0320
     49 H           6.5276   -0.9964    1.1805 H       1  UNL1        0.0269
     50 H           4.8464   -1.6900    1.1363 H       1  UNL1        0.0269
     51 H           6.7342   -3.0724    0.2218 H       1  UNL1        0.0287
     52 H           5.3561   -2.8504   -0.8917 H       1  UNL1        0.0287
     53 H           6.5558   -1.6520   -2.4158 H       1  UNL1        0.0578
     54 H           8.1431    0.0268   -1.9375 H       1  UNL1        0.0287
     55 H           8.4762   -0.5571   -0.2894 H       1  UNL1        0.0287
     56 H           6.5523    1.4746   -1.2561 H       1  UNL1        0.0269
     57 H           7.0099    1.0677    0.4149 H       1  UNL1        0.0269
     58 H           4.4734    1.9204    3.0782 H       1  UNL1        0.2417
     59 H           5.1168    3.5800   -0.0279 H       1  UNL1        0.1274
     60 H           0.0090    1.2953    2.3242 H       1  UNL1        0.0638
     61 H          -2.4014    1.5299    1.9059 H       1  UNL1        0.0655
     62 H          -5.3597   -1.5705    1.3038 H       1  UNL1        0.0624
     63 H          -6.8444   -2.2596    3.1533 H       1  UNL1        0.0618
     64 H          -9.1720   -1.4579    3.3097 H       1  UNL1        0.0618
     65 H          -9.9589    0.0715    1.5319 H       1  UNL1        0.0639
@<TRIPOS>BOND
     1     1     2    1
     2     2     3   ar
     3     3     4   ar
     4     4     5    1
     5     5     6    1
     6     6     7    1
     7     7     8   ar
     8     8     9   ar
     9     9    10   ar
    10    10    11    1
    11    11    12    2
    12    11    13    2
    13    11    14    1
    14    14    15    1
    15    15    16    1
    16    16    17    1
    17    17    18    1
    18    18    19    1
    19    19    20    1
    20    20    21    2
    21    19    22    1
    22    22    23    1
    23    15    24    1
    24    24    25    1
    25    24    26   am
    26    26    27    2
    27    10    28   ar
    28    28    29   ar
    29     4    30   ar
    30    30    31   ar
    31    31    32   ar
    32    32    33   ar
    33    33    34   ar
    34    34    35   ar
    35    35    36   ar
    36    36     2   ar
    37    29     7   ar
    38    35    30   ar
    39    23    16    1
    40     1    37    1
    41     1    38    1
    42     1    39    1
    43     3    40    1
    44     5    41    1
    45     5    42    1
    46     8    43    1
    47     9    44    1
    48    14    45    1
    49    14    46    1
    50    15    47    1
    51    16    48    1
    52    17    49    1
    53    17    50    1
    54    18    51    1
    55    18    52    1
    56    19    53    1
    57    22    54    1
    58    22    55    1
    59    23    56    1
    60    23    57    1
    61    25    58    1
    62    26    59    1
    63    28    60    1
    64    29    61    1
    65    31    62    1
    66    32    63    1
    67    33    64    1
    68    34    65    1
