
     RDKit          3D

 64 67  0  0  0  0  0  0  0  0999 V2000
   10.8515    2.1197   -1.8007 C   0  0  0  0  0  0  0  0  0  0  0  0
   10.2028    1.1175   -1.2444 C   0  0  0  0  0  0  0  0  0  0  0  0
    8.8554    1.3295   -0.6680 C   0  0  0  0  0  0  0  0  0  0  0  0
    8.3587    2.4702   -0.7238 O   0  0  0  0  0  0  0  0  0  0  0  0
    8.1388    0.2798   -0.0679 N   0  0  0  0  0  0  0  0  0  0  0  0
    6.8501    0.3489    0.5171 C   0  0  0  0  0  0  0  0  0  0  0  0
    6.0562    1.4535    0.6067 C   0  0  0  0  0  0  0  0  0  0  0  0
    4.7872    1.4407    1.2040 C   0  0  0  0  0  0  0  0  0  0  0  0
    4.2751    0.2854    1.7389 C   0  0  0  0  0  0  0  0  0  0  0  0
    2.6994    0.2808    2.4796 S   0  0  0  0  0  6  0  0  0  0  0  0
    2.6622   -0.7369    3.5866 O   0  0  0  0  0  0  0  0  0  0  0  0
    2.3710    1.6263    3.0875 O   0  0  0  0  0  0  0  0  0  0  0  0
    1.5083   -0.0837    1.2831 N   0  0  0  0  0  0  0  0  0  0  0  0
    1.7993   -1.4047    0.7709 C   0  0  0  0  0  0  0  0  0  0  0  0
    0.9493   -1.7765   -0.4202 C   0  0  0  0  0  0  0  0  0  0  0  0
    0.1275   -0.7019   -0.8884 N   0  0  0  0  0  0  0  0  0  0  0  0
   -1.1942   -0.9690   -1.3325 C   0  0  0  0  0  0  0  0  0  0  0  0
   -1.9373   -0.0478   -1.7473 O   0  0  0  0  0  0  0  0  0  0  0  0
   -1.6894   -2.2373   -1.3190 O   0  0  0  0  0  0  0  0  0  0  0  0
   -2.9572   -2.6820   -1.7142 C   0  0  0  0  0  0  0  0  0  0  0  0
   -4.0826   -2.1081   -0.9869 C   0  0  0  0  0  0  0  0  0  0  0  0
   -4.4681   -2.7083    0.2095 C   0  0  0  0  0  0  0  0  0  0  0  0
   -5.5276   -2.2448    0.9616 C   0  0  0  0  0  0  0  0  0  0  0  0
   -6.2180   -1.1417    0.4901 C   0  0  0  0  0  0  0  0  0  0  0  0
   -7.2837   -0.6773    1.2495 O   0  0  0  0  0  0  0  0  0  0  0  0
   -7.9785    0.4271    0.7800 C   0  0  0  0  0  0  0  0  0  0  0  0
   -9.0598    0.2203   -0.0498 C   0  0  0  0  0  0  0  0  0  0  0  0
   -9.7608    1.3197   -0.5243 C   0  0  0  0  0  0  0  0  0  0  0  0
   -9.3474    2.5892   -0.1459 C   0  0  0  0  0  0  0  0  0  0  0  0
   -8.2781    2.8159    0.6758 C   0  0  0  0  0  0  0  0  0  0  0  0
   -7.5932    1.6999    1.1373 C   0  0  0  0  0  0  0  0  0  0  0  0
   -5.8331   -0.5545   -0.6904 C   0  0  0  0  0  0  0  0  0  0  0  0
   -4.7728   -1.0239   -1.4367 C   0  0  0  0  0  0  0  0  0  0  0  0
    0.6490    0.6323   -0.9025 C   0  0  0  0  0  0  0  0  0  0  0  0
    1.5470    0.9285    0.2540 C   0  0  0  0  0  0  0  0  0  0  0  0
    5.0701   -0.8343    1.6525 C   0  0  0  0  0  0  0  0  0  0  0  0
    6.3086   -0.8219    1.0695 C   0  0  0  0  0  0  0  0  0  0  0  0
   10.3754    3.1134   -1.8290 H   0  0  0  0  0  0  0  0  0  0  0  0
   11.8308    1.9722   -2.2212 H   0  0  0  0  0  0  0  0  0  0  0  0
   10.6706    0.1504   -1.2187 H   0  0  0  0  0  0  0  0  0  0  0  0
    8.6663   -0.6568   -0.0779 H   0  0  0  0  0  0  0  0  0  0  0  0
    6.4078    2.3865    0.2036 H   0  0  0  0  0  0  0  0  0  0  0  0
    4.2037    2.3548    1.2435 H   0  0  0  0  0  0  0  0  0  0  0  0
    2.8528   -1.3761    0.4112 H   0  0  0  0  0  0  0  0  0  0  0  0
    1.7585   -2.1475    1.5799 H   0  0  0  0  0  0  0  0  0  0  0  0
    1.5610   -2.1367   -1.2692 H   0  0  0  0  0  0  0  0  0  0  0  0
    0.2793   -2.6146   -0.0668 H   0  0  0  0  0  0  0  0  0  0  0  0
   -3.0279   -2.4865   -2.8074 H   0  0  0  0  0  0  0  0  0  0  0  0
   -2.9617   -3.8104   -1.6297 H   0  0  0  0  0  0  0  0  0  0  0  0
   -3.9367   -3.5719    0.5895 H   0  0  0  0  0  0  0  0  0  0  0  0
   -5.8192   -2.7172    1.8887 H   0  0  0  0  0  0  0  0  0  0  0  0
   -9.3815   -0.7694   -0.3444 H   0  0  0  0  0  0  0  0  0  0  0  0
  -10.6076    1.2116   -1.1713 H   0  0  0  0  0  0  0  0  0  0  0  0
   -9.8870    3.4494   -0.5106 H   0  0  0  0  0  0  0  0  0  0  0  0
   -7.9594    3.7982    0.9679 H   0  0  0  0  0  0  0  0  0  0  0  0
   -6.7374    1.8762    1.7947 H   0  0  0  0  0  0  0  0  0  0  0  0
   -6.3791    0.3023   -1.0445 H   0  0  0  0  0  0  0  0  0  0  0  0
   -4.5193   -0.5134   -2.3798 H   0  0  0  0  0  0  0  0  0  0  0  0
   -0.1860    1.3895   -0.9894 H   0  0  0  0  0  0  0  0  0  0  0  0
    1.2206    0.7539   -1.8444 H   0  0  0  0  0  0  0  0  0  0  0  0
    2.5935    0.9735   -0.1062 H   0  0  0  0  0  0  0  0  0  0  0  0
    1.2901    1.9114    0.6692 H   0  0  0  0  0  0  0  0  0  0  0  0
    4.6760   -1.7491    2.0707 H   0  0  0  0  0  0  0  0  0  0  0  0
    6.9308   -1.7243    1.0087 H   0  0  0  0  0  0  0  0  0  0  0  0
  1  2  2  3
  2  3  1  0
  3  4  2  0
  3  5  1  0
  5  6  1  0
  6  7  2  0
  7  8  1  0
  8  9  2  0
  9 10  1  0
 10 11  2  0
 10 12  2  0
 10 13  1  0
 13 14  1  0
 14 15  1  0
 15 16  1  0
 16 17  1  0
 17 18  2  0
 17 19  1  0
 19 20  1  0
 20 21  1  0
 21 22  2  0
 22 23  1  0
 23 24  2  0
 24 25  1  0
 25 26  1  0
 26 27  2  0
 27 28  1  0
 28 29  2  0
 29 30  1  0
 30 31  2  0
 24 32  1  0
 32 33  2  0
 16 34  1  0
 34 35  1  0
  9 36  1  0
 36 37  2  0
 37  6  1  0
 35 13  1  0
 33 21  1  0
 31 26  1  0
  1 38  1  0
  1 39  1  0
  2 40  1  0
  5 41  1  0
  7 42  1  0
  8 43  1  0
 14 44  1  0
 14 45  1  0
 15 46  1  0
 15 47  1  0
 20 48  1  0
 20 49  1  0
 22 50  1  0
 23 51  1  0
 27 52  1  0
 28 53  1  0
 29 54  1  0
 30 55  1  0
 31 56  1  0
 32 57  1  0
 33 58  1  0
 34 59  1  0
 34 60  1  0
 35 61  1  0
 35 62  1  0
 36 63  1  0
 37 64  1  0
M  END
$$$$
