@<TRIPOS>MOLECULE
*****
 64 67 0 0 0
SMALL
GASTEIGER

@<TRIPOS>ATOM
      1 C          10.8515    2.1197   -1.8007 C.2     1  UNL1       -0.0938
      2 C          10.2028    1.1175   -1.2444 C.2     1  UNL1       -0.0066
      3 C           8.8554    1.3295   -0.6680 C.2     1  UNL1        0.2405
      4 O           8.3587    2.4702   -0.7238 O.2     1  UNL1       -0.2705
      5 N           8.1388    0.2798   -0.0679 N.am    1  UNL1       -0.2820
      6 C           6.8501    0.3489    0.5171 C.ar    1  UNL1        0.0338
      7 C           6.0562    1.4535    0.6067 C.ar    1  UNL1       -0.0386
      8 C           4.7872    1.4407    1.2040 C.ar    1  UNL1       -0.0336
      9 C           4.2751    0.2854    1.7389 C.ar    1  UNL1        0.1056
     10 S           2.6994    0.2808    2.4796 S.O2    1  UNL1        0.0609
     11 O           2.6622   -0.7369    3.5866 O.2     1  UNL1       -0.1528
     12 O           2.3710    1.6263    3.0875 O.2     1  UNL1       -0.1528
     13 N           1.5083   -0.0837    1.2831 N.3     1  UNL1       -0.1736
     14 C           1.7993   -1.4047    0.7709 C.3     1  UNL1        0.0364
     15 C           0.9493   -1.7765   -0.4202 C.3     1  UNL1        0.0323
     16 N           0.1275   -0.7019   -0.8884 N.am    1  UNL1       -0.2649
     17 C          -1.1942   -0.9690   -1.3325 C.2     1  UNL1        0.4033
     18 O          -1.9373   -0.0478   -1.7473 O.2     1  UNL1       -0.2262
     19 O          -1.6894   -2.2373   -1.3190 O.3     1  UNL1       -0.4455
     20 C          -2.9572   -2.6820   -1.7142 C.3     1  UNL1        0.1191
     21 C          -4.0826   -2.1081   -0.9869 C.ar    1  UNL1       -0.0100
     22 C          -4.4681   -2.7083    0.2095 C.ar    1  UNL1       -0.0519
     23 C          -5.5276   -2.2448    0.9616 C.ar    1  UNL1       -0.0190
     24 C          -6.2180   -1.1417    0.4901 C.ar    1  UNL1        0.1285
     25 O          -7.2837   -0.6773    1.2495 O.3     1  UNL1       -0.4560
     26 C          -7.9785    0.4271    0.7800 C.ar    1  UNL1        0.1284
     27 C          -9.0598    0.2203   -0.0498 C.ar    1  UNL1       -0.0193
     28 C          -9.7608    1.3197   -0.5243 C.ar    1  UNL1       -0.0583
     29 C          -9.3474    2.5892   -0.1459 C.ar    1  UNL1       -0.0615
     30 C          -8.2781    2.8159    0.6758 C.ar    1  UNL1       -0.0583
     31 C          -7.5932    1.6999    1.1373 C.ar    1  UNL1       -0.0193
     32 C          -5.8331   -0.5545   -0.6904 C.ar    1  UNL1       -0.0190
     33 C          -4.7728   -1.0239   -1.4367 C.ar    1  UNL1       -0.0519
     34 C           0.6490    0.6323   -0.9025 C.3     1  UNL1        0.0323
     35 C           1.5470    0.9285    0.2540 C.3     1  UNL1        0.0364
     36 C           5.0701   -0.8343    1.6525 C.ar    1  UNL1       -0.0336
     37 C           6.3086   -0.8219    1.0695 C.ar    1  UNL1       -0.0386
     38 H          10.3754    3.1134   -1.8290 H       1  UNL1        0.0536
     39 H          11.8308    1.9722   -2.2212 H       1  UNL1        0.0536
     40 H          10.6706    0.1504   -1.2187 H       1  UNL1        0.0663
     41 H           8.6663   -0.6568   -0.0779 H       1  UNL1        0.1551
     42 H           6.4078    2.3865    0.2036 H       1  UNL1        0.0637
     43 H           4.2037    2.3548    1.2435 H       1  UNL1        0.0638
     44 H           2.8528   -1.3761    0.4112 H       1  UNL1        0.0459
     45 H           1.7585   -2.1475    1.5799 H       1  UNL1        0.0459
     46 H           1.5610   -2.1367   -1.2692 H       1  UNL1        0.0479
     47 H           0.2793   -2.6146   -0.0668 H       1  UNL1        0.0479
     48 H          -3.0279   -2.4865   -2.8074 H       1  UNL1        0.0749
     49 H          -2.9617   -3.8104   -1.6297 H       1  UNL1        0.0749
     50 H          -3.9367   -3.5719    0.5895 H       1  UNL1        0.0622
     51 H          -5.8192   -2.7172    1.8887 H       1  UNL1        0.0654
     52 H          -9.3815   -0.7694   -0.3444 H       1  UNL1        0.0654
     53 H         -10.6076    1.2116   -1.1713 H       1  UNL1        0.0619
     54 H          -9.8870    3.4494   -0.5106 H       1  UNL1        0.0618
     55 H          -7.9594    3.7982    0.9679 H       1  UNL1        0.0619
     56 H          -6.7374    1.8762    1.7947 H       1  UNL1        0.0654
     57 H          -6.3791    0.3023   -1.0445 H       1  UNL1        0.0654
     58 H          -4.5193   -0.5134   -2.3798 H       1  UNL1        0.0622
     59 H          -0.1860    1.3895   -0.9894 H       1  UNL1        0.0479
     60 H           1.2206    0.7539   -1.8444 H       1  UNL1        0.0479
     61 H           2.5935    0.9735   -0.1062 H       1  UNL1        0.0459
     62 H           1.2901    1.9114    0.6692 H       1  UNL1        0.0459
     63 H           4.6760   -1.7491    2.0707 H       1  UNL1        0.0638
     64 H           6.9308   -1.7243    1.0087 H       1  UNL1        0.0637
@<TRIPOS>BOND
     1     1     2    2
     2     2     3    1
     3     3     4    2
     4     3     5   am
     5     5     6    1
     6     6     7   ar
     7     7     8   ar
     8     8     9   ar
     9     9    10    1
    10    10    11    2
    11    10    12    2
    12    10    13    1
    13    13    14    1
    14    14    15    1
    15    15    16    1
    16    16    17   am
    17    17    18    2
    18    17    19    1
    19    19    20    1
    20    20    21    1
    21    21    22   ar
    22    22    23   ar
    23    23    24   ar
    24    24    25    1
    25    25    26    1
    26    26    27   ar
    27    27    28   ar
    28    28    29   ar
    29    29    30   ar
    30    30    31   ar
    31    24    32   ar
    32    32    33   ar
    33    16    34    1
    34    34    35    1
    35     9    36   ar
    36    36    37   ar
    37    37     6   ar
    38    35    13    1
    39    33    21   ar
    40    31    26   ar
    41     1    38    1
    42     1    39    1
    43     2    40    1
    44     5    41    1
    45     7    42    1
    46     8    43    1
    47    14    44    1
    48    14    45    1
    49    15    46    1
    50    15    47    1
    51    20    48    1
    52    20    49    1
    53    22    50    1
    54    23    51    1
    55    27    52    1
    56    28    53    1
    57    29    54    1
    58    30    55    1
    59    31    56    1
    60    32    57    1
    61    33    58    1
    62    34    59    1
    63    34    60    1
    64    35    61    1
    65    35    62    1
    66    36    63    1
    67    37    64    1
