
     RDKit          3D

 37 40  0  0  0  0  0  0  0  0999 V2000
   -4.0370   -1.7260    2.0888 O   0  0  0  0  0  0  0  0  0  0  0  0
   -2.8982   -1.7920    1.5503 C   0  0  0  0  0  0  0  0  0  0  0  0
   -2.0068   -2.7550    1.8477 N   0  0  0  0  0  0  0  0  0  0  0  0
   -0.7875   -2.8451    1.2863 C   0  0  0  0  0  0  0  0  0  0  0  0
   -0.4176   -1.9119    0.3583 N   0  0  0  0  0  0  0  0  0  0  0  0
    0.7984   -2.0101   -0.1949 N   0  0  0  0  0  0  0  0  0  0  0  0
    1.2556   -1.1370   -1.1209 C   0  0  0  0  0  0  0  0  0  0  0  0
    2.8843   -1.2939   -1.8419 S   0  0  0  0  0  0  0  0  0  0  0  0
    4.1132   -0.4065   -0.9115 C   0  0  0  0  0  0  0  0  0  0  0  0
    4.8024   -1.0161    0.1177 C   0  0  0  0  0  0  0  0  0  0  0  0
    5.7559   -0.3108    0.8318 C   0  0  0  0  0  0  0  0  0  0  0  0
    6.0495    1.0069    0.5473 C   0  0  0  0  0  0  0  0  0  0  0  0
    6.9932    1.6794    1.2658 F   0  0  0  0  0  0  0  0  0  0  0  0
    5.3633    1.6200   -0.4804 C   0  0  0  0  0  0  0  0  0  0  0  0
    4.4108    0.8986   -1.1859 C   0  0  0  0  0  0  0  0  0  0  0  0
    3.7389    1.5024   -2.1938 F   0  0  0  0  0  0  0  0  0  0  0  0
    0.4414   -0.1021   -1.5151 C   0  0  0  0  0  0  0  0  0  0  0  0
   -0.8083    0.0050   -0.9513 C   0  0  0  0  0  0  0  0  0  0  0  0
   -1.2493   -0.9171    0.0048 C   0  0  0  0  0  0  0  0  0  0  0  0
   -2.4882   -0.8638    0.6054 C   0  0  0  0  0  0  0  0  0  0  0  0
   -3.3769    0.2109    0.2184 C   0  0  0  0  0  0  0  0  0  0  0  0
   -3.3558    1.4025    0.8931 C   0  0  0  0  0  0  0  0  0  0  0  0
   -2.2441    1.6807    2.2644 Cl  0  0  0  0  0  0  0  0  0  0  0  0
   -4.2000    2.4329    0.5307 C   0  0  0  0  0  0  0  0  0  0  0  0
   -5.0723    2.2429   -0.5298 C   0  0  0  0  0  0  0  0  0  0  0  0
   -5.0789    1.0354   -1.1972 C   0  0  0  0  0  0  0  0  0  0  0  0
   -4.2333    0.0125   -0.8292 C   0  0  0  0  0  0  0  0  0  0  0  0
   -4.2755   -1.5336   -1.7209 Cl  0  0  0  0  0  0  0  0  0  0  0  0
   -0.0765   -3.6183    1.5276 H   0  0  0  0  0  0  0  0  0  0  0  0
    4.5582   -2.0503    0.3261 H   0  0  0  0  0  0  0  0  0  0  0  0
    6.2743   -0.8233    1.6307 H   0  0  0  0  0  0  0  0  0  0  0  0
    5.5943    2.6490   -0.7007 H   0  0  0  0  0  0  0  0  0  0  0  0
    0.7355    0.6282   -2.2437 H   0  0  0  0  0  0  0  0  0  0  0  0
   -1.5023    0.7999   -1.2185 H   0  0  0  0  0  0  0  0  0  0  0  0
   -4.1506    3.3481    1.0853 H   0  0  0  0  0  0  0  0  0  0  0  0
   -5.7444    3.0525   -0.8242 H   0  0  0  0  0  0  0  0  0  0  0  0
   -5.7659    0.9051   -2.0219 H   0  0  0  0  0  0  0  0  0  0  0  0
  1  2  2  0
  2  3  1  0
  3  4  2  0
  4  5  1  0
  5  6  1  0
  6  7  2  0
  7  8  1  0
  8  9  1  0
  9 10  2  0
 10 11  1  0
 11 12  2  0
 12 13  1  0
 12 14  1  0
 14 15  2  0
 15 16  1  0
  7 17  1  0
 17 18  2  0
 18 19  1  0
 19 20  2  0
 20 21  1  0
 21 22  2  0
 22 23  1  0
 22 24  1  0
 24 25  2  0
 25 26  1  0
 26 27  2  0
 27 28  1  0
 20  2  1  0
 27 21  1  0
 19  5  1  0
 15  9  1  0
  4 29  1  0
 10 30  1  0
 11 31  1  0
 14 32  1  0
 17 33  1  0
 18 34  1  0
 24 35  1  0
 25 36  1  0
 26 37  1  0
M  END
$$$$
