@<TRIPOS>MOLECULE
*****
 37 40 0 0 0
SMALL
GASTEIGER

@<TRIPOS>ATOM
      1 O          -4.0370   -1.7260    2.0888 O.2     1  UNL1       -0.2651
      2 C          -2.8982   -1.7920    1.5503 C.ar    1  UNL1        0.2815
      3 N          -2.0068   -2.7550    1.8477 N.ar    1  UNL1       -0.1970
      4 C          -0.7875   -2.8451    1.2863 C.ar    1  UNL1        0.1220
      5 N          -0.4176   -1.9119    0.3583 N.ar    1  UNL1       -0.2198
      6 N           0.7984   -2.0101   -0.1949 N.ar    1  UNL1       -0.1584
      7 C           1.2556   -1.1370   -1.1209 C.ar    1  UNL1        0.1225
      8 S           2.8843   -1.2939   -1.8419 S.3     1  UNL1       -0.0653
      9 C           4.1132   -0.4065   -0.9115 C.ar    1  UNL1        0.0495
     10 C           4.8024   -1.0161    0.1177 C.ar    1  UNL1       -0.0425
     11 C           5.7559   -0.3108    0.8318 C.ar    1  UNL1       -0.0252
     12 C           6.0495    1.0069    0.5473 C.ar    1  UNL1        0.1262
     13 F           6.9932    1.6794    1.2658 F       1  UNL1       -0.2054
     14 C           5.3633    1.6200   -0.4804 C.ar    1  UNL1        0.0099
     15 C           4.4108    0.8986   -1.1859 C.ar    1  UNL1        0.1398
     16 F           3.7389    1.5024   -2.1938 F       1  UNL1       -0.2042
     17 C           0.4414   -0.1021   -1.5151 C.ar    1  UNL1       -0.0257
     18 C          -0.8083    0.0050   -0.9513 C.ar    1  UNL1       -0.0329
     19 C          -1.2493   -0.9171    0.0048 C.ar    1  UNL1        0.0802
     20 C          -2.4882   -0.8638    0.6054 C.ar    1  UNL1        0.0765
     21 C          -3.3769    0.2109    0.2184 C.ar    1  UNL1        0.0260
     22 C          -3.3558    1.4025    0.8931 C.ar    1  UNL1        0.0503
     23 CL         -2.2441    1.6807    2.2644 Cl      1  UNL1       -0.0829
     24 C          -4.2000    2.4329    0.5307 C.ar    1  UNL1       -0.0427
     25 C          -5.0723    2.2429   -0.5298 C.ar    1  UNL1       -0.0590
     26 C          -5.0789    1.0354   -1.1972 C.ar    1  UNL1       -0.0427
     27 C          -4.2333    0.0125   -0.8292 C.ar    1  UNL1        0.0503
     28 CL         -4.2755   -1.5336   -1.7209 Cl      1  UNL1       -0.0829
     29 H          -0.0765   -3.6183    1.5276 H       1  UNL1        0.1049
     30 H           4.5582   -2.0503    0.3261 H       1  UNL1        0.0630
     31 H           6.2743   -0.8233    1.6307 H       1  UNL1        0.0646
     32 H           5.5943    2.6490   -0.7007 H       1  UNL1        0.0675
     33 H           0.7355    0.6282   -2.2437 H       1  UNL1        0.0645
     34 H          -1.5023    0.7999   -1.2185 H       1  UNL1        0.0640
     35 H          -4.1506    3.3481    1.0853 H       1  UNL1        0.0632
     36 H          -5.7444    3.0525   -0.8242 H       1  UNL1        0.0618
     37 H          -5.7659    0.9051   -2.0219 H       1  UNL1        0.0632
@<TRIPOS>BOND
     1     1     2    2
     2     2     3   ar
     3     3     4   ar
     4     4     5   ar
     5     5     6   ar
     6     6     7   ar
     7     7     8    1
     8     8     9    1
     9     9    10   ar
    10    10    11   ar
    11    11    12   ar
    12    12    13    1
    13    12    14   ar
    14    14    15   ar
    15    15    16    1
    16     7    17   ar
    17    17    18   ar
    18    18    19   ar
    19    19    20   ar
    20    20    21    1
    21    21    22   ar
    22    22    23    1
    23    22    24   ar
    24    24    25   ar
    25    25    26   ar
    26    26    27   ar
    27    27    28    1
    28    20     2   ar
    29    27    21   ar
    30    19     5   ar
    31    15     9   ar
    32     4    29    1
    33    10    30    1
    34    11    31    1
    35    14    32    1
    36    17    33    1
    37    18    34    1
    38    24    35    1
    39    25    36    1
    40    26    37    1
