@<TRIPOS>MOLECULE
*****
 52 56 0 0 0
SMALL
GASTEIGER

@<TRIPOS>ATOM
      1 C          -0.6383   -4.5927    1.5460 C.3     1  UNL1        0.0365
      2 O          -0.5548   -3.9283    0.3027 O.3     1  UNL1       -0.3809
      3 C          -1.0498   -2.6672    0.4988 C.3     1  UNL1        0.0683
      4 C          -1.0421   -1.7966   -0.7323 C.3     1  UNL1        0.0621
      5 C          -1.8891   -2.4425   -1.8007 C.3     1  UNL1       -0.0180
      6 C          -1.6141   -3.7629   -2.3643 C.3     1  UNL1       -0.0479
      7 C          -1.2190   -2.5393   -3.1586 C.3     1  UNL1       -0.0479
      8 N          -1.6818   -0.5372   -0.3776 N.ar    1  UNL1       -0.3228
      9 C          -2.9914   -0.4212   -0.1322 C.ar    1  UNL1        0.0974
     10 N          -3.2494    0.8560    0.1608 N.ar    1  UNL1       -0.2351
     11 C          -2.1018    1.5261    0.0963 C.ar    1  UNL1        0.0982
     12 C          -1.8318    2.9431    0.3251 C.ar    1  UNL1        0.0027
     13 C          -2.4383    3.9190   -0.4286 C.ar    1  UNL1       -0.0498
     14 C          -2.1544    5.2294   -0.1800 C.ar    1  UNL1       -0.0258
     15 C          -1.2689    5.5553    0.8168 C.ar    1  UNL1        0.1234
     16 F          -0.9508    6.8489    1.1049 F       1  UNL1       -0.2055
     17 C          -0.6488    4.5710    1.5864 C.ar    1  UNL1       -0.0258
     18 C          -0.9344    3.2598    1.3361 C.ar    1  UNL1       -0.0498
     19 C          -1.1018    0.6455   -0.2455 C.ar    1  UNL1        0.0969
     20 C           0.3330    0.9193   -0.4329 C.ar    1  UNL1        0.1103
     21 C           0.7850    1.7725   -1.4166 C.ar    1  UNL1       -0.0290
     22 C           2.1505    2.0332   -1.5945 C.ar    1  UNL1       -0.0153
     23 C           2.9926    1.3765   -0.7182 C.ar    1  UNL1        0.1549
     24 N           4.3336    1.3996   -0.6116 N.ar    1  UNL1       -0.2339
     25 C           4.7315    0.5995    0.3934 C.ar    1  UNL1        0.0605
     26 C           3.5983    0.0402    0.9542 C.ar    1  UNL1        0.1470
     27 C           3.5410   -0.8897    2.0712 C.2     1  UNL1        0.2615
     28 N           4.7130   -1.3281    2.7260 N.am    1  UNL1       -0.3240
     29 O           2.4244   -1.3036    2.4517 O.2     1  UNL1       -0.2687
     30 N           2.5550    0.5440    0.2418 N.ar    1  UNL1       -0.2076
     31 N           1.2531    0.3320    0.3673 N.ar    1  UNL1       -0.1628
     32 H          -0.2351   -5.6199    1.3856 H       1  UNL1        0.0523
     33 H          -0.0471   -4.0326    2.3181 H       1  UNL1        0.0523
     34 H          -1.7158   -4.6181    1.8178 H       1  UNL1        0.0523
     35 H          -0.4262   -2.1902    1.3058 H       1  UNL1        0.0580
     36 H          -2.1216   -2.7198    0.8345 H       1  UNL1        0.0580
     37 H          -0.0031   -1.6226   -1.1033 H       1  UNL1        0.0554
     38 H          -2.9612   -2.1388   -1.7754 H       1  UNL1        0.0321
     39 H          -0.8415   -4.3979   -1.9386 H       1  UNL1        0.0269
     40 H          -2.4460   -4.3247   -2.8240 H       1  UNL1        0.0269
     41 H          -0.1287   -2.3844   -3.2221 H       1  UNL1        0.0269
     42 H          -1.7892   -2.2392   -4.0412 H       1  UNL1        0.0269
     43 H          -3.7608   -1.2006   -0.1532 H       1  UNL1        0.1029
     44 H          -3.1268    3.6632   -1.2029 H       1  UNL1        0.0625
     45 H          -2.6104    6.0076   -0.7487 H       1  UNL1        0.0646
     46 H           0.0430    4.8671    2.3622 H       1  UNL1        0.0646
     47 H          -0.4606    2.4962    1.9252 H       1  UNL1        0.0625
     48 H           0.0598    2.2440   -2.0580 H       1  UNL1        0.0641
     49 H           2.4840    2.6956   -2.3600 H       1  UNL1        0.0655
     50 H           5.7449    0.3961    0.7405 H       1  UNL1        0.0854
     51 H           4.7632   -2.3234    3.0076 H       1  UNL1        0.1453
     52 H           5.5290   -0.7194    2.9447 H       1  UNL1        0.1453
@<TRIPOS>BOND
     1     1     2    1
     2     2     3    1
     3     3     4    1
     4     4     5    1
     5     5     6    1
     6     6     7    1
     7     4     8    1
     8     8     9   ar
     9     9    10   ar
    10    10    11   ar
    11    11    12    1
    12    12    13   ar
    13    13    14   ar
    14    14    15   ar
    15    15    16    1
    16    15    17   ar
    17    17    18   ar
    18    11    19   ar
    19    19    20    1
    20    20    21   ar
    21    21    22   ar
    22    22    23   ar
    23    23    24   ar
    24    24    25   ar
    25    25    26   ar
    26    26    27    1
    27    27    28   am
    28    27    29    2
    29    26    30   ar
    30    30    31   ar
    31     7     5    1
    32    19     8   ar
    33    31    20   ar
    34    18    12   ar
    35    30    23   ar
    36     1    32    1
    37     1    33    1
    38     1    34    1
    39     3    35    1
    40     3    36    1
    41     4    37    1
    42     5    38    1
    43     6    39    1
    44     6    40    1
    45     7    41    1
    46     7    42    1
    47     9    43    1
    48    13    44    1
    49    14    45    1
    50    17    46    1
    51    18    47    1
    52    21    48    1
    53    22    49    1
    54    25    50    1
    55    28    51    1
    56    28    52    1
