@<TRIPOS>MOLECULE
*****
 48 51 0 0 0
SMALL
GASTEIGER

@<TRIPOS>ATOM
      1 C          -3.4950    0.1319   -4.0294 C.3     1  UNL1        0.0001
      2 N          -3.6968   -0.8815   -2.9827 N.am    1  UNL1       -0.3162
      3 C          -2.6685   -1.1148   -2.0288 C.2     1  UNL1        0.2444
      4 O          -1.7052   -0.3330   -2.3003 O.2     1  UNL1       -0.2729
      5 C          -3.0363   -2.1621   -1.0528 C.3     1  UNL1        0.1650
      6 O          -2.0741   -2.4246   -0.1031 O.3     1  UNL1       -0.3387
      7 C          -2.3966   -1.6787    1.0205 C.3     1  UNL1        0.1672
      8 C          -3.8542   -1.3669    0.9939 C.3     1  UNL1        0.1290
      9 O          -4.4781   -2.0198    2.0806 O.3     1  UNL1       -0.3846
     10 C          -4.3027   -1.9271   -0.3162 C.3     1  UNL1        0.1199
     11 O          -4.8780   -3.1855   -0.0445 O.3     1  UNL1       -0.3860
     12 N          -1.5632   -0.4714    1.0143 N.ar    1  UNL1       -0.2855
     13 C          -1.8627    0.7988    0.7367 C.ar    1  UNL1        0.1004
     14 N          -0.7583    1.5505    0.8692 N.ar    1  UNL1       -0.2306
     15 C           0.2285    0.7003    1.2371 C.ar    1  UNL1        0.1475
     16 C           1.5670    0.9866    1.5004 C.ar    1  UNL1        0.1500
     17 N           2.0901    2.3015    1.4078 N.pl3   1  UNL1       -0.3231
     18 C           3.4322    2.7646    1.6425 C.3     1  UNL1        0.0358
     19 C           4.3889    2.1216    0.7094 C.ar    1  UNL1       -0.0294
     20 C           5.1402    0.9769    0.8624 C.ar    1  UNL1       -0.0439
     21 C           5.9670    0.5653   -0.1629 C.ar    1  UNL1        0.0137
     22 I           7.0334   -1.2159    0.2735 I       1  UNL1       -0.0438
     23 C           6.0832    1.2508   -1.3525 C.ar    1  UNL1       -0.0486
     24 C           5.3305    2.3985   -1.5062 C.ar    1  UNL1       -0.0605
     25 C           4.4979    2.8190   -0.4826 C.ar    1  UNL1       -0.0570
     26 N           2.2983   -0.0838    1.8454 N.ar    1  UNL1       -0.2186
     27 C           1.8508   -1.3325    1.9465 C.ar    1  UNL1        0.1205
     28 N           0.5677   -1.6135    1.6952 N.ar    1  UNL1       -0.2159
     29 C          -0.2420   -0.5827    1.3385 C.ar    1  UNL1        0.1674
     30 H          -4.1556   -0.0401   -4.8882 H       1  UNL1        0.0426
     31 H          -2.4404   -0.0177   -4.4056 H       1  UNL1        0.0426
     32 H          -3.5306    1.1514   -3.6053 H       1  UNL1        0.0426
     33 H          -4.6313   -1.3789   -3.0233 H       1  UNL1        0.1484
     34 H          -3.1501   -3.1016   -1.6623 H       1  UNL1        0.0721
     35 H          -2.1419   -2.3059    1.9254 H       1  UNL1        0.0867
     36 H          -4.1232   -0.3080    1.0925 H       1  UNL1        0.0666
     37 H          -5.3798   -2.3380    1.8323 H       1  UNL1        0.2101
     38 H          -5.0490   -1.3225   -0.8539 H       1  UNL1        0.0652
     39 H          -4.3367   -3.6731    0.6500 H       1  UNL1        0.2100
     40 H          -2.8474    1.1429    0.4520 H       1  UNL1        0.1030
     41 H           1.3910    3.0496    1.1247 H       1  UNL1        0.1479
     42 H           3.5075    3.8535    1.6205 H       1  UNL1        0.0511
     43 H           3.6957    2.4491    2.6925 H       1  UNL1        0.0511
     44 H           5.0094    0.4980    1.8008 H       1  UNL1        0.0631
     45 H           6.7650    0.8360   -2.0918 H       1  UNL1        0.0628
     46 H           5.4536    2.9039   -2.4556 H       1  UNL1        0.0618
     47 H           3.9712    3.7296   -0.7415 H       1  UNL1        0.0621
     48 H           2.5286   -2.1006    2.2295 H       1  UNL1        0.1048
@<TRIPOS>BOND
     1     1     2    1
     2     2     3   am
     3     3     4    2
     4     3     5    1
     5     5     6    1
     6     6     7    1
     7     7     8    1
     8     8     9    1
     9     8    10    1
    10    10    11    1
    11     7    12    1
    12    12    13   ar
    13    13    14   ar
    14    14    15   ar
    15    15    16   ar
    16    16    17    1
    17    17    18    1
    18    18    19    1
    19    19    20   ar
    20    20    21   ar
    21    21    22    1
    22    21    23   ar
    23    23    24   ar
    24    24    25   ar
    25    16    26   ar
    26    26    27   ar
    27    27    28   ar
    28    28    29   ar
    29    10     5    1
    30    29    12   ar
    31    29    15   ar
    32    25    19   ar
    33     1    30    1
    34     1    31    1
    35     1    32    1
    36     2    33    1
    37     5    34    1
    38     7    35    1
    39     8    36    1
    40     9    37    1
    41    10    38    1
    42    11    39    1
    43    13    40    1
    44    17    41    1
    45    18    42    1
    46    18    43    1
    47    20    44    1
    48    23    45    1
    49    24    46    1
    50    25    47    1
    51    27    48    1
