@<TRIPOS>MOLECULE
*****
 49 52 0 0 0
SMALL
GASTEIGER

@<TRIPOS>ATOM
      1 C          -1.7530    0.4496    0.7833 C.3     1  UNL1       -0.0286
      2 C          -2.7855   -0.0928    1.6879 C.3     1  UNL1       -0.0458
      3 C          -4.0087    0.6172    1.0861 C.3     1  UNL1       -0.0118
      4 C          -3.7702    0.3637   -0.4087 C.3     1  UNL1        0.1317
      5 O          -4.4459   -0.8552   -0.6509 O.3     1  UNL1       -0.3760
      6 C          -4.3496    1.3848   -1.2466 C.1     1  UNL1       -0.0704
      7 C          -4.8424    2.2132   -1.9417 C.1     1  UNL1       -0.1163
      8 C          -2.3236    0.1256   -0.5969 C.3     1  UNL1        0.0111
      9 C          -2.0252   -1.2726   -1.0411 C.3     1  UNL1       -0.0558
     10 C          -1.6272    1.0766   -1.5249 C.3     1  UNL1       -0.0433
     11 C          -0.1513    0.9293   -1.4600 C.3     1  UNL1       -0.0453
     12 C           0.4219    0.7934   -0.0938 C.3     1  UNL1       -0.0125
     13 C           1.7895    0.2542   -0.1200 C.ar    1  UNL1       -0.0406
     14 C           2.2885   -0.6721    0.7816 C.ar    1  UNL1       -0.0405
     15 C           1.4595   -1.2206    1.8908 C.3     1  UNL1       -0.0270
     16 C           0.2525   -0.3041    2.1231 C.3     1  UNL1       -0.0454
     17 C          -0.4039   -0.1485    0.7970 C.3     1  UNL1       -0.0305
     18 C           3.5953   -1.1361    0.6927 C.ar    1  UNL1       -0.0165
     19 C           4.4524   -0.6842   -0.3102 C.ar    1  UNL1        0.1204
     20 O           5.7307   -1.2059   -0.3126 O.3     1  UNL1       -0.4951
     21 C           6.6870   -0.8339   -1.2665 C.3     1  UNL1        0.0788
     22 C           3.9319    0.2373   -1.1949 C.ar    1  UNL1       -0.0197
     23 C           2.6484    0.7058   -1.1234 C.ar    1  UNL1       -0.0546
     24 H          -1.6957    1.5468    0.8938 H       1  UNL1        0.0310
     25 H          -2.9257   -1.1720    1.6117 H       1  UNL1        0.0269
     26 H          -2.5996    0.2376    2.7278 H       1  UNL1        0.0269
     27 H          -3.8312    1.6927    1.2239 H       1  UNL1        0.0303
     28 H          -4.9557    0.2253    1.4488 H       1  UNL1        0.0303
     29 H          -5.3270   -0.8658   -0.1770 H       1  UNL1        0.2114
     30 H          -5.2933    2.9407   -2.5711 H       1  UNL1        0.1229
     31 H          -1.0756   -1.3707   -1.6244 H       1  UNL1        0.0236
     32 H          -2.0952   -2.0425   -0.2617 H       1  UNL1        0.0236
     33 H          -2.8206   -1.5530   -1.7922 H       1  UNL1        0.0236
     34 H          -1.9396    2.1401   -1.3628 H       1  UNL1        0.0272
     35 H          -1.9515    0.8244   -2.5634 H       1  UNL1        0.0272
     36 H           0.2557    0.1418   -2.1273 H       1  UNL1        0.0271
     37 H           0.2783    1.8852   -1.8829 H       1  UNL1        0.0271
     38 H           0.4385    1.8185    0.3789 H       1  UNL1        0.0352
     39 H           2.0337   -1.3058    2.8503 H       1  UNL1        0.0313
     40 H           1.0799   -2.2179    1.5778 H       1  UNL1        0.0313
     41 H          -0.4284   -0.9063    2.7663 H       1  UNL1        0.0271
     42 H           0.5791    0.6465    2.5787 H       1  UNL1        0.0271
     43 H          -0.3421   -1.1374    0.2660 H       1  UNL1        0.0310
     44 H           3.9605   -1.8716    1.4245 H       1  UNL1        0.0657
     45 H           7.3774   -0.1058   -0.7815 H       1  UNL1        0.0660
     46 H           6.2940   -0.5255   -2.2359 H       1  UNL1        0.0660
     47 H           7.2864   -1.7694   -1.4688 H       1  UNL1        0.0660
     48 H           4.6024    0.5832   -1.9699 H       1  UNL1        0.0654
     49 H           2.3242    1.4363   -1.8699 H       1  UNL1        0.0622
@<TRIPOS>BOND
     1     1     2    1
     2     2     3    1
     3     3     4    1
     4     4     5    1
     5     4     6    1
     6     6     7    3
     7     4     8    1
     8     8     9    1
     9     8    10    1
    10    10    11    1
    11    11    12    1
    12    12    13    1
    13    13    14   ar
    14    14    15    1
    15    15    16    1
    16    16    17    1
    17    14    18   ar
    18    18    19   ar
    19    19    20    1
    20    20    21    1
    21    19    22   ar
    22    22    23   ar
    23     8     1    1
    24    17    12    1
    25    17     1    1
    26    23    13   ar
    27     1    24    1
    28     2    25    1
    29     2    26    1
    30     3    27    1
    31     3    28    1
    32     5    29    1
    33     7    30    1
    34     9    31    1
    35     9    32    1
    36     9    33    1
    37    10    34    1
    38    10    35    1
    39    11    36    1
    40    11    37    1
    41    12    38    1
    42    15    39    1
    43    15    40    1
    44    16    41    1
    45    16    42    1
    46    17    43    1
    47    18    44    1
    48    21    45    1
    49    21    46    1
    50    21    47    1
    51    22    48    1
    52    23    49    1
