
     RDKit          3D

 41 44  0  0  0  0  0  0  0  0999 V2000
    7.5217    0.5024   -0.7307 C   0  0  0  0  0  0  0  0  0  0  0  0
    6.4015    1.2916   -0.9601 O   0  0  0  0  0  0  0  0  0  0  0  0
    5.1110    0.9976   -0.6607 C   0  0  0  0  0  0  0  0  0  0  0  0
    4.1103    1.8932   -0.9549 C   0  0  0  0  0  0  0  0  0  0  0  0
    2.7815    1.6039   -0.6529 C   0  0  0  0  0  0  0  0  0  0  0  0
    2.4417    0.3944   -0.0437 C   0  0  0  0  0  0  0  0  0  0  0  0
    1.0905    0.0906    0.2679 N   0  0  0  0  0  0  0  0  0  0  0  0
    0.0858    0.3495   -0.5808 C   0  0  0  0  0  0  0  0  0  0  0  0
   -1.1888    0.0851   -0.3362 N   0  0  0  0  0  0  0  0  0  0  0  0
   -1.6328   -0.4922    0.8301 C   0  0  0  0  0  0  0  0  0  0  0  0
   -0.5930   -0.7603    1.7082 C   0  0  0  0  0  0  0  0  0  0  0  0
   -1.3926   -1.4939    3.1107 S   0  0  0  0  0  0  0  0  0  0  0  0
   -3.0863   -1.3970    2.4310 C   0  0  0  0  0  0  0  0  0  0  0  0
   -4.2349   -1.7911    2.9748 N   0  0  0  0  0  0  0  0  0  0  0  0
   -5.3832   -1.6320    2.2944 C   0  0  0  0  0  0  0  0  0  0  0  0
   -5.2619   -1.0505    1.0432 C   0  0  0  0  0  0  0  0  0  0  0  0
   -4.0769   -0.6472    0.4905 C   0  0  0  0  0  0  0  0  0  0  0  0
   -4.1060   -0.0514   -0.7816 N   0  0  0  0  0  0  0  0  0  0  0  0
   -3.7838    1.3576   -0.8978 C   0  0  0  0  0  0  0  0  0  0  0  0
   -4.4396   -0.7506   -2.0088 C   0  0  0  0  0  0  0  0  0  0  0  0
   -2.8728   -0.8237    1.2234 C   0  0  0  0  0  0  0  0  0  0  0  0
    0.7327   -0.4787    1.4394 C   0  0  0  0  0  0  0  0  0  0  0  0
    1.5868   -0.7586    2.2941 O   0  0  0  0  0  0  0  0  0  0  0  0
    3.4641   -0.4779    0.2369 C   0  0  0  0  0  0  0  0  0  0  0  0
    4.7642   -0.1848   -0.0633 C   0  0  0  0  0  0  0  0  0  0  0  0
    7.3409   -0.5644   -0.6096 H   0  0  0  0  0  0  0  0  0  0  0  0
    8.0120    0.8926    0.2090 H   0  0  0  0  0  0  0  0  0  0  0  0
    8.2845    0.6222   -1.5268 H   0  0  0  0  0  0  0  0  0  0  0  0
    4.3836    2.8280   -1.4271 H   0  0  0  0  0  0  0  0  0  0  0  0
    2.0157    2.3269   -0.8957 H   0  0  0  0  0  0  0  0  0  0  0  0
    0.3346    0.8125   -1.5453 H   0  0  0  0  0  0  0  0  0  0  0  0
   -6.3212   -1.9409    2.7091 H   0  0  0  0  0  0  0  0  0  0  0  0
   -6.1700   -0.9075    0.4670 H   0  0  0  0  0  0  0  0  0  0  0  0
   -4.6978    1.9651   -1.1052 H   0  0  0  0  0  0  0  0  0  0  0  0
   -3.1108    1.4814   -1.7624 H   0  0  0  0  0  0  0  0  0  0  0  0
   -3.3357    1.8008   -0.0039 H   0  0  0  0  0  0  0  0  0  0  0  0
   -5.4199   -0.4055   -2.3993 H   0  0  0  0  0  0  0  0  0  0  0  0
   -4.3643   -1.8431   -1.9220 H   0  0  0  0  0  0  0  0  0  0  0  0
   -3.6876   -0.4012   -2.7719 H   0  0  0  0  0  0  0  0  0  0  0  0
    3.1885   -1.4148    0.7104 H   0  0  0  0  0  0  0  0  0  0  0  0
    5.5085   -0.9475    0.2008 H   0  0  0  0  0  0  0  0  0  0  0  0
  1  2  1  0
  2  3  1  0
  3  4  2  0
  4  5  1  0
  5  6  2  0
  6  7  1  0
  7  8  1  0
  8  9  2  0
  9 10  1  0
 10 11  2  0
 11 12  1  0
 12 13  1  0
 13 14  2  0
 14 15  1  0
 15 16  2  0
 16 17  1  0
 17 18  1  0
 18 19  1  0
 18 20  1  0
 17 21  2  0
 11 22  1  0
 22 23  2  0
  6 24  1  0
 24 25  2  0
 25  3  1  0
 22  7  1  0
 21 10  1  0
 21 13  1  0
  1 26  1  0
  1 27  1  0
  1 28  1  0
  4 29  1  0
  5 30  1  0
  8 31  1  0
 15 32  1  0
 16 33  1  0
 19 34  1  0
 19 35  1  0
 19 36  1  0
 20 37  1  0
 20 38  1  0
 20 39  1  0
 24 40  1  0
 25 41  1  0
M  END
$$$$
