@<TRIPOS>MOLECULE
*****
 41 44 0 0 0
SMALL
GASTEIGER

@<TRIPOS>ATOM
      1 C           7.5217    0.5024   -0.7307 C.3     1  UNL1        0.0788
      2 O           6.4015    1.2916   -0.9601 O.3     1  UNL1       -0.4951
      3 C           5.1110    0.9976   -0.6607 C.ar    1  UNL1        0.1202
      4 C           4.1103    1.8932   -0.9549 C.ar    1  UNL1       -0.0180
      5 C           2.7815    1.6039   -0.6529 C.ar    1  UNL1       -0.0343
      6 C           2.4417    0.3944   -0.0437 C.ar    1  UNL1        0.0511
      7 N           1.0905    0.0906    0.2679 N.ar    1  UNL1       -0.2666
      8 C           0.0858    0.3495   -0.5808 C.ar    1  UNL1        0.1039
      9 N          -1.1888    0.0851   -0.3362 N.ar    1  UNL1       -0.2353
     10 C          -1.6328   -0.4922    0.8301 C.ar    1  UNL1        0.0960
     11 C          -0.5930   -0.7603    1.7082 C.ar    1  UNL1        0.1050
     12 S          -1.3926   -1.4939    3.1107 S.2     1  UNL1       -0.0617
     13 C          -3.0863   -1.3970    2.4310 C.ar    1  UNL1        0.1127
     14 N          -4.2349   -1.7911    2.9748 N.ar    1  UNL1       -0.2476
     15 C          -5.3832   -1.6320    2.2944 C.ar    1  UNL1        0.0306
     16 C          -5.2619   -1.0505    1.0432 C.ar    1  UNL1       -0.0218
     17 C          -4.0769   -0.6472    0.4905 C.ar    1  UNL1        0.0425
     18 N          -4.1060   -0.0514   -0.7816 N.pl3   1  UNL1       -0.3354
     19 C          -3.7838    1.3576   -0.8978 C.3     1  UNL1        0.0004
     20 C          -4.4396   -0.7506   -2.0088 C.3     1  UNL1        0.0004
     21 C          -2.8728   -0.8237    1.2234 C.ar    1  UNL1        0.0548
     22 C           0.7327   -0.4787    1.4394 C.ar    1  UNL1        0.2728
     23 O           1.5868   -0.7586    2.2941 O.2     1  UNL1       -0.2660
     24 C           3.4641   -0.4779    0.2369 C.ar    1  UNL1       -0.0343
     25 C           4.7642   -0.1848   -0.0633 C.ar    1  UNL1       -0.0180
     26 H           7.3409   -0.5644   -0.6096 H       1  UNL1        0.0660
     27 H           8.0120    0.8926    0.2090 H       1  UNL1        0.0660
     28 H           8.2845    0.6222   -1.5268 H       1  UNL1        0.0660
     29 H           4.3836    2.8280   -1.4271 H       1  UNL1        0.0655
     30 H           2.0157    2.3269   -0.8957 H       1  UNL1        0.0639
     31 H           0.3346    0.8125   -1.5453 H       1  UNL1        0.1033
     32 H          -6.3212   -1.9409    2.7091 H       1  UNL1        0.0830
     33 H          -6.1700   -0.9075    0.4670 H       1  UNL1        0.0651
     34 H          -4.6978    1.9651   -1.1052 H       1  UNL1        0.0428
     35 H          -3.1108    1.4814   -1.7624 H       1  UNL1        0.0428
     36 H          -3.3357    1.8008   -0.0039 H       1  UNL1        0.0428
     37 H          -5.4199   -0.4055   -2.3993 H       1  UNL1        0.0428
     38 H          -4.3643   -1.8431   -1.9220 H       1  UNL1        0.0428
     39 H          -3.6876   -0.4012   -2.7719 H       1  UNL1        0.0428
     40 H           3.1885   -1.4148    0.7104 H       1  UNL1        0.0639
     41 H           5.5085   -0.9475    0.2008 H       1  UNL1        0.0655
@<TRIPOS>BOND
     1     1     2    1
     2     2     3    1
     3     3     4   ar
     4     4     5   ar
     5     5     6   ar
     6     6     7    1
     7     7     8   ar
     8     8     9   ar
     9     9    10   ar
    10    10    11   ar
    11    11    12   ar
    12    12    13   ar
    13    13    14   ar
    14    14    15   ar
    15    15    16   ar
    16    16    17   ar
    17    17    18    1
    18    18    19    1
    19    18    20    1
    20    17    21   ar
    21    11    22   ar
    22    22    23    2
    23     6    24   ar
    24    24    25   ar
    25    25     3   ar
    26    22     7   ar
    27    21    10   ar
    28    21    13   ar
    29     1    26    1
    30     1    27    1
    31     1    28    1
    32     4    29    1
    33     5    30    1
    34     8    31    1
    35    15    32    1
    36    16    33    1
    37    19    34    1
    38    19    35    1
    39    19    36    1
    40    20    37    1
    41    20    38    1
    42    20    39    1
    43    24    40    1
    44    25    41    1
