
     RDKit          3D

 47 50  0  0  0  0  0  0  0  0999 V2000
    7.0381   -3.0168   -0.4766 N   0  0  0  0  0  0  0  0  0  0  0  0
    7.2734   -1.4038    0.1366 S   0  0  0  0  0  0  0  0  0  0  0  0
    8.0369   -0.6230   -0.8850 O   0  0  0  0  0  0  0  0  0  0  0  0
    8.0252   -1.4542    1.4411 O   0  0  0  0  0  0  0  0  0  0  0  0
    5.6730   -0.7073    0.3655 C   0  0  0  0  0  0  0  0  0  0  0  0
    4.9824   -0.2093   -0.7330 C   0  0  0  0  0  0  0  0  0  0  0  0
    3.7510    0.3289   -0.4401 C   0  0  0  0  0  0  0  0  0  0  0  0
    3.1999    0.3950    0.8177 C   0  0  0  0  0  0  0  0  0  0  0  0
    1.9323    0.9471    1.1235 N   0  0  0  0  0  0  0  0  0  0  0  0
    0.7486    1.2940    0.4270 C   0  0  0  0  0  0  0  0  0  0  0  0
   -0.4424    0.5894    0.6299 C   0  0  0  0  0  0  0  0  0  0  0  0
   -1.6633    0.8403   -0.0106 C   0  0  0  0  0  0  0  0  0  0  0  0
   -2.6506   -0.0253    0.4052 O   0  0  0  0  0  0  0  0  0  0  0  0
   -3.9544    0.0110   -0.0853 C   0  0  0  0  0  0  0  0  0  0  0  0
   -4.3260   -1.3224   -0.6679 C   0  0  0  0  0  0  0  0  0  0  0  0
   -5.3200   -2.0237    0.1965 C   0  0  0  0  0  0  0  0  0  0  0  0
   -6.6252   -1.2680    0.3093 C   0  0  0  0  0  0  0  0  0  0  0  0
   -6.3328    0.2177    0.4713 C   0  0  0  0  0  0  0  0  0  0  0  0
   -4.9357    0.3528    1.0262 C   0  0  0  0  0  0  0  0  0  0  0  0
   -1.6132    1.8581   -0.8810 N   0  0  0  0  0  0  0  0  0  0  0  0
   -0.5022    2.5700   -1.1171 C   0  0  0  0  0  0  0  0  0  0  0  0
   -0.2941    3.5986   -1.9408 N   0  0  0  0  0  0  0  0  0  0  0  0
    0.9953    3.9472   -1.7994 C   0  0  0  0  0  0  0  0  0  0  0  0
    1.6184    3.1524   -0.8923 N   0  0  0  0  0  0  0  0  0  0  0  0
    0.6637    2.3090   -0.4863 N   0  0  0  0  0  0  0  0  0  0  0  0
    3.9077   -0.1070    1.8893 C   0  0  0  0  0  0  0  0  0  0  0  0
    5.1462   -0.6557    1.6416 C   0  0  0  0  0  0  0  0  0  0  0  0
    7.7488   -3.6142   -0.0194 H   0  0  0  0  0  0  0  0  0  0  0  0
    7.1086   -3.0252   -1.5203 H   0  0  0  0  0  0  0  0  0  0  0  0
    5.3907   -0.2471   -1.7327 H   0  0  0  0  0  0  0  0  0  0  0  0
    3.1408    0.7445   -1.2530 H   0  0  0  0  0  0  0  0  0  0  0  0
    1.6569    1.2215    2.0850 H   0  0  0  0  0  0  0  0  0  0  0  0
   -0.3238   -0.2038    1.3597 H   0  0  0  0  0  0  0  0  0  0  0  0
   -3.9823    0.7660   -0.8907 H   0  0  0  0  0  0  0  0  0  0  0  0
   -3.4122   -1.9814   -0.7228 H   0  0  0  0  0  0  0  0  0  0  0  0
   -4.6748   -1.1984   -1.7144 H   0  0  0  0  0  0  0  0  0  0  0  0
   -5.5543   -3.0302   -0.2139 H   0  0  0  0  0  0  0  0  0  0  0  0
   -4.9234   -2.1636    1.2157 H   0  0  0  0  0  0  0  0  0  0  0  0
   -7.3232   -1.4407   -0.5077 H   0  0  0  0  0  0  0  0  0  0  0  0
   -7.0970   -1.5841    1.2786 H   0  0  0  0  0  0  0  0  0  0  0  0
   -7.0253    0.6955    1.1917 H   0  0  0  0  0  0  0  0  0  0  0  0
   -6.3277    0.7099   -0.5230 H   0  0  0  0  0  0  0  0  0  0  0  0
   -4.8370    1.4361    1.3097 H   0  0  0  0  0  0  0  0  0  0  0  0
   -4.7531   -0.2695    1.9026 H   0  0  0  0  0  0  0  0  0  0  0  0
    1.6113    4.7276   -2.2648 H   0  0  0  0  0  0  0  0  0  0  0  0
    3.5444   -0.0924    2.9009 H   0  0  0  0  0  0  0  0  0  0  0  0
    5.7007   -1.0455    2.4760 H   0  0  0  0  0  0  0  0  0  0  0  0
  1  2  1  0
  2  3  2  0
  2  4  2  0
  2  5  1  0
  5  6  2  0
  6  7  1  0
  7  8  2  0
  8  9  1  0
  9 10  1  0
 10 11  2  0
 11 12  1  0
 12 13  1  0
 13 14  1  0
 14 15  1  0
 15 16  1  0
 16 17  1  0
 17 18  1  0
 18 19  1  0
 12 20  2  0
 20 21  1  0
 21 22  2  0
 22 23  1  0
 23 24  2  0
 24 25  1  0
  8 26  1  0
 26 27  2  0
 27  5  1  0
 25 10  1  0
 19 14  1  0
 25 21  1  0
  1 28  1  0
  1 29  1  0
  6 30  1  0
  7 31  1  0
  9 32  1  0
 11 33  1  0
 14 34  1  0
 15 35  1  0
 15 36  1  0
 16 37  1  0
 16 38  1  0
 17 39  1  0
 17 40  1  0
 18 41  1  0
 18 42  1  0
 19 43  1  0
 19 44  1  0
 23 45  1  0
 26 46  1  0
 27 47  1  0
M  END
$$$$
