@<TRIPOS>MOLECULE
*****
 47 50 0 0 0
SMALL
GASTEIGER

@<TRIPOS>ATOM
      1 N           7.0381   -3.0168   -0.4766 N.3     1  UNL1       -0.2035
      2 S           7.2734   -1.4038    0.1366 S.O2    1  UNL1        0.0559
      3 O           8.0369   -0.6230   -0.8850 O.2     1  UNL1       -0.1533
      4 O           8.0252   -1.4542    1.4411 O.2     1  UNL1       -0.1533
      5 C           5.6730   -0.7073    0.3655 C.ar    1  UNL1        0.1051
      6 C           4.9824   -0.2093   -0.7330 C.ar    1  UNL1       -0.0336
      7 C           3.7510    0.3289   -0.4401 C.ar    1  UNL1       -0.0387
      8 C           3.1999    0.3950    0.8177 C.ar    1  UNL1        0.0325
      9 N           1.9323    0.9471    1.1235 N.pl3   1  UNL1       -0.2992
     10 C           0.7486    1.2940    0.4270 C.ar    1  UNL1        0.1333
     11 C          -0.4424    0.5894    0.6299 C.ar    1  UNL1        0.0402
     12 C          -1.6633    0.8403   -0.0106 C.ar    1  UNL1        0.2214
     13 O          -2.6506   -0.0253    0.4052 O.3     1  UNL1       -0.4729
     14 C          -3.9544    0.0110   -0.0853 C.3     1  UNL1        0.1018
     15 C          -4.3260   -1.3224   -0.6679 C.3     1  UNL1       -0.0157
     16 C          -5.3200   -2.0237    0.1965 C.3     1  UNL1       -0.0497
     17 C          -6.6252   -1.2680    0.3093 C.3     1  UNL1       -0.0528
     18 C          -6.3328    0.2177    0.4713 C.3     1  UNL1       -0.0497
     19 C          -4.9357    0.3528    1.0262 C.3     1  UNL1       -0.0157
     20 N          -1.6132    1.8581   -0.8810 N.ar    1  UNL1       -0.1754
     21 C          -0.5022    2.5700   -1.1171 C.ar    1  UNL1        0.2576
     22 N          -0.2941    3.5986   -1.9408 N.ar    1  UNL1       -0.1973
     23 C           0.9953    3.9472   -1.7994 C.ar    1  UNL1        0.1406
     24 N           1.6184    3.1524   -0.8923 N.ar    1  UNL1       -0.1506
     25 N           0.6637    2.3090   -0.4863 N.ar    1  UNL1       -0.1821
     26 C           3.9077   -0.1070    1.8893 C.ar    1  UNL1       -0.0387
     27 C           5.1462   -0.6557    1.6416 C.ar    1  UNL1       -0.0336
     28 H           7.7488   -3.6142   -0.0194 H       1  UNL1        0.1442
     29 H           7.1086   -3.0252   -1.5203 H       1  UNL1        0.1442
     30 H           5.3907   -0.2471   -1.7327 H       1  UNL1        0.0638
     31 H           3.1408    0.7445   -1.2530 H       1  UNL1        0.0637
     32 H           1.6569    1.2215    2.0850 H       1  UNL1        0.1536
     33 H          -0.3238   -0.2038    1.3597 H       1  UNL1        0.0705
     34 H          -3.9823    0.7660   -0.8907 H       1  UNL1        0.0733
     35 H          -3.4122   -1.9814   -0.7228 H       1  UNL1        0.0301
     36 H          -4.6748   -1.1984   -1.7144 H       1  UNL1        0.0301
     37 H          -5.5543   -3.0302   -0.2139 H       1  UNL1        0.0266
     38 H          -4.9234   -2.1636    1.2157 H       1  UNL1        0.0266
     39 H          -7.3232   -1.4407   -0.5077 H       1  UNL1        0.0265
     40 H          -7.0970   -1.5841    1.2786 H       1  UNL1        0.0265
     41 H          -7.0253    0.6955    1.1917 H       1  UNL1        0.0266
     42 H          -6.3277    0.7099   -0.5230 H       1  UNL1        0.0266
     43 H          -4.8370    1.4361    1.3097 H       1  UNL1        0.0301
     44 H          -4.7531   -0.2695    1.9026 H       1  UNL1        0.0301
     45 H           1.6113    4.7276   -2.2648 H       1  UNL1        0.1066
     46 H           3.5444   -0.0924    2.9009 H       1  UNL1        0.0637
     47 H           5.7007   -1.0455    2.4760 H       1  UNL1        0.0638
@<TRIPOS>BOND
     1     1     2    1
     2     2     3    2
     3     2     4    2
     4     2     5    1
     5     5     6   ar
     6     6     7   ar
     7     7     8   ar
     8     8     9    1
     9     9    10    1
    10    10    11   ar
    11    11    12   ar
    12    12    13    1
    13    13    14    1
    14    14    15    1
    15    15    16    1
    16    16    17    1
    17    17    18    1
    18    18    19    1
    19    12    20   ar
    20    20    21   ar
    21    21    22   ar
    22    22    23   ar
    23    23    24   ar
    24    24    25   ar
    25     8    26   ar
    26    26    27   ar
    27    27     5   ar
    28    25    10   ar
    29    19    14    1
    30    25    21   ar
    31     1    28    1
    32     1    29    1
    33     6    30    1
    34     7    31    1
    35     9    32    1
    36    11    33    1
    37    14    34    1
    38    15    35    1
    39    15    36    1
    40    16    37    1
    41    16    38    1
    42    17    39    1
    43    17    40    1
    44    18    41    1
    45    18    42    1
    46    19    43    1
    47    19    44    1
    48    23    45    1
    49    26    46    1
    50    27    47    1
