@<TRIPOS>MOLECULE
*****
 48 50 0 0 0
SMALL
GASTEIGER

@<TRIPOS>ATOM
      1 C           4.6853    0.4570    1.3781 C.3     1  UNL1       -0.0130
      2 N           3.3999   -0.2272    1.6197 N.3     1  UNL1       -0.3081
      3 C           3.4510   -1.4940    0.9565 C.3     1  UNL1       -0.0130
      4 C           2.3787    0.6715    1.2051 C.3     1  UNL1        0.0018
      5 C           0.9660    0.3059    1.3573 C.3     1  UNL1       -0.0211
      6 C           0.3819   -0.8622    0.7108 C.2     1  UNL1       -0.0744
      7 C          -0.7699   -0.8772   -0.0049 C.2     1  UNL1       -0.0108
      8 C          -1.1932   -2.1750   -0.5774 C.ar    1  UNL1       -0.0111
      9 C          -0.0973   -2.9003   -0.9652 C.ar    1  UNL1       -0.0537
     10 C          -0.4296   -4.1401   -1.4714 C.ar    1  UNL1       -0.0612
     11 C          -1.7666   -4.5453   -1.5506 C.ar    1  UNL1       -0.0614
     12 C          -2.8223   -3.7322   -1.1294 C.ar    1  UNL1       -0.0548
     13 C          -2.5690   -2.4674   -0.6065 C.ar    1  UNL1       -0.0027
     14 C          -3.8246   -1.8082   -0.2414 C.3     1  UNL1        0.1152
     15 O          -3.7635   -0.5404    0.3399 O.3     1  UNL1       -0.4867
     16 C          -2.8496    0.5240    0.1298 C.ar    1  UNL1        0.1287
     17 C          -1.4855    0.4236   -0.0758 C.ar    1  UNL1        0.0244
     18 C          -0.5427    1.4067   -0.2957 C.ar    1  UNL1       -0.0468
     19 C          -1.1010    2.6846   -0.2939 C.ar    1  UNL1       -0.0360
     20 C          -0.2277    3.8570   -0.5103 C.3     1  UNL1        0.0699
     21 C          -0.0621    4.2654   -1.9029 C.2     1  UNL1        0.3091
     22 O           0.7314    5.3427   -2.1758 O.3     1  UNL1       -0.4804
     23 O          -0.6551    3.6165   -2.8324 O.2     1  UNL1       -0.2507
     24 C          -2.4781    2.8627   -0.0884 C.ar    1  UNL1       -0.0546
     25 C          -3.3425    1.8028    0.1195 C.ar    1  UNL1       -0.0190
     26 H           5.0084    1.0260    2.2474 H       1  UNL1        0.0391
     27 H           5.4389   -0.2831    1.0409 H       1  UNL1        0.0391
     28 H           4.5739    1.1878    0.5364 H       1  UNL1        0.0391
     29 H           4.5451   -1.7776    0.8553 H       1  UNL1        0.0391
     30 H           3.0545   -2.3081    1.6240 H       1  UNL1        0.0391
     31 H           3.0750   -1.5274   -0.0669 H       1  UNL1        0.0391
     32 H           2.5468    1.5908    1.8479 H       1  UNL1        0.0429
     33 H           2.6767    1.0042    0.1783 H       1  UNL1        0.0429
     34 H           1.0507   -0.1971    2.3937 H       1  UNL1        0.0320
     35 H           0.2592    1.0409    1.7979 H       1  UNL1        0.0320
     36 H           0.8854   -1.8223    0.8036 H       1  UNL1        0.0579
     37 H           0.8806   -2.4570   -0.8647 H       1  UNL1        0.0624
     38 H           0.3867   -4.7669   -1.7964 H       1  UNL1        0.0618
     39 H          -1.9900   -5.5438   -1.9610 H       1  UNL1        0.0618
     40 H          -3.8094   -4.1551   -1.2411 H       1  UNL1        0.0622
     41 H          -4.3096   -2.4844    0.5246 H       1  UNL1        0.0748
     42 H          -4.5226   -1.8564   -1.1069 H       1  UNL1        0.0748
     43 H           0.4760    1.1989   -0.5226 H       1  UNL1        0.0628
     44 H           0.7342    3.6136   -0.0308 H       1  UNL1        0.0426
     45 H          -0.6555    4.7110    0.0892 H       1  UNL1        0.0426
     46 H           1.0097    5.5774   -3.1320 H       1  UNL1        0.2951
     47 H          -2.9239    3.8709   -0.0858 H       1  UNL1        0.0622
     48 H          -4.4049    1.9072    0.2785 H       1  UNL1        0.0654
@<TRIPOS>BOND
     1     1     2    1
     2     2     3    1
     3     2     4    1
     4     4     5    1
     5     5     6    1
     6     6     7    2
     7     7     8    1
     8     8     9   ar
     9     9    10   ar
    10    10    11   ar
    11    11    12   ar
    12    12    13   ar
    13    13    14    1
    14    14    15    1
    15    15    16    1
    16    16    17   ar
    17    17    18   ar
    18    18    19   ar
    19    19    20    1
    20    20    21    1
    21    21    22    1
    22    21    23    2
    23    19    24   ar
    24    24    25   ar
    25    17     7    1
    26    13     8   ar
    27    25    16   ar
    28     1    26    1
    29     1    27    1
    30     1    28    1
    31     3    29    1
    32     3    30    1
    33     3    31    1
    34     4    32    1
    35     4    33    1
    36     5    34    1
    37     5    35    1
    38     6    36    1
    39     9    37    1
    40    10    38    1
    41    11    39    1
    42    12    40    1
    43    14    41    1
    44    14    42    1
    45    18    43    1
    46    20    44    1
    47    20    45    1
    48    22    46    1
    49    24    47    1
    50    25    48    1
