@<TRIPOS>MOLECULE
*****
 63 67 0 0 0
SMALL
GASTEIGER

@<TRIPOS>ATOM
      1 C          -5.6623   -2.5169    0.2789 C.3     1  UNL1       -0.0464
      2 C          -5.7500   -1.0039    0.3028 C.3     1  UNL1        0.0236
      3 C          -6.3894   -0.4996   -0.9964 C.3     1  UNL1       -0.0329
      4 C          -5.8618    0.9074   -1.1213 C.3     1  UNL1       -0.0329
      5 C          -4.7397    1.0216   -0.1055 C.3     1  UNL1        0.0236
      6 C          -5.3027    1.7267    1.1280 C.3     1  UNL1       -0.0464
      7 N          -4.4503   -0.3663    0.2481 N.am    1  UNL1       -0.2948
      8 C          -3.2227   -1.0146    0.4765 C.2     1  UNL1        0.2329
      9 O          -3.1934   -2.2132    0.8315 O.2     1  UNL1       -0.2740
     10 C          -1.8747   -0.3166    0.3013 C.3     1  UNL1        0.1054
     11 C          -0.6917   -1.1468    0.6883 C.3     1  UNL1       -0.0220
     12 C          -1.2179    0.0109    1.5267 C.3     1  UNL1        0.0134
     13 C          -0.1901    1.2324    1.4813 C.3     1  UNL1        0.0935
     14 C          -0.5961    2.1502    2.5606 C.3     1  UNL1       -0.0351
     15 C           1.1464    0.6549    1.7342 C.ar    1  UNL1        0.0158
     16 C           2.1053    0.5908    0.7228 C.ar    1  UNL1       -0.0463
     17 C           3.3478    0.0363    0.9336 C.ar    1  UNL1       -0.0217
     18 C           4.3468    0.0192   -0.1599 C.2     1  UNL1       -0.0172
     19 C           5.1349   -1.0229   -0.3803 C.2     1  UNL1        0.1492
     20 F           4.9772   -2.0863    0.4574 F       1  UNL1       -0.2032
     21 C           6.1345   -1.0049   -1.4323 C.ar    1  UNL1        0.0990
     22 C           7.0166   -2.0164   -1.7359 C.ar    1  UNL1       -0.0322
     23 C           7.9772   -1.9406   -2.7262 C.ar    1  UNL1       -0.0408
     24 C           8.0849   -0.7706   -3.4895 C.ar    1  UNL1        0.0699
     25 C           9.0583   -0.6071   -4.4921 C.1     1  UNL1        0.1007
     26 N           9.8601   -0.4905   -5.3298 N.1     1  UNL1       -0.1908
     27 C           7.1729    0.2193   -3.1476 C.ar    1  UNL1        0.0457
     28 N           6.2537    0.1210   -2.1869 N.ar    1  UNL1       -0.2514
     29 C           3.6592   -0.4682    2.1737 C.ar    1  UNL1       -0.0518
     30 C           2.7373   -0.4258    3.2067 C.ar    1  UNL1       -0.0255
     31 C           1.4933    0.1435    2.9532 C.ar    1  UNL1        0.1289
     32 F           0.5584    0.1862    3.9616 F       1  UNL1       -0.2051
     33 N          -0.4519    1.7186    0.2262 N.2     1  UNL1       -0.2521
     34 C          -0.6720    2.1004   -0.7945 C.2     1  UNL1        0.1485
     35 N          -0.6874    2.8951   -1.8466 N.pl3   1  UNL1       -0.3380
     36 S          -1.7907    0.4976   -1.2925 S.3     1  UNL1       -0.0746
     37 H          -5.4371   -2.8465    1.3152 H       1  UNL1        0.0248
     38 H          -6.6896   -2.9032    0.0090 H       1  UNL1        0.0248
     39 H          -4.9099   -2.8813   -0.4500 H       1  UNL1        0.0248
     40 H          -6.3596   -0.6298    1.1344 H       1  UNL1        0.0498
     41 H          -5.9946   -1.1097   -1.8339 H       1  UNL1        0.0284
     42 H          -7.4899   -0.4886   -0.9272 H       1  UNL1        0.0284
     43 H          -5.4381    1.0659   -2.1731 H       1  UNL1        0.0284
     44 H          -6.6875    1.6144   -0.9402 H       1  UNL1        0.0284
     45 H          -3.8832    1.5443   -0.5299 H       1  UNL1        0.0498
     46 H          -5.0704    1.1997    2.0792 H       1  UNL1        0.0248
     47 H          -4.8030    2.7160    1.2298 H       1  UNL1        0.0248
     48 H          -6.3932    1.8621    1.0553 H       1  UNL1        0.0248
     49 H          -0.9211   -2.1750    0.9845 H       1  UNL1        0.0287
     50 H           0.2269   -1.0285    0.0900 H       1  UNL1        0.0287
     51 H          -1.6245   -0.2304    2.5060 H       1  UNL1        0.0346
     52 H           0.2135    2.8174    2.9425 H       1  UNL1        0.0256
     53 H          -1.3946    2.8840    2.2382 H       1  UNL1        0.0256
     54 H          -1.1041    1.6131    3.4014 H       1  UNL1        0.0256
     55 H           1.8519    0.9924   -0.2372 H       1  UNL1        0.0628
     56 H           4.4845    0.8716   -0.8358 H       1  UNL1        0.0653
     57 H           6.9531   -2.9228   -1.1564 H       1  UNL1        0.0640
     58 H           8.6601   -2.7550   -2.9393 H       1  UNL1        0.0631
     59 H           7.2850    1.1347   -3.7623 H       1  UNL1        0.0843
     60 H           4.6226   -0.9039    2.3146 H       1  UNL1        0.0624
     61 H           2.9444   -0.7970    4.1809 H       1  UNL1        0.0646
     62 H           0.1238    2.9500   -2.5583 H       1  UNL1        0.1442
     63 H          -1.4855    3.5572   -2.0935 H       1  UNL1        0.1442
@<TRIPOS>BOND
     1     1     2    1
     2     2     3    1
     3     3     4    1
     4     4     5    1
     5     5     6    1
     6     5     7    1
     7     7     8   am
     8     8     9    2
     9    10     8    1
    10    10    11    1
    11    11    12    1
    12    12    13    1
    13    13    14    1
    14    13    15    1
    15    15    16   ar
    16    16    17   ar
    17    17    18    1
    18    18    19    2
    19    19    20    1
    20    19    21    1
    21    21    22   ar
    22    22    23   ar
    23    23    24   ar
    24    24    25    1
    25    25    26    3
    26    24    27   ar
    27    27    28   ar
    28    17    29   ar
    29    29    30   ar
    30    30    31   ar
    31    31    32    1
    32    13    33    1
    33    33    34    2
    34    34    35    1
    35    34    36    1
    36     7     2    1
    37    12    10    1
    38    31    15   ar
    39    36    10    1
    40    28    21   ar
    41     1    37    1
    42     1    38    1
    43     1    39    1
    44     2    40    1
    45     3    41    1
    46     3    42    1
    47     4    43    1
    48     4    44    1
    49     5    45    1
    50     6    46    1
    51     6    47    1
    52     6    48    1
    53    11    49    1
    54    11    50    1
    55    12    51    1
    56    14    52    1
    57    14    53    1
    58    14    54    1
    59    16    55    1
    60    18    56    1
    61    22    57    1
    62    23    58    1
    63    27    59    1
    64    29    60    1
    65    30    61    1
    66    35    62    1
    67    35    63    1
