@<TRIPOS>MOLECULE
*****
 61 66 0 0 0
SMALL
GASTEIGER

@<TRIPOS>ATOM
      1 C           5.8008    3.2703   -0.6256 C.3     1  UNL1        0.0003
      2 N           6.3518    2.2398    0.2418 N.pl3   1  UNL1       -0.3165
      3 C           6.6328    0.9445   -0.2477 C.ar    1  UNL1        0.2154
      4 N           7.8377    0.6664   -0.7660 N.ar    1  UNL1       -0.2229
      5 C           8.1451   -0.5532   -1.2405 C.ar    1  UNL1        0.0332
      6 C           7.1293   -1.5186   -1.1611 C.ar    1  UNL1       -0.0172
      7 C           5.8905   -1.2525   -0.6341 C.ar    1  UNL1        0.0811
      8 C           4.8435   -2.2517   -0.5509 C.ar    1  UNL1        0.0624
      9 C           5.0265   -3.5466   -0.9845 C.ar    1  UNL1       -0.0460
     10 C           3.9841   -4.4579   -0.8740 C.ar    1  UNL1       -0.0427
     11 C           2.7859   -4.0588   -0.3348 C.ar    1  UNL1        0.0314
     12 N           2.6375   -2.7902    0.0790 N.ar    1  UNL1       -0.2204
     13 C           3.6254   -1.8809   -0.0132 C.ar    1  UNL1        0.2297
     14 O           3.4755   -0.5712    0.4110 O.3     1  UNL1       -0.4374
     15 C           2.2428   -0.2302    0.9505 C.ar    1  UNL1        0.1305
     16 C           2.0178   -0.2938    2.3101 C.ar    1  UNL1       -0.0175
     17 C           0.7644    0.0543    2.8274 C.ar    1  UNL1       -0.0370
     18 C          -0.2443    0.4581    1.9984 C.ar    1  UNL1        0.0326
     19 N          -1.5016    0.8091    2.5393 N.pl3   1  UNL1       -0.2975
     20 C          -2.6422    1.0694    1.7171 C.ar    1  UNL1        0.1532
     21 N          -2.9288    2.2652    1.1835 N.ar    1  UNL1       -0.1328
     22 N          -3.9830    2.4832    0.4248 N.ar    1  UNL1       -0.1468
     23 C          -4.8926    1.5110    0.1054 C.ar    1  UNL1        0.1011
     24 C          -6.0256    1.8236   -0.7491 C.ar    1  UNL1        0.0029
     25 C          -7.3403    1.5647   -0.4486 C.ar    1  UNL1       -0.0498
     26 C          -8.3844    1.8687   -1.3294 C.ar    1  UNL1       -0.0258
     27 C          -8.1064    2.4492   -2.5463 C.ar    1  UNL1        0.1234
     28 F          -9.0828    2.7682   -3.4456 F       1  UNL1       -0.2055
     29 C          -6.8021    2.7145   -2.8612 C.ar    1  UNL1       -0.0258
     30 C          -5.7809    2.4105   -1.9858 C.ar    1  UNL1       -0.0498
     31 C          -4.6299    0.2658    0.6359 C.ar    1  UNL1        0.0132
     32 C          -5.4793   -0.7836    0.3579 C.ar    1  UNL1       -0.0518
     33 C          -5.2077   -2.0441    0.8850 C.ar    1  UNL1       -0.0611
     34 C          -4.1014   -2.2276    1.6716 C.ar    1  UNL1       -0.0611
     35 C          -3.2233   -1.2097    1.9754 C.ar    1  UNL1       -0.0506
     36 C          -3.5179    0.0319    1.4378 C.ar    1  UNL1        0.0260
     37 C           0.0007    0.5149    0.6426 C.ar    1  UNL1       -0.0370
     38 C           1.2384    0.1742    0.1050 C.ar    1  UNL1       -0.0175
     39 N           5.6816    0.0033   -0.1844 N.ar    1  UNL1       -0.2143
     40 H           6.2354    3.1718   -1.6285 H       1  UNL1        0.0426
     41 H           4.7212    3.1044   -0.6776 H       1  UNL1        0.0426
     42 H           6.0534    4.2713   -0.1927 H       1  UNL1        0.0426
     43 H           6.5568    2.4320    1.2597 H       1  UNL1        0.1486
     44 H           9.1224   -0.8021   -1.6678 H       1  UNL1        0.0831
     45 H           7.3767   -2.5064   -1.5452 H       1  UNL1        0.0654
     46 H           5.9700   -3.8735   -1.4121 H       1  UNL1        0.0626
     47 H           4.1349   -5.4908   -1.2223 H       1  UNL1        0.0633
     48 H           1.9816   -4.7807   -0.2544 H       1  UNL1        0.0831
     49 H           2.8109   -0.6137    2.9814 H       1  UNL1        0.0655
     50 H           0.6023    0.0012    3.8881 H       1  UNL1        0.0637
     51 H          -1.5962    0.8809    3.5729 H       1  UNL1        0.1536
     52 H          -7.6187    1.1257    0.4992 H       1  UNL1        0.0625
     53 H          -9.4123    1.6552   -1.0747 H       1  UNL1        0.0646
     54 H          -6.5569    3.1779   -3.8285 H       1  UNL1        0.0646
     55 H          -4.7537    2.6269   -2.2526 H       1  UNL1        0.0625
     56 H          -6.3406   -0.6317   -0.2793 H       1  UNL1        0.0624
     57 H          -5.8984   -2.8679    0.6515 H       1  UNL1        0.0618
     58 H          -3.9056   -3.2226    2.0766 H       1  UNL1        0.0618
     59 H          -2.3631   -1.4022    2.5999 H       1  UNL1        0.0625
     60 H          -0.7582    0.8246   -0.0337 H       1  UNL1        0.0637
     61 H           1.4007    0.2295   -0.9710 H       1  UNL1        0.0655
@<TRIPOS>BOND
     1     1     2    1
     2     2     3    1
     3     3     4   ar
     4     4     5   ar
     5     5     6   ar
     6     6     7   ar
     7     7     8    1
     8     8     9   ar
     9     9    10   ar
    10    10    11   ar
    11    11    12   ar
    12    12    13   ar
    13    13    14    1
    14    14    15    1
    15    15    16   ar
    16    16    17   ar
    17    17    18   ar
    18    18    19    1
    19    19    20    1
    20    20    21   ar
    21    21    22   ar
    22    22    23   ar
    23    23    24    1
    24    24    25   ar
    25    25    26   ar
    26    26    27   ar
    27    27    28    1
    28    27    29   ar
    29    29    30   ar
    30    23    31   ar
    31    31    32   ar
    32    32    33   ar
    33    33    34   ar
    34    34    35   ar
    35    35    36   ar
    36    18    37   ar
    37    37    38   ar
    38     7    39   ar
    39    39     3   ar
    40    13     8   ar
    41    38    15   ar
    42    36    20   ar
    43    30    24   ar
    44    36    31   ar
    45     1    40    1
    46     1    41    1
    47     1    42    1
    48     2    43    1
    49     5    44    1
    50     6    45    1
    51     9    46    1
    52    10    47    1
    53    11    48    1
    54    16    49    1
    55    17    50    1
    56    19    51    1
    57    25    52    1
    58    26    53    1
    59    29    54    1
    60    30    55    1
    61    32    56    1
    62    33    57    1
    63    34    58    1
    64    35    59    1
    65    37    60    1
    66    38    61    1
