
     RDKit          3D

 56 59  0  0  0  0  0  0  0  0999 V2000
   -3.4935   -0.2161   -0.8964 C   0  0  2  0  0  0  0  0  0  0  0  0
   -3.2642    1.1507   -0.8677 O   0  0  0  0  0  0  0  0  0  0  0  0
   -4.3790    1.8720   -0.4642 C   0  0  2  0  0  0  0  0  0  0  0  0
   -4.1909    3.3244   -0.8358 C   0  0  0  0  0  0  0  0  0  0  0  0
   -3.0829    3.8849   -0.2425 O   0  0  0  0  0  0  0  0  0  0  0  0
   -4.5299    1.6804    1.0297 C   0  0  1  0  0  0  0  0  0  0  0  0
   -5.5939    2.4347    1.5310 O   0  0  0  0  0  0  0  0  0  0  0  0
   -4.7097    0.2115    1.2774 C   0  0  2  0  0  0  0  0  0  0  0  0
   -3.9363   -0.2458    2.3513 O   0  0  0  0  0  0  0  0  0  0  0  0
   -4.5662   -0.6521    0.0657 C   0  0  1  0  0  0  0  0  0  0  0  0
   -5.7875   -0.8238   -0.5978 O   0  0  0  0  0  0  0  0  0  0  0  0
   -2.2635   -1.0241   -0.6951 C   0  0  0  0  0  0  0  0  0  0  0  0
   -2.0106   -2.1299   -1.5110 C   0  0  0  0  0  0  0  0  0  0  0  0
   -0.8902   -2.8926   -1.3502 C   0  0  0  0  0  0  0  0  0  0  0  0
    0.0455   -2.5896   -0.3580 C   0  0  0  0  0  0  0  0  0  0  0  0
    1.2269   -3.4460   -0.2305 C   0  0  0  0  0  0  0  0  0  0  0  0
   -0.1738   -1.5056    0.4635 C   0  0  0  0  0  0  0  0  0  0  0  0
    0.7876   -1.1364    1.5303 C   0  0  0  0  0  0  0  0  0  0  0  0
    2.0036   -0.4554    1.0185 C   0  0  0  0  0  0  0  0  0  0  0  0
    2.2171    0.8808    0.7986 C   0  0  0  0  0  0  0  0  0  0  0  0
    3.4579    1.2237    0.3195 C   0  0  0  0  0  0  0  0  0  0  0  0
    4.3717    0.2880    0.0946 C   0  0  0  0  0  0  0  0  0  0  0  0
    3.5981   -1.2319    0.5337 S   0  0  0  0  0  0  0  0  0  0  0  0
    5.7392    0.3687   -0.4012 C   0  0  0  0  0  0  0  0  0  0  0  0
    6.4539   -0.8049   -0.5266 C   0  0  0  0  0  0  0  0  0  0  0  0
    7.7536   -0.7894   -0.9916 C   0  0  0  0  0  0  0  0  0  0  0  0
    8.3063    0.4288   -1.3230 C   0  0  0  0  0  0  0  0  0  0  0  0
    9.5773    0.4814   -1.7824 F   0  0  0  0  0  0  0  0  0  0  0  0
    7.5598    1.5786   -1.1837 C   0  0  0  0  0  0  0  0  0  0  0  0
    6.2438    1.5960   -0.7164 C   0  0  0  0  0  0  0  0  0  0  0  0
   -1.3226   -0.7698    0.2565 C   0  0  0  0  0  0  0  0  0  0  0  0
   -3.8663   -0.4340   -1.9263 H   0  0  0  0  0  0  0  0  0  0  0  0
   -5.2786    1.4509   -0.9297 H   0  0  0  0  0  0  0  0  0  0  0  0
   -4.0697    3.3826   -1.9324 H   0  0  0  0  0  0  0  0  0  0  0  0
   -5.0627    3.9396   -0.5687 H   0  0  0  0  0  0  0  0  0  0  0  0
   -2.8816    4.7458   -0.7008 H   0  0  0  0  0  0  0  0  0  0  0  0
   -3.5761    2.0017    1.5046 H   0  0  0  0  0  0  0  0  0  0  0  0
   -5.2910    2.9026    2.3385 H   0  0  0  0  0  0  0  0  0  0  0  0
   -5.7761    0.0806    1.6252 H   0  0  0  0  0  0  0  0  0  0  0  0
   -3.5683   -1.1319    2.0621 H   0  0  0  0  0  0  0  0  0  0  0  0
   -4.2890   -1.6676    0.4315 H   0  0  0  0  0  0  0  0  0  0  0  0
   -5.7161   -1.6665   -1.1052 H   0  0  0  0  0  0  0  0  0  0  0  0
   -2.7412   -2.3746   -2.2936 H   0  0  0  0  0  0  0  0  0  0  0  0
   -0.7468   -3.7418   -2.0151 H   0  0  0  0  0  0  0  0  0  0  0  0
    1.6703   -3.5105    0.7642 H   0  0  0  0  0  0  0  0  0  0  0  0
    0.9516   -4.5112   -0.4927 H   0  0  0  0  0  0  0  0  0  0  0  0
    1.9341   -3.1579   -1.0443 H   0  0  0  0  0  0  0  0  0  0  0  0
    1.0418   -2.0408    2.1234 H   0  0  0  0  0  0  0  0  0  0  0  0
    0.3458   -0.4311    2.2636 H   0  0  0  0  0  0  0  0  0  0  0  0
    1.4160    1.5797    1.0087 H   0  0  0  0  0  0  0  0  0  0  0  0
    3.7264    2.2726    0.1106 H   0  0  0  0  0  0  0  0  0  0  0  0
    6.0453   -1.7800   -0.2737 H   0  0  0  0  0  0  0  0  0  0  0  0
    8.3377   -1.6910   -1.1007 H   0  0  0  0  0  0  0  0  0  0  0  0
    8.0439    2.5186   -1.4603 H   0  0  0  0  0  0  0  0  0  0  0  0
    5.6710    2.4965   -0.6114 H   0  0  0  0  0  0  0  0  0  0  0  0
   -1.4679    0.0761    0.9179 H   0  0  0  0  0  0  0  0  0  0  0  0
  1  2  1  0
  2  3  1  0
  3  4  1  0
  4  5  1  0
  3  6  1  0
  6  7  1  0
  6  8  1  0
  8  9  1  0
  8 10  1  0
 10 11  1  0
  1 12  1  0
 12 13  2  0
 13 14  1  0
 14 15  2  0
 15 16  1  0
 15 17  1  0
 17 18  1  0
 18 19  1  0
 19 20  2  0
 20 21  1  0
 21 22  2  0
 22 23  1  0
 22 24  1  0
 24 25  2  0
 25 26  1  0
 26 27  2  0
 27 28  1  0
 27 29  1  0
 29 30  2  0
 17 31  2  0
 10  1  1  0
 31 12  1  0
 23 19  1  0
 30 24  1  0
  1 32  1  6
  3 33  1  6
  4 34  1  0
  4 35  1  0
  5 36  1  0
  6 37  1  1
  7 38  1  0
  8 39  1  1
  9 40  1  0
 10 41  1  1
 11 42  1  0
 13 43  1  0
 14 44  1  0
 16 45  1  0
 16 46  1  0
 16 47  1  0
 18 48  1  0
 18 49  1  0
 20 50  1  0
 21 51  1  0
 25 52  1  0
 26 53  1  0
 29 54  1  0
 30 55  1  0
 31 56  1  0
M  END
$$$$
