@<TRIPOS>MOLECULE
*****
 66 69 0 0 0
SMALL
GASTEIGER

@<TRIPOS>ATOM
      1 C          -0.5882   -5.8184    1.6480 C.3     1  UNL1       -0.0468
      2 C          -0.4664   -4.3740    2.0271 C.3     1  UNL1        0.0189
      3 C           0.4718   -4.2515    3.2008 C.3     1  UNL1       -0.0468
      4 N          -0.1013   -3.5426    0.9057 N.am    1  UNL1       -0.2969
      5 C          -0.6895   -2.2169    0.7584 C.2     1  UNL1        0.3030
      6 O          -1.4968   -1.8313    1.6470 O.2     1  UNL1       -0.2526
      7 N          -0.3337   -1.4537   -0.3541 N.am    1  UNL1       -0.2770
      8 C          -0.9289   -0.1734   -0.5956 C.3     1  UNL1        0.0416
      9 C          -2.1623   -0.0798   -1.3589 C.ar    1  UNL1       -0.0289
     10 C          -2.2783   -0.5681   -2.6291 C.ar    1  UNL1       -0.0570
     11 C          -3.4024   -0.3043   -3.3784 C.ar    1  UNL1       -0.0603
     12 C          -4.4221    0.4568   -2.8439 C.ar    1  UNL1       -0.0463
     13 C          -4.3570    0.9709   -1.5712 C.ar    1  UNL1        0.0256
     14 C          -5.3849    1.8442   -1.0137 C.1     1  UNL1       -0.0610
     15 C          -6.2359    2.5654   -0.5752 C.1     1  UNL1       -0.0609
     16 C          -7.2623    3.4362   -0.0191 C.ar    1  UNL1        0.0281
     17 C          -8.5589    2.9875    0.0386 C.ar    1  UNL1       -0.0282
     18 C          -9.5569    3.8090    0.5444 C.ar    1  UNL1        0.0287
     19 N          -9.2170    5.0349    0.9670 N.ar    1  UNL1       -0.2632
     20 C          -7.9968    5.5271    0.9388 C.ar    1  UNL1        0.0287
     21 C          -6.9830    4.7001    0.4298 C.ar    1  UNL1       -0.0282
     22 C          -3.2164    0.6913   -0.8341 C.ar    1  UNL1       -0.0416
     23 C           0.7470   -1.8794   -1.2545 C.3     1  UNL1        0.0416
     24 C           1.7027   -0.7689   -1.5361 C.ar    1  UNL1       -0.0289
     25 C           1.4317    0.0559   -2.6380 C.ar    1  UNL1       -0.0570
     26 C           2.2749    1.0852   -2.9633 C.ar    1  UNL1       -0.0603
     27 C           3.3841    1.2919   -2.2006 C.ar    1  UNL1       -0.0463
     28 C           3.6763    0.4928   -1.1132 C.ar    1  UNL1        0.0256
     29 C           4.9143    0.7133   -0.3911 C.1     1  UNL1       -0.0610
     30 C           5.9350    0.9075    0.2147 C.1     1  UNL1       -0.0610
     31 C           7.1515    1.1182    0.9185 C.ar    1  UNL1        0.0254
     32 C           8.2980    1.4621    0.1598 C.ar    1  UNL1       -0.0449
     33 C           9.5114    1.6648    0.7509 C.ar    1  UNL1       -0.0422
     34 C           9.6997    1.5495    2.1238 C.ar    1  UNL1        0.0410
     35 CL         11.2543    1.8031    2.8455 Cl      1  UNL1       -0.0835
     36 C           8.5742    1.2108    2.8734 C.ar    1  UNL1       -0.0422
     37 C           7.3501    1.0071    2.2683 C.ar    1  UNL1       -0.0449
     38 C           2.8222   -0.5421   -0.7860 C.ar    1  UNL1       -0.0416
     39 H          -0.1658   -6.4910    2.4466 H       1  UNL1        0.0247
     40 H          -0.0555   -6.0676    0.7113 H       1  UNL1        0.0247
     41 H          -1.6461   -6.1592    1.5762 H       1  UNL1        0.0247
     42 H          -1.4481   -3.9558    2.4168 H       1  UNL1        0.0493
     43 H           1.4696   -3.9500    2.9153 H       1  UNL1        0.0247
     44 H           0.1115   -3.5231    3.9732 H       1  UNL1        0.0247
     45 H           0.4482   -5.2353    3.7302 H       1  UNL1        0.0247
     46 H           0.5567   -3.8819    0.2008 H       1  UNL1        0.1505
     47 H          -0.1493    0.5583   -0.9317 H       1  UNL1        0.0514
     48 H          -1.1766    0.2104    0.4787 H       1  UNL1        0.0514
     49 H          -1.4818   -1.2036   -3.0791 H       1  UNL1        0.0621
     50 H          -3.4835   -0.6824   -4.3667 H       1  UNL1        0.0618
     51 H          -5.3184    0.6575   -3.4591 H       1  UNL1        0.0630
     52 H          -8.8301    2.0055   -0.3023 H       1  UNL1        0.0645
     53 H         -10.5911    3.5534    0.6306 H       1  UNL1        0.0830
     54 H          -7.7338    6.5250    1.2920 H       1  UNL1        0.0830
     55 H          -5.9891    5.1204    0.4145 H       1  UNL1        0.0645
     56 H          -3.1876    1.0921    0.1628 H       1  UNL1        0.0633
     57 H           1.3687   -2.6368   -0.7104 H       1  UNL1        0.0514
     58 H           0.3237   -2.3710   -2.1080 H       1  UNL1        0.0514
     59 H           0.5402   -0.1661   -3.2082 H       1  UNL1        0.0621
     60 H           2.0570    1.7039   -3.8006 H       1  UNL1        0.0618
     61 H           4.0874    2.1174   -2.4259 H       1  UNL1        0.0630
     62 H           8.1586    1.5560   -0.9211 H       1  UNL1        0.0630
     63 H          10.3801    1.9247    0.1598 H       1  UNL1        0.0632
     64 H           8.6706    1.1098    3.9432 H       1  UNL1        0.0632
     65 H           6.4438    0.7420    2.8531 H       1  UNL1        0.0630
     66 H           3.0807   -1.1338    0.0743 H       1  UNL1        0.0633
@<TRIPOS>BOND
     1     1     2    1
     2     2     3    1
     3     2     4    1
     4     4     5   am
     5     5     6    2
     6     5     7   am
     7     7     8    1
     8     8     9    1
     9     9    10   ar
    10    10    11   ar
    11    11    12   ar
    12    12    13   ar
    13    13    14    1
    14    14    15    3
    15    15    16    1
    16    16    17   ar
    17    17    18   ar
    18    18    19   ar
    19    19    20   ar
    20    20    21   ar
    21    13    22   ar
    22     7    23    1
    23    23    24    1
    24    24    25   ar
    25    25    26   ar
    26    26    27   ar
    27    27    28   ar
    28    28    29    1
    29    29    30    3
    30    30    31    1
    31    31    32   ar
    32    32    33   ar
    33    33    34   ar
    34    34    35    1
    35    34    36   ar
    36    36    37   ar
    37    28    38   ar
    38    22     9   ar
    39    38    24   ar
    40    21    16   ar
    41    37    31   ar
    42     1    39    1
    43     1    40    1
    44     1    41    1
    45     2    42    1
    46     3    43    1
    47     3    44    1
    48     3    45    1
    49     4    46    1
    50     8    47    1
    51     8    48    1
    52    10    49    1
    53    11    50    1
    54    12    51    1
    55    17    52    1
    56    18    53    1
    57    20    54    1
    58    21    55    1
    59    22    56    1
    60    23    57    1
    61    23    58    1
    62    25    59    1
    63    26    60    1
    64    27    61    1
    65    32    62    1
    66    33    63    1
    67    36    64    1
    68    37    65    1
    69    38    66    1
