
     RDKit          3D

 66 69  0  0  0  0  0  0  0  0999 V2000
   -0.5882   -5.8184    1.6480 C   0  0  0  0  0  0  0  0  0  0  0  0
   -0.4664   -4.3740    2.0271 C   0  0  0  0  0  0  0  0  0  0  0  0
    0.4718   -4.2515    3.2008 C   0  0  0  0  0  0  0  0  0  0  0  0
   -0.1013   -3.5426    0.9057 N   0  0  0  0  0  0  0  0  0  0  0  0
   -0.6895   -2.2169    0.7584 C   0  0  0  0  0  0  0  0  0  0  0  0
   -1.4968   -1.8313    1.6470 O   0  0  0  0  0  0  0  0  0  0  0  0
   -0.3337   -1.4537   -0.3541 N   0  0  0  0  0  0  0  0  0  0  0  0
   -0.9289   -0.1734   -0.5956 C   0  0  0  0  0  0  0  0  0  0  0  0
   -2.1623   -0.0798   -1.3589 C   0  0  0  0  0  0  0  0  0  0  0  0
   -2.2783   -0.5681   -2.6291 C   0  0  0  0  0  0  0  0  0  0  0  0
   -3.4024   -0.3043   -3.3784 C   0  0  0  0  0  0  0  0  0  0  0  0
   -4.4221    0.4568   -2.8439 C   0  0  0  0  0  0  0  0  0  0  0  0
   -4.3570    0.9709   -1.5712 C   0  0  0  0  0  0  0  0  0  0  0  0
   -5.3849    1.8442   -1.0137 C   0  0  0  0  0  0  0  0  0  0  0  0
   -6.2359    2.5654   -0.5752 C   0  0  0  0  0  0  0  0  0  0  0  0
   -7.2623    3.4362   -0.0191 C   0  0  0  0  0  0  0  0  0  0  0  0
   -8.5589    2.9875    0.0386 C   0  0  0  0  0  0  0  0  0  0  0  0
   -9.5569    3.8090    0.5444 C   0  0  0  0  0  0  0  0  0  0  0  0
   -9.2170    5.0349    0.9670 N   0  0  0  0  0  0  0  0  0  0  0  0
   -7.9968    5.5271    0.9388 C   0  0  0  0  0  0  0  0  0  0  0  0
   -6.9830    4.7001    0.4298 C   0  0  0  0  0  0  0  0  0  0  0  0
   -3.2164    0.6913   -0.8341 C   0  0  0  0  0  0  0  0  0  0  0  0
    0.7470   -1.8794   -1.2545 C   0  0  0  0  0  0  0  0  0  0  0  0
    1.7027   -0.7689   -1.5361 C   0  0  0  0  0  0  0  0  0  0  0  0
    1.4317    0.0559   -2.6380 C   0  0  0  0  0  0  0  0  0  0  0  0
    2.2749    1.0852   -2.9633 C   0  0  0  0  0  0  0  0  0  0  0  0
    3.3841    1.2919   -2.2006 C   0  0  0  0  0  0  0  0  0  0  0  0
    3.6763    0.4928   -1.1132 C   0  0  0  0  0  0  0  0  0  0  0  0
    4.9143    0.7133   -0.3911 C   0  0  0  0  0  0  0  0  0  0  0  0
    5.9350    0.9075    0.2147 C   0  0  0  0  0  0  0  0  0  0  0  0
    7.1515    1.1182    0.9185 C   0  0  0  0  0  0  0  0  0  0  0  0
    8.2980    1.4621    0.1598 C   0  0  0  0  0  0  0  0  0  0  0  0
    9.5114    1.6648    0.7509 C   0  0  0  0  0  0  0  0  0  0  0  0
    9.6997    1.5495    2.1238 C   0  0  0  0  0  0  0  0  0  0  0  0
   11.2543    1.8031    2.8455 Cl  0  0  0  0  0  0  0  0  0  0  0  0
    8.5742    1.2108    2.8734 C   0  0  0  0  0  0  0  0  0  0  0  0
    7.3501    1.0071    2.2683 C   0  0  0  0  0  0  0  0  0  0  0  0
    2.8222   -0.5421   -0.7860 C   0  0  0  0  0  0  0  0  0  0  0  0
   -0.1658   -6.4910    2.4466 H   0  0  0  0  0  0  0  0  0  0  0  0
   -0.0555   -6.0676    0.7113 H   0  0  0  0  0  0  0  0  0  0  0  0
   -1.6461   -6.1592    1.5762 H   0  0  0  0  0  0  0  0  0  0  0  0
   -1.4481   -3.9558    2.4168 H   0  0  0  0  0  0  0  0  0  0  0  0
    1.4696   -3.9500    2.9153 H   0  0  0  0  0  0  0  0  0  0  0  0
    0.1115   -3.5231    3.9732 H   0  0  0  0  0  0  0  0  0  0  0  0
    0.4482   -5.2353    3.7302 H   0  0  0  0  0  0  0  0  0  0  0  0
    0.5567   -3.8819    0.2008 H   0  0  0  0  0  0  0  0  0  0  0  0
   -0.1493    0.5583   -0.9317 H   0  0  0  0  0  0  0  0  0  0  0  0
   -1.1766    0.2104    0.4787 H   0  0  0  0  0  0  0  0  0  0  0  0
   -1.4818   -1.2036   -3.0791 H   0  0  0  0  0  0  0  0  0  0  0  0
   -3.4835   -0.6824   -4.3667 H   0  0  0  0  0  0  0  0  0  0  0  0
   -5.3184    0.6575   -3.4591 H   0  0  0  0  0  0  0  0  0  0  0  0
   -8.8301    2.0055   -0.3023 H   0  0  0  0  0  0  0  0  0  0  0  0
  -10.5911    3.5534    0.6306 H   0  0  0  0  0  0  0  0  0  0  0  0
   -7.7338    6.5250    1.2920 H   0  0  0  0  0  0  0  0  0  0  0  0
   -5.9891    5.1204    0.4145 H   0  0  0  0  0  0  0  0  0  0  0  0
   -3.1876    1.0921    0.1628 H   0  0  0  0  0  0  0  0  0  0  0  0
    1.3687   -2.6368   -0.7104 H   0  0  0  0  0  0  0  0  0  0  0  0
    0.3237   -2.3710   -2.1080 H   0  0  0  0  0  0  0  0  0  0  0  0
    0.5402   -0.1661   -3.2082 H   0  0  0  0  0  0  0  0  0  0  0  0
    2.0570    1.7039   -3.8006 H   0  0  0  0  0  0  0  0  0  0  0  0
    4.0874    2.1174   -2.4259 H   0  0  0  0  0  0  0  0  0  0  0  0
    8.1586    1.5560   -0.9211 H   0  0  0  0  0  0  0  0  0  0  0  0
   10.3801    1.9247    0.1598 H   0  0  0  0  0  0  0  0  0  0  0  0
    8.6706    1.1098    3.9432 H   0  0  0  0  0  0  0  0  0  0  0  0
    6.4438    0.7420    2.8531 H   0  0  0  0  0  0  0  0  0  0  0  0
    3.0807   -1.1338    0.0743 H   0  0  0  0  0  0  0  0  0  0  0  0
  1  2  1  0
  2  3  1  0
  2  4  1  0
  4  5  1  0
  5  6  2  0
  5  7  1  0
  7  8  1  0
  8  9  1  0
  9 10  2  0
 10 11  1  0
 11 12  2  0
 12 13  1  0
 13 14  1  0
 14 15  3  0
 15 16  1  0
 16 17  2  0
 17 18  1  0
 18 19  2  0
 19 20  1  0
 20 21  2  0
 13 22  2  0
  7 23  1  0
 23 24  1  0
 24 25  2  0
 25 26  1  0
 26 27  2  0
 27 28  1  0
 28 29  1  0
 29 30  3  0
 30 31  1  0
 31 32  2  0
 32 33  1  0
 33 34  2  0
 34 35  1  0
 34 36  1  0
 36 37  2  0
 28 38  2  0
 22  9  1  0
 38 24  1  0
 21 16  1  0
 37 31  1  0
  1 39  1  0
  1 40  1  0
  1 41  1  0
  2 42  1  0
  3 43  1  0
  3 44  1  0
  3 45  1  0
  4 46  1  0
  8 47  1  0
  8 48  1  0
 10 49  1  0
 11 50  1  0
 12 51  1  0
 17 52  1  0
 18 53  1  0
 20 54  1  0
 21 55  1  0
 22 56  1  0
 23 57  1  0
 23 58  1  0
 25 59  1  0
 26 60  1  0
 27 61  1  0
 32 62  1  0
 33 63  1  0
 36 64  1  0
 37 65  1  0
 38 66  1  0
M  END
$$$$
