@<TRIPOS>MOLECULE
*****
 50 53 0 0 0
SMALL
GASTEIGER

@<TRIPOS>ATOM
      1 C          -0.4611   -2.6727    1.4797 C.2     1  UNL1       -0.0951
      2 C           0.6998   -2.7898    0.9436 C.2     1  UNL1       -0.0472
      3 C           1.1869   -4.2142    0.7156 C.3     1  UNL1       -0.0396
      4 C           1.5400   -1.7172    0.4803 C.ar    1  UNL1        0.0166
      5 C           2.9369   -2.0159    0.3217 C.ar    1  UNL1        0.0374
      6 N           3.7543   -1.0546   -0.0804 N.ar    1  UNL1       -0.2542
      7 C           3.3693    0.2040   -0.3571 C.ar    1  UNL1        0.0755
      8 C           4.3327    1.2177   -0.7951 C.ar    1  UNL1        0.0369
      9 C           3.9953    2.5149   -1.0902 C.ar    1  UNL1       -0.0314
     10 C           4.9465    3.4499   -1.5048 C.ar    1  UNL1        0.0418
     11 CL          4.4686    5.0962   -1.8710 Cl      1  UNL1       -0.0835
     12 C           6.2566    3.0398   -1.6149 C.ar    1  UNL1       -0.0406
     13 C           6.6449    1.7500   -1.3303 C.ar    1  UNL1       -0.0244
     14 C           5.6595    0.8614   -0.9226 C.ar    1  UNL1        0.1326
     15 F           5.9959   -0.4251   -0.6302 F       1  UNL1       -0.2048
     16 C           2.0373    0.4912   -0.2100 C.ar    1  UNL1       -0.0138
     17 C           1.0940   -0.4765    0.2121 C.ar    1  UNL1        0.0423
     18 N          -0.2674   -0.1002    0.2718 N.pl3   1  UNL1       -0.3133
     19 C          -1.2537   -0.5930   -0.6122 C.ar    1  UNL1        0.0465
     20 C          -0.7966   -1.4631   -1.6135 C.ar    1  UNL1       -0.0217
     21 C          -1.7019   -1.9816   -2.5058 C.ar    1  UNL1        0.0293
     22 N          -2.9928   -1.6382   -2.3894 N.ar    1  UNL1       -0.2624
     23 C          -3.4388   -0.7918   -1.4158 C.ar    1  UNL1        0.0415
     24 C          -2.5649   -0.2369   -0.4845 C.ar    1  UNL1        0.0758
     25 C          -3.1119    0.6505    0.5255 C.2     1  UNL1        0.2476
     26 O          -2.4396    1.2121    1.4396 O.2     1  UNL1       -0.2701
     27 N          -4.5049    0.9807    0.5802 N.am    1  UNL1       -0.3084
     28 C          -5.0535    1.8695    1.5918 C.3     1  UNL1        0.0235
     29 C          -6.4275    1.4985    2.0732 C.3     1  UNL1       -0.0328
     30 C          -6.2501    2.7242    1.2399 C.3     1  UNL1       -0.0328
     31 H          -0.9528   -1.7593    1.7143 H       1  UNL1        0.0538
     32 H          -1.0483   -3.5902    1.7422 H       1  UNL1        0.0538
     33 H           1.8324   -4.2549   -0.1903 H       1  UNL1        0.0278
     34 H           0.2877   -4.8243    0.4940 H       1  UNL1        0.0278
     35 H           1.7129   -4.5328    1.6326 H       1  UNL1        0.0278
     36 H           3.2662   -3.0190    0.5402 H       1  UNL1        0.0836
     37 H           2.9821    2.8421   -1.0078 H       1  UNL1        0.0639
     38 H           7.0218    3.7408   -1.9345 H       1  UNL1        0.0633
     39 H           7.6736    1.4154   -1.4133 H       1  UNL1        0.0647
     40 H           1.6446    1.4645   -0.4077 H       1  UNL1        0.0658
     41 H          -0.5137    0.5701    1.0068 H       1  UNL1        0.1522
     42 H           0.2431   -1.7352   -1.7049 H       1  UNL1        0.0651
     43 H          -1.3300   -2.6529   -3.2733 H       1  UNL1        0.0830
     44 H          -4.4960   -0.6039   -1.4398 H       1  UNL1        0.0838
     45 H          -5.1708    0.5922   -0.1072 H       1  UNL1        0.1493
     46 H          -4.3165    2.2641    2.3056 H       1  UNL1        0.0498
     47 H          -6.9391    0.6331    1.5898 H       1  UNL1        0.0284
     48 H          -6.7220    1.6541    3.1136 H       1  UNL1        0.0284
     49 H          -6.5061    2.6795    0.1584 H       1  UNL1        0.0284
     50 H          -6.3232    3.7269    1.7189 H       1  UNL1        0.0284
@<TRIPOS>BOND
     1     1     2    2
     2     2     3    1
     3     2     4    1
     4     4     5   ar
     5     5     6   ar
     6     6     7   ar
     7     7     8    1
     8     8     9   ar
     9     9    10   ar
    10    10    11    1
    11    10    12   ar
    12    12    13   ar
    13    13    14   ar
    14    14    15    1
    15     7    16   ar
    16    16    17   ar
    17    17    18    1
    18    18    19    1
    19    19    20   ar
    20    20    21   ar
    21    21    22   ar
    22    22    23   ar
    23    23    24   ar
    24    24    25    1
    25    25    26    2
    26    25    27   am
    27    27    28    1
    28    28    29    1
    29    29    30    1
    30    17     4   ar
    31    24    19   ar
    32    30    28    1
    33    14     8   ar
    34     1    31    1
    35     1    32    1
    36     3    33    1
    37     3    34    1
    38     3    35    1
    39     5    36    1
    40     9    37    1
    41    12    38    1
    42    13    39    1
    43    16    40    1
    44    18    41    1
    45    20    42    1
    46    21    43    1
    47    23    44    1
    48    27    45    1
    49    28    46    1
    50    29    47    1
    51    29    48    1
    52    30    49    1
    53    30    50    1
