
     RDKit          3D

 50 53  0  0  0  0  0  0  0  0999 V2000
   -0.4611   -2.6727    1.4797 C   0  0  0  0  0  0  0  0  0  0  0  0
    0.6998   -2.7898    0.9436 C   0  0  0  0  0  0  0  0  0  0  0  0
    1.1869   -4.2142    0.7156 C   0  0  0  0  0  0  0  0  0  0  0  0
    1.5400   -1.7172    0.4803 C   0  0  0  0  0  0  0  0  0  0  0  0
    2.9369   -2.0159    0.3217 C   0  0  0  0  0  0  0  0  0  0  0  0
    3.7543   -1.0546   -0.0804 N   0  0  0  0  0  0  0  0  0  0  0  0
    3.3693    0.2040   -0.3571 C   0  0  0  0  0  0  0  0  0  0  0  0
    4.3327    1.2177   -0.7951 C   0  0  0  0  0  0  0  0  0  0  0  0
    3.9953    2.5149   -1.0902 C   0  0  0  0  0  0  0  0  0  0  0  0
    4.9465    3.4499   -1.5048 C   0  0  0  0  0  0  0  0  0  0  0  0
    4.4686    5.0962   -1.8710 Cl  0  0  0  0  0  0  0  0  0  0  0  0
    6.2566    3.0398   -1.6149 C   0  0  0  0  0  0  0  0  0  0  0  0
    6.6449    1.7500   -1.3303 C   0  0  0  0  0  0  0  0  0  0  0  0
    5.6595    0.8614   -0.9226 C   0  0  0  0  0  0  0  0  0  0  0  0
    5.9959   -0.4251   -0.6302 F   0  0  0  0  0  0  0  0  0  0  0  0
    2.0373    0.4912   -0.2100 C   0  0  0  0  0  0  0  0  0  0  0  0
    1.0940   -0.4765    0.2121 C   0  0  0  0  0  0  0  0  0  0  0  0
   -0.2674   -0.1002    0.2718 N   0  0  0  0  0  0  0  0  0  0  0  0
   -1.2537   -0.5930   -0.6122 C   0  0  0  0  0  0  0  0  0  0  0  0
   -0.7966   -1.4631   -1.6135 C   0  0  0  0  0  0  0  0  0  0  0  0
   -1.7019   -1.9816   -2.5058 C   0  0  0  0  0  0  0  0  0  0  0  0
   -2.9928   -1.6382   -2.3894 N   0  0  0  0  0  0  0  0  0  0  0  0
   -3.4388   -0.7918   -1.4158 C   0  0  0  0  0  0  0  0  0  0  0  0
   -2.5649   -0.2369   -0.4845 C   0  0  0  0  0  0  0  0  0  0  0  0
   -3.1119    0.6505    0.5255 C   0  0  0  0  0  0  0  0  0  0  0  0
   -2.4396    1.2121    1.4396 O   0  0  0  0  0  0  0  0  0  0  0  0
   -4.5049    0.9807    0.5802 N   0  0  0  0  0  0  0  0  0  0  0  0
   -5.0535    1.8695    1.5918 C   0  0  0  0  0  0  0  0  0  0  0  0
   -6.4275    1.4985    2.0732 C   0  0  0  0  0  0  0  0  0  0  0  0
   -6.2501    2.7242    1.2399 C   0  0  0  0  0  0  0  0  0  0  0  0
   -0.9528   -1.7593    1.7143 H   0  0  0  0  0  0  0  0  0  0  0  0
   -1.0483   -3.5902    1.7422 H   0  0  0  0  0  0  0  0  0  0  0  0
    1.8324   -4.2549   -0.1903 H   0  0  0  0  0  0  0  0  0  0  0  0
    0.2877   -4.8243    0.4940 H   0  0  0  0  0  0  0  0  0  0  0  0
    1.7129   -4.5328    1.6326 H   0  0  0  0  0  0  0  0  0  0  0  0
    3.2662   -3.0190    0.5402 H   0  0  0  0  0  0  0  0  0  0  0  0
    2.9821    2.8421   -1.0078 H   0  0  0  0  0  0  0  0  0  0  0  0
    7.0218    3.7408   -1.9345 H   0  0  0  0  0  0  0  0  0  0  0  0
    7.6736    1.4154   -1.4133 H   0  0  0  0  0  0  0  0  0  0  0  0
    1.6446    1.4645   -0.4077 H   0  0  0  0  0  0  0  0  0  0  0  0
   -0.5137    0.5701    1.0068 H   0  0  0  0  0  0  0  0  0  0  0  0
    0.2431   -1.7352   -1.7049 H   0  0  0  0  0  0  0  0  0  0  0  0
   -1.3300   -2.6529   -3.2733 H   0  0  0  0  0  0  0  0  0  0  0  0
   -4.4960   -0.6039   -1.4398 H   0  0  0  0  0  0  0  0  0  0  0  0
   -5.1708    0.5922   -0.1072 H   0  0  0  0  0  0  0  0  0  0  0  0
   -4.3165    2.2641    2.3056 H   0  0  0  0  0  0  0  0  0  0  0  0
   -6.9391    0.6331    1.5898 H   0  0  0  0  0  0  0  0  0  0  0  0
   -6.7220    1.6541    3.1136 H   0  0  0  0  0  0  0  0  0  0  0  0
   -6.5061    2.6795    0.1584 H   0  0  0  0  0  0  0  0  0  0  0  0
   -6.3232    3.7269    1.7189 H   0  0  0  0  0  0  0  0  0  0  0  0
  1  2  2  3
  2  3  1  0
  2  4  1  0
  4  5  2  0
  5  6  1  0
  6  7  2  0
  7  8  1  0
  8  9  2  0
  9 10  1  0
 10 11  1  0
 10 12  2  0
 12 13  1  0
 13 14  2  0
 14 15  1  0
  7 16  1  0
 16 17  2  0
 17 18  1  0
 18 19  1  0
 19 20  2  0
 20 21  1  0
 21 22  2  0
 22 23  1  0
 23 24  2  0
 24 25  1  0
 25 26  2  0
 25 27  1  0
 27 28  1  0
 28 29  1  0
 29 30  1  0
 17  4  1  0
 24 19  1  0
 30 28  1  0
 14  8  1  0
  1 31  1  0
  1 32  1  0
  3 33  1  0
  3 34  1  0
  3 35  1  0
  5 36  1  0
  9 37  1  0
 12 38  1  0
 13 39  1  0
 16 40  1  0
 18 41  1  0
 20 42  1  0
 21 43  1  0
 23 44  1  0
 27 45  1  0
 28 46  1  0
 29 47  1  0
 29 48  1  0
 30 49  1  0
 30 50  1  0
M  END
$$$$
