
     RDKit          3D

 84 88  0  0  0  0  0  0  0  0999 V2000
   -4.8541    0.5596   -2.3891 C   0  0  0  0  0  0  0  0  0  0  0  0
   -3.8082   -0.4774   -2.1756 C   0  0  0  0  0  0  0  0  0  0  0  0
   -2.4059   -0.0653   -2.3974 C   0  0  0  0  0  0  0  0  0  0  0  0
   -1.8541    1.0135   -1.5171 C   0  0  0  0  0  0  0  0  0  0  0  0
   -1.8287    0.7013   -0.1297 N   0  0  0  0  0  0  0  0  0  0  0  0
   -2.9629    1.1078    0.6926 C   0  0  0  0  0  0  0  0  0  0  0  0
   -3.5420    2.2067    0.4020 O   0  0  0  0  0  0  0  0  0  0  0  0
   -3.3364    0.2168    1.7895 C   0  0  2  0  0  0  0  0  0  0  0  0
   -4.5458    0.5324    2.5652 C   0  0  0  0  0  0  0  0  0  0  0  0
   -5.8719    0.5738    1.9466 C   0  0  0  0  0  0  0  0  0  0  0  0
   -6.2901   -0.7223    1.2787 C   0  0  0  0  0  0  0  0  0  0  0  0
   -7.7833   -0.7169    1.1186 C   0  0  0  0  0  0  0  0  0  0  0  0
   -8.2756    0.5159    0.3915 C   0  0  0  0  0  0  0  0  0  0  0  0
   -7.8350    1.7529    1.1455 C   0  0  0  0  0  0  0  0  0  0  0  0
   -6.2786    1.7234    1.1065 C   0  0  0  0  0  0  0  0  0  0  0  0
   -2.1502    0.1707    2.6865 N   0  0  0  0  0  0  0  0  0  0  0  0
   -0.9066    0.2484    2.0371 C   0  0  0  0  0  0  0  0  0  0  0  0
    0.1083    0.5308    2.7076 O   0  0  0  0  0  0  0  0  0  0  0  0
   -0.7583    0.0030    0.5623 C   0  0  0  0  0  0  0  0  0  0  0  0
    0.5482    0.6170    0.1715 C   0  0  0  0  0  0  0  0  0  0  0  0
    1.6440   -0.3851    0.4913 C   0  0  0  0  0  0  0  0  0  0  0  0
    1.5155   -1.4583   -0.4262 N   0  0  0  0  0  0  0  0  0  0  0  0
    1.9516   -1.1775   -1.7676 C   0  0  0  0  0  0  0  0  0  0  0  0
    3.3708   -0.7889   -1.8820 C   0  0  0  0  0  0  0  0  0  0  0  0
    3.7023    0.5426   -1.8410 C   0  0  0  0  0  0  0  0  0  0  0  0
    5.0019    0.9733   -1.9373 C   0  0  0  0  0  0  0  0  0  0  0  0
    6.0050    0.0387   -2.0800 C   0  0  0  0  0  0  0  0  0  0  0  0
    7.3292    0.4579   -2.1792 O   0  0  0  0  0  0  0  0  0  0  0  0
    8.1561    0.6215   -1.0815 C   0  0  0  0  0  0  0  0  0  0  0  0
    8.9234   -0.4483   -0.6249 C   0  0  0  0  0  0  0  0  0  0  0  0
    9.7632   -0.3563    0.4558 C   0  0  0  0  0  0  0  0  0  0  0  0
    9.8699    0.8356    1.1358 C   0  0  0  0  0  0  0  0  0  0  0  0
   10.7652    0.9217    2.2828 C   0  0  0  0  0  0  0  0  0  0  0  0
   11.4287   -0.0535    2.6568 O   0  0  0  0  0  0  0  0  0  0  0  0
   10.9007    2.1108    2.9948 O   0  0  0  0  0  0  0  0  0  0  0  0
    9.1260    1.9205    0.7149 C   0  0  0  0  0  0  0  0  0  0  0  0
    8.2840    1.8004   -0.3812 C   0  0  0  0  0  0  0  0  0  0  0  0
    5.7002   -1.2994   -2.1240 C   0  0  0  0  0  0  0  0  0  0  0  0
    4.3776   -1.7119   -2.0245 C   0  0  0  0  0  0  0  0  0  0  0  0
    0.2457   -2.1247   -0.4061 C   0  0  0  0  0  0  0  0  0  0  0  0
   -0.8108   -1.4923    0.4004 C   0  0  0  0  0  0  0  0  0  0  0  0
   -4.6489    1.5496   -1.9637 H   0  0  0  0  0  0  0  0  0  0  0  0
   -5.1012    0.6093   -3.4778 H   0  0  0  0  0  0  0  0  0  0  0  0
   -5.7909    0.1819   -1.8913 H   0  0  0  0  0  0  0  0  0  0  0  0
   -3.9667   -0.9882   -1.1919 H   0  0  0  0  0  0  0  0  0  0  0  0
   -4.0240   -1.2987   -2.9239 H   0  0  0  0  0  0  0  0  0  0  0  0
   -2.2426    0.2005   -3.4958 H   0  0  0  0  0  0  0  0  0  0  0  0
   -1.7673   -0.9764   -2.2818 H   0  0  0  0  0  0  0  0  0  0  0  0
   -2.4551    1.9668   -1.6250 H   0  0  0  0  0  0  0  0  0  0  0  0
   -0.8715    1.2741   -1.9057 H   0  0  0  0  0  0  0  0  0  0  0  0
   -3.4211   -0.8704    1.4631 H   0  0  0  0  0  0  0  0  0  0  0  0
   -4.6090   -0.2199    3.4269 H   0  0  0  0  0  0  0  0  0  0  0  0
   -4.3828    1.5303    3.0832 H   0  0  0  0  0  0  0  0  0  0  0  0
   -6.6341    0.6165    2.8416 H   0  0  0  0  0  0  0  0  0  0  0  0
   -5.8403   -0.8186    0.2841 H   0  0  0  0  0  0  0  0  0  0  0  0
   -6.0319   -1.5697    1.9552 H   0  0  0  0  0  0  0  0  0  0  0  0
   -8.2863   -0.7298    2.1022 H   0  0  0  0  0  0  0  0  0  0  0  0
   -8.0853   -1.5938    0.5083 H   0  0  0  0  0  0  0  0  0  0  0  0
   -7.7790    0.5579   -0.6004 H   0  0  0  0  0  0  0  0  0  0  0  0
   -9.3698    0.4344    0.3212 H   0  0  0  0  0  0  0  0  0  0  0  0
   -8.1009    1.7156    2.2026 H   0  0  0  0  0  0  0  0  0  0  0  0
   -8.1303    2.6699    0.6328 H   0  0  0  0  0  0  0  0  0  0  0  0
   -5.9157    2.7072    1.4782 H   0  0  0  0  0  0  0  0  0  0  0  0
   -6.0750    1.5452    0.0340 H   0  0  0  0  0  0  0  0  0  0  0  0
   -2.2629    0.0865    3.7185 H   0  0  0  0  0  0  0  0  0  0  0  0
    0.6787    0.9011   -0.8636 H   0  0  0  0  0  0  0  0  0  0  0  0
    0.7535    1.4895    0.8412 H   0  0  0  0  0  0  0  0  0  0  0  0
    1.6632   -0.7069    1.5417 H   0  0  0  0  0  0  0  0  0  0  0  0
    2.6085    0.1300    0.3187 H   0  0  0  0  0  0  0  0  0  0  0  0
    1.7805   -2.1298   -2.3465 H   0  0  0  0  0  0  0  0  0  0  0  0
    1.2813   -0.4317   -2.2767 H   0  0  0  0  0  0  0  0  0  0  0  0
    2.9405    1.2791   -1.7354 H   0  0  0  0  0  0  0  0  0  0  0  0
    5.2759    2.0283   -1.9057 H   0  0  0  0  0  0  0  0  0  0  0  0
    8.8193   -1.3751   -1.1797 H   0  0  0  0  0  0  0  0  0  0  0  0
   10.3575   -1.2066    0.7997 H   0  0  0  0  0  0  0  0  0  0  0  0
   11.7262    2.2569    3.5640 H   0  0  0  0  0  0  0  0  0  0  0  0
    9.2014    2.8611    1.2403 H   0  0  0  0  0  0  0  0  0  0  0  0
    7.7122    2.6630   -0.6906 H   0  0  0  0  0  0  0  0  0  0  0  0
    6.4759   -2.0262   -2.2346 H   0  0  0  0  0  0  0  0  0  0  0  0
    4.1296   -2.7622   -2.0582 H   0  0  0  0  0  0  0  0  0  0  0  0
   -0.0208   -2.3640   -1.4601 H   0  0  0  0  0  0  0  0  0  0  0  0
    0.4592   -3.1510    0.0268 H   0  0  0  0  0  0  0  0  0  0  0  0
   -0.8676   -2.0157    1.4057 H   0  0  0  0  0  0  0  0  0  0  0  0
   -1.8015   -1.7345   -0.0515 H   0  0  0  0  0  0  0  0  0  0  0  0
  1  2  1  0
  2  3  1  0
  3  4  1  0
  4  5  1  0
  5  6  1  0
  6  7  2  0
  6  8  1  0
  8  9  1  0
  9 10  1  0
 10 11  1  0
 11 12  1  0
 12 13  1  0
 13 14  1  0
 14 15  1  0
  8 16  1  0
 16 17  1  0
 17 18  2  0
 17 19  1  0
 19 20  1  0
 20 21  1  0
 21 22  1  0
 22 23  1  0
 23 24  1  0
 24 25  2  0
 25 26  1  0
 26 27  2  0
 27 28  1  0
 28 29  1  0
 29 30  2  0
 30 31  1  0
 31 32  2  0
 32 33  1  0
 33 34  2  0
 33 35  1  0
 32 36  1  0
 36 37  2  0
 27 38  1  0
 38 39  2  0
 22 40  1  0
 40 41  1  0
 19  5  1  0
 39 24  1  0
 15 10  1  0
 41 19  1  0
 37 29  1  0
  1 42  1  0
  1 43  1  0
  1 44  1  0
  2 45  1  0
  2 46  1  0
  3 47  1  0
  3 48  1  0
  4 49  1  0
  4 50  1  0
  8 51  1  6
  9 52  1  0
  9 53  1  0
 10 54  1  0
 11 55  1  0
 11 56  1  0
 12 57  1  0
 12 58  1  0
 13 59  1  0
 13 60  1  0
 14 61  1  0
 14 62  1  0
 15 63  1  0
 15 64  1  0
 16 65  1  0
 20 66  1  0
 20 67  1  0
 21 68  1  0
 21 69  1  0
 23 70  1  0
 23 71  1  0
 25 72  1  0
 26 73  1  0
 30 74  1  0
 31 75  1  0
 35 76  1  0
 36 77  1  0
 37 78  1  0
 38 79  1  0
 39 80  1  0
 40 81  1  0
 40 82  1  0
 41 83  1  0
 41 84  1  0
M  END
$$$$
