@<TRIPOS>MOLECULE
*****
 84 88 0 0 0
SMALL
GASTEIGER

@<TRIPOS>ATOM
      1 C          -4.8541    0.5596   -2.3891 C.3     1  UNL1       -0.0652
      2 C          -3.8082   -0.4774   -2.1756 C.3     1  UNL1       -0.0545
      3 C          -2.4059   -0.0653   -2.3974 C.3     1  UNL1       -0.0374
      4 C          -1.8541    1.0135   -1.5171 C.3     1  UNL1        0.0158
      5 N          -1.8287    0.7013   -0.1297 N.am    1  UNL1       -0.2856
      6 C          -2.9629    1.1078    0.6926 C.2     1  UNL1        0.2367
      7 O          -3.5420    2.2067    0.4020 O.2     1  UNL1       -0.2735
      8 C          -3.3364    0.2168    1.7895 C.3     1  UNL1        0.0999
      9 C          -4.5458    0.5324    2.5652 C.3     1  UNL1       -0.0231
     10 C          -5.8719    0.5738    1.9466 C.3     1  UNL1       -0.0389
     11 C          -6.2901   -0.7223    1.2787 C.3     1  UNL1       -0.0501
     12 C          -7.7833   -0.7169    1.1186 C.3     1  UNL1       -0.0528
     13 C          -8.2756    0.5159    0.3915 C.3     1  UNL1       -0.0530
     14 C          -7.8350    1.7529    1.1455 C.3     1  UNL1       -0.0528
     15 C          -6.2786    1.7234    1.1065 C.3     1  UNL1       -0.0501
     16 N          -2.1502    0.1707    2.6865 N.am    1  UNL1       -0.3022
     17 C          -0.9066    0.2484    2.0371 C.2     1  UNL1        0.2374
     18 O           0.1083    0.5308    2.7076 O.2     1  UNL1       -0.2734
     19 C          -0.7583    0.0030    0.5623 C.3     1  UNL1        0.1156
     20 C           0.5482    0.6170    0.1715 C.3     1  UNL1       -0.0100
     21 C           1.6440   -0.3851    0.4913 C.3     1  UNL1        0.0016
     22 N           1.5155   -1.4583   -0.4262 N.3     1  UNL1       -0.2980
     23 C           1.9516   -1.1775   -1.7676 C.3     1  UNL1        0.0240
     24 C           3.3708   -0.7889   -1.8820 C.ar    1  UNL1       -0.0331
     25 C           3.7023    0.5426   -1.8410 C.ar    1  UNL1       -0.0539
     26 C           5.0019    0.9733   -1.9373 C.ar    1  UNL1       -0.0190
     27 C           6.0050    0.0387   -2.0800 C.ar    1  UNL1        0.1285
     28 O           7.3292    0.4579   -2.1792 O.3     1  UNL1       -0.4560
     29 C           8.1561    0.6215   -1.0815 C.ar    1  UNL1        0.1285
     30 C           8.9234   -0.4483   -0.6249 C.ar    1  UNL1       -0.0186
     31 C           9.7632   -0.3563    0.4558 C.ar    1  UNL1       -0.0443
     32 C           9.8699    0.8356    1.1358 C.ar    1  UNL1        0.0591
     33 C          10.7652    0.9217    2.2828 C.2     1  UNL1        0.3368
     34 O          11.4287   -0.0535    2.6568 O.2     1  UNL1       -0.2451
     35 O          10.9007    2.1108    2.9948 O.3     1  UNL1       -0.4771
     36 C           9.1260    1.9205    0.7149 C.ar    1  UNL1       -0.0443
     37 C           8.2840    1.8004   -0.3812 C.ar    1  UNL1       -0.0186
     38 C           5.7002   -1.2994   -2.1240 C.ar    1  UNL1       -0.0190
     39 C           4.3776   -1.7119   -2.0245 C.ar    1  UNL1       -0.0539
     40 C           0.2457   -2.1247   -0.4061 C.3     1  UNL1        0.0016
     41 C          -0.8108   -1.4923    0.4004 C.3     1  UNL1       -0.0100
     42 H          -4.6489    1.5496   -1.9637 H       1  UNL1        0.0230
     43 H          -5.1012    0.6093   -3.4778 H       1  UNL1        0.0230
     44 H          -5.7909    0.1819   -1.8913 H       1  UNL1        0.0230
     45 H          -3.9667   -0.9882   -1.1919 H       1  UNL1        0.0263
     46 H          -4.0240   -1.2987   -2.9239 H       1  UNL1        0.0263
     47 H          -2.2426    0.2005   -3.4958 H       1  UNL1        0.0280
     48 H          -1.7673   -0.9764   -2.2818 H       1  UNL1        0.0280
     49 H          -2.4551    1.9668   -1.6250 H       1  UNL1        0.0465
     50 H          -0.8715    1.2741   -1.9057 H       1  UNL1        0.0465
     51 H          -3.4211   -0.8704    1.4631 H       1  UNL1        0.0595
     52 H          -4.6090   -0.2199    3.4269 H       1  UNL1        0.0290
     53 H          -4.3828    1.5303    3.0832 H       1  UNL1        0.0290
     54 H          -6.6341    0.6165    2.8416 H       1  UNL1        0.0301
     55 H          -5.8403   -0.8186    0.2841 H       1  UNL1        0.0268
     56 H          -6.0319   -1.5697    1.9552 H       1  UNL1        0.0268
     57 H          -8.2863   -0.7298    2.1022 H       1  UNL1        0.0265
     58 H          -8.0853   -1.5938    0.5083 H       1  UNL1        0.0265
     59 H          -7.7790    0.5579   -0.6004 H       1  UNL1        0.0265
     60 H          -9.3698    0.4344    0.3212 H       1  UNL1        0.0265
     61 H          -8.1009    1.7156    2.2026 H       1  UNL1        0.0265
     62 H          -8.1303    2.6699    0.6328 H       1  UNL1        0.0265
     63 H          -5.9157    2.7072    1.4782 H       1  UNL1        0.0268
     64 H          -6.0750    1.5452    0.0340 H       1  UNL1        0.0268
     65 H          -2.2629    0.0865    3.7185 H       1  UNL1        0.1495
     66 H           0.6787    0.9011   -0.8636 H       1  UNL1        0.0303
     67 H           0.7535    1.4895    0.8412 H       1  UNL1        0.0303
     68 H           1.6632   -0.7069    1.5417 H       1  UNL1        0.0427
     69 H           2.6085    0.1300    0.3187 H       1  UNL1        0.0427
     70 H           1.7805   -2.1298   -2.3465 H       1  UNL1        0.0476
     71 H           1.2813   -0.4317   -2.2767 H       1  UNL1        0.0476
     72 H           2.9405    1.2791   -1.7354 H       1  UNL1        0.0622
     73 H           5.2759    2.0283   -1.9057 H       1  UNL1        0.0654
     74 H           8.8193   -1.3751   -1.1797 H       1  UNL1        0.0654
     75 H          10.3575   -1.2066    0.7997 H       1  UNL1        0.0627
     76 H          11.7262    2.2569    3.5640 H       1  UNL1        0.2954
     77 H           9.2014    2.8611    1.2403 H       1  UNL1        0.0627
     78 H           7.7122    2.6630   -0.6906 H       1  UNL1        0.0654
     79 H           6.4759   -2.0262   -2.2346 H       1  UNL1        0.0654
     80 H           4.1296   -2.7622   -2.0582 H       1  UNL1        0.0622
     81 H          -0.0208   -2.3640   -1.4601 H       1  UNL1        0.0427
     82 H           0.4592   -3.1510    0.0268 H       1  UNL1        0.0427
     83 H          -0.8676   -2.0157    1.4057 H       1  UNL1        0.0303
     84 H          -1.8015   -1.7345   -0.0515 H       1  UNL1        0.0303
@<TRIPOS>BOND
     1     1     2    1
     2     2     3    1
     3     3     4    1
     4     4     5    1
     5     5     6   am
     6     6     7    2
     7     6     8    1
     8     8     9    1
     9     9    10    1
    10    10    11    1
    11    11    12    1
    12    12    13    1
    13    13    14    1
    14    14    15    1
    15     8    16    1
    16    16    17   am
    17    17    18    2
    18    17    19    1
    19    19    20    1
    20    20    21    1
    21    21    22    1
    22    22    23    1
    23    23    24    1
    24    24    25   ar
    25    25    26   ar
    26    26    27   ar
    27    27    28    1
    28    28    29    1
    29    29    30   ar
    30    30    31   ar
    31    31    32   ar
    32    32    33    1
    33    33    34    2
    34    33    35    1
    35    32    36   ar
    36    36    37   ar
    37    27    38   ar
    38    38    39   ar
    39    22    40    1
    40    40    41    1
    41    19     5    1
    42    39    24   ar
    43    15    10    1
    44    41    19    1
    45    37    29   ar
    46     1    42    1
    47     1    43    1
    48     1    44    1
    49     2    45    1
    50     2    46    1
    51     3    47    1
    52     3    48    1
    53     4    49    1
    54     4    50    1
    55     8    51    1
    56     9    52    1
    57     9    53    1
    58    10    54    1
    59    11    55    1
    60    11    56    1
    61    12    57    1
    62    12    58    1
    63    13    59    1
    64    13    60    1
    65    14    61    1
    66    14    62    1
    67    15    63    1
    68    15    64    1
    69    16    65    1
    70    20    66    1
    71    20    67    1
    72    21    68    1
    73    21    69    1
    74    23    70    1
    75    23    71    1
    76    25    72    1
    77    26    73    1
    78    30    74    1
    79    31    75    1
    80    35    76    1
    81    36    77    1
    82    37    78    1
    83    38    79    1
    84    39    80    1
    85    40    81    1
    86    40    82    1
    87    41    83    1
    88    41    84    1
