
     RDKit          3D

 63 66  0  0  0  0  0  0  0  0999 V2000
    4.1909    1.5544    1.8302 C   0  0  0  0  0  0  0  0  0  0  0  0
    4.5770    0.1277    1.6427 C   0  0  0  0  0  0  0  0  0  0  0  0
    3.5153   -0.7952    1.4650 N   0  0  0  0  0  0  0  0  0  0  0  0
    4.1530   -2.1245    1.3397 C   0  0  0  0  0  0  0  0  0  0  0  0
    4.8947   -2.1966    0.0486 C   0  0  0  0  0  0  0  0  0  0  0  0
    5.9000   -3.1169   -0.0666 C   0  0  0  0  0  0  0  0  0  0  0  0
    6.6385   -3.2396   -1.2486 C   0  0  0  0  0  0  0  0  0  0  0  0
    6.3718   -2.4414   -2.3171 C   0  0  0  0  0  0  0  0  0  0  0  0
    5.3440   -1.5076   -2.1857 C   0  0  0  0  0  0  0  0  0  0  0  0
    4.6214   -1.3922   -1.0198 C   0  0  0  0  0  0  0  0  0  0  0  0
    3.5365   -0.3679   -0.9660 C   0  0  0  0  0  0  0  0  0  0  0  0
    2.7299   -0.6584    0.2650 C   0  0  2  0  0  0  0  0  0  0  0  0
    1.5610    0.2229    0.4158 C   0  0  0  0  0  0  0  0  0  0  0  0
    1.2673    0.8313    1.4703 O   0  0  0  0  0  0  0  0  0  0  0  0
    0.7074    0.3983   -0.7010 N   0  0  0  0  0  0  0  0  0  0  0  0
   -0.4133    1.2413   -0.5616 C   0  0  0  0  0  0  0  0  0  0  0  0
   -0.3284    2.5720   -0.8343 C   0  0  0  0  0  0  0  0  0  0  0  0
   -1.4529    3.3820   -0.6894 C   0  0  0  0  0  0  0  0  0  0  0  0
   -1.3833    4.7236   -0.9607 F   0  0  0  0  0  0  0  0  0  0  0  0
   -2.6721    2.8951   -0.2751 C   0  0  0  0  0  0  0  0  0  0  0  0
   -3.8391    3.7450   -0.1258 C   0  0  0  0  0  0  0  0  0  0  0  0
   -4.2757    4.6985   -1.0047 C   0  0  0  0  0  0  0  0  0  0  0  0
   -5.3913    5.2649   -0.4998 N   0  0  0  0  0  0  0  0  0  0  0  0
   -5.6739    4.7051    0.6624 N   0  0  0  0  0  0  0  0  0  0  0  0
   -4.7243    3.7560    0.9196 C   0  0  0  0  0  0  0  0  0  0  0  0
   -2.7398    1.5228    0.0015 C   0  0  0  0  0  0  0  0  0  0  0  0
   -1.6441    0.7044   -0.1352 C   0  0  0  0  0  0  0  0  0  0  0  0
   -1.7366   -0.6290    0.1437 O   0  0  0  0  0  0  0  0  0  0  0  0
   -2.7726   -1.4128    0.5399 C   0  0  0  0  0  0  0  0  0  0  0  0
   -3.8864   -1.5511   -0.4388 C   0  0  0  0  0  0  0  0  0  0  0  0
   -4.9505   -2.4024    0.0694 N   0  0  0  0  0  0  0  0  0  0  0  0
   -6.0063   -2.5037   -0.9240 C   0  0  0  0  0  0  0  0  0  0  0  0
   -5.4998   -1.8852    1.3080 C   0  0  0  0  0  0  0  0  0  0  0  0
    5.0927    2.2195    1.9704 H   0  0  0  0  0  0  0  0  0  0  0  0
    3.5493    1.7513    2.6909 H   0  0  0  0  0  0  0  0  0  0  0  0
    3.7062    1.9439    0.9195 H   0  0  0  0  0  0  0  0  0  0  0  0
    5.1031   -0.1763    2.5965 H   0  0  0  0  0  0  0  0  0  0  0  0
    5.3800    0.0482    0.8645 H   0  0  0  0  0  0  0  0  0  0  0  0
    3.3884   -2.9180    1.4362 H   0  0  0  0  0  0  0  0  0  0  0  0
    4.9375   -2.2300    2.1391 H   0  0  0  0  0  0  0  0  0  0  0  0
    6.1926   -3.8013    0.7260 H   0  0  0  0  0  0  0  0  0  0  0  0
    7.4397   -3.9728   -1.3413 H   0  0  0  0  0  0  0  0  0  0  0  0
    6.9490   -2.5448   -3.2262 H   0  0  0  0  0  0  0  0  0  0  0  0
    5.1522   -0.8858   -3.0488 H   0  0  0  0  0  0  0  0  0  0  0  0
    2.8428   -0.4991   -1.8494 H   0  0  0  0  0  0  0  0  0  0  0  0
    3.9121    0.6501   -1.0643 H   0  0  0  0  0  0  0  0  0  0  0  0
    2.2736   -1.6810    0.0777 H   0  0  0  0  0  0  0  0  0  0  0  0
    0.8961   -0.0941   -1.6330 H   0  0  0  0  0  0  0  0  0  0  0  0
    0.5951    3.0563   -1.1696 H   0  0  0  0  0  0  0  0  0  0  0  0
   -3.8360    4.9884   -1.9585 H   0  0  0  0  0  0  0  0  0  0  0  0
   -6.4829    4.9447    1.2804 H   0  0  0  0  0  0  0  0  0  0  0  0
   -4.6815    3.1313    1.7870 H   0  0  0  0  0  0  0  0  0  0  0  0
   -3.7095    1.1949    0.3438 H   0  0  0  0  0  0  0  0  0  0  0  0
   -3.1968   -1.0533    1.5181 H   0  0  0  0  0  0  0  0  0  0  0  0
   -2.3838   -2.4429    0.7488 H   0  0  0  0  0  0  0  0  0  0  0  0
   -3.4863   -2.1007   -1.3433 H   0  0  0  0  0  0  0  0  0  0  0  0
   -4.3566   -0.6306   -0.7869 H   0  0  0  0  0  0  0  0  0  0  0  0
   -6.9698   -2.8103   -0.4758 H   0  0  0  0  0  0  0  0  0  0  0  0
   -5.7238   -3.2948   -1.6622 H   0  0  0  0  0  0  0  0  0  0  0  0
   -6.1002   -1.5637   -1.5106 H   0  0  0  0  0  0  0  0  0  0  0  0
   -6.5181   -2.3556    1.4071 H   0  0  0  0  0  0  0  0  0  0  0  0
   -5.6760   -0.8084    1.2224 H   0  0  0  0  0  0  0  0  0  0  0  0
   -4.9076   -2.1862    2.1741 H   0  0  0  0  0  0  0  0  0  0  0  0
  1  2  1  0
  2  3  1  0
  3  4  1  0
  4  5  1  0
  5  6  2  0
  6  7  1  0
  7  8  2  0
  8  9  1  0
  9 10  2  0
 10 11  1  0
 11 12  1  0
 12 13  1  0
 13 14  2  0
 13 15  1  0
 15 16  1  0
 16 17  2  0
 17 18  1  0
 18 19  1  0
 18 20  2  0
 20 21  1  0
 21 22  1  0
 22 23  2  0
 23 24  1  0
 24 25  1  0
 20 26  1  0
 26 27  2  0
 27 28  1  0
 28 29  1  0
 29 30  1  0
 30 31  1  0
 31 32  1  0
 31 33  1  0
 12  3  1  0
 27 16  1  0
 10  5  1  0
 25 21  2  0
  1 34  1  0
  1 35  1  0
  1 36  1  0
  2 37  1  0
  2 38  1  0
  4 39  1  0
  4 40  1  0
  6 41  1  0
  7 42  1  0
  8 43  1  0
  9 44  1  0
 11 45  1  0
 11 46  1  0
 12 47  1  6
 15 48  1  0
 17 49  1  0
 22 50  1  0
 24 51  1  0
 25 52  1  0
 26 53  1  0
 29 54  1  0
 29 55  1  0
 30 56  1  0
 30 57  1  0
 32 58  1  0
 32 59  1  0
 32 60  1  0
 33 61  1  0
 33 62  1  0
 33 63  1  0
M  END
$$$$
