@<TRIPOS>MOLECULE
*****
 63 66 0 0 0
SMALL
GASTEIGER

@<TRIPOS>ATOM
      1 C           4.1909    1.5544    1.8302 C.3     1  UNL1       -0.0523
      2 C           4.5770    0.1277    1.6427 C.3     1  UNL1       -0.0029
      3 N           3.5153   -0.7952    1.4650 N.3     1  UNL1       -0.2873
      4 C           4.1530   -2.1245    1.3397 C.3     1  UNL1        0.0250
      5 C           4.8947   -2.1966    0.0486 C.ar    1  UNL1       -0.0301
      6 C           5.9000   -3.1169   -0.0666 C.ar    1  UNL1       -0.0571
      7 C           6.6385   -3.2396   -1.2486 C.ar    1  UNL1       -0.0614
      8 C           6.3718   -2.4414   -2.3171 C.ar    1  UNL1       -0.0615
      9 C           5.3440   -1.5076   -2.1857 C.ar    1  UNL1       -0.0582
     10 C           4.6214   -1.3922   -1.0198 C.ar    1  UNL1       -0.0410
     11 C           3.5365   -0.3679   -0.9660 C.3     1  UNL1       -0.0032
     12 C           2.7299   -0.6584    0.2650 C.3     1  UNL1        0.0918
     13 C           1.5610    0.2229    0.4158 C.2     1  UNL1        0.2349
     14 O           1.2673    0.8313    1.4703 O.2     1  UNL1       -0.2737
     15 N           0.7074    0.3983   -0.7010 N.am    1  UNL1       -0.2812
     16 C          -0.4133    1.2413   -0.5616 C.ar    1  UNL1        0.0784
     17 C          -0.3284    2.5720   -0.8343 C.ar    1  UNL1       -0.0010
     18 C          -1.4529    3.3820   -0.6894 C.ar    1  UNL1        0.1331
     19 F          -1.3833    4.7236   -0.9607 F       1  UNL1       -0.2048
     20 C          -2.6721    2.8951   -0.2751 C.ar    1  UNL1        0.0238
     21 C          -3.8391    3.7450   -0.1258 C.ar    1  UNL1        0.0222
     22 C          -4.2757    4.6985   -1.0047 C.ar    1  UNL1        0.0569
     23 N          -5.3913    5.2649   -0.4998 N.ar    1  UNL1       -0.1817
     24 N          -5.6739    4.7051    0.6624 N.ar    1  UNL1       -0.2841
     25 C          -4.7243    3.7560    0.9196 C.ar    1  UNL1        0.0301
     26 C          -2.7398    1.5228    0.0015 C.ar    1  UNL1       -0.0075
     27 C          -1.6441    0.7044   -0.1352 C.ar    1  UNL1        0.1424
     28 O          -1.7366   -0.6290    0.1437 O.3     1  UNL1       -0.4888
     29 C          -2.7726   -1.4128    0.5399 C.3     1  UNL1        0.1023
     30 C          -3.8864   -1.5511   -0.4388 C.3     1  UNL1        0.0325
     31 N          -4.9505   -2.4024    0.0694 N.3     1  UNL1       -0.3051
     32 C          -6.0063   -2.5037   -0.9240 C.3     1  UNL1       -0.0129
     33 C          -5.4998   -1.8852    1.3080 C.3     1  UNL1       -0.0129
     34 H           5.0927    2.2195    1.9704 H       1  UNL1        0.0242
     35 H           3.5493    1.7513    2.6909 H       1  UNL1        0.0242
     36 H           3.7062    1.9439    0.9195 H       1  UNL1        0.0242
     37 H           5.1031   -0.1763    2.5965 H       1  UNL1        0.0424
     38 H           5.3800    0.0482    0.8645 H       1  UNL1        0.0424
     39 H           3.3884   -2.9180    1.4362 H       1  UNL1        0.0476
     40 H           4.9375   -2.2300    2.1391 H       1  UNL1        0.0476
     41 H           6.1926   -3.8013    0.7260 H       1  UNL1        0.0621
     42 H           7.4397   -3.9728   -1.3413 H       1  UNL1        0.0618
     43 H           6.9490   -2.5448   -3.2262 H       1  UNL1        0.0618
     44 H           5.1522   -0.8858   -3.0488 H       1  UNL1        0.0620
     45 H           2.8428   -0.4991   -1.8494 H       1  UNL1        0.0333
     46 H           3.9121    0.6501   -1.0643 H       1  UNL1        0.0333
     47 H           2.2736   -1.6810    0.0777 H       1  UNL1        0.0562
     48 H           0.8961   -0.0941   -1.6330 H       1  UNL1        0.1550
     49 H           0.5951    3.0563   -1.1696 H       1  UNL1        0.0666
     50 H          -3.8360    4.9884   -1.9585 H       1  UNL1        0.0854
     51 H          -6.4829    4.9447    1.2804 H       1  UNL1        0.1882
     52 H          -4.6815    3.1313    1.7870 H       1  UNL1        0.0830
     53 H          -3.7095    1.1949    0.3438 H       1  UNL1        0.0662
     54 H          -3.1968   -1.0533    1.5181 H       1  UNL1        0.0709
     55 H          -2.3838   -2.4429    0.7488 H       1  UNL1        0.0709
     56 H          -3.4863   -2.1007   -1.3433 H       1  UNL1        0.0460
     57 H          -4.3566   -0.6306   -0.7869 H       1  UNL1        0.0460
     58 H          -6.9698   -2.8103   -0.4758 H       1  UNL1        0.0391
     59 H          -5.7238   -3.2948   -1.6622 H       1  UNL1        0.0391
     60 H          -6.1002   -1.5637   -1.5106 H       1  UNL1        0.0391
     61 H          -6.5181   -2.3556    1.4071 H       1  UNL1        0.0391
     62 H          -5.6760   -0.8084    1.2224 H       1  UNL1        0.0391
     63 H          -4.9076   -2.1862    2.1741 H       1  UNL1        0.0391
@<TRIPOS>BOND
     1     1     2    1
     2     2     3    1
     3     3     4    1
     4     4     5    1
     5     5     6   ar
     6     6     7   ar
     7     7     8   ar
     8     8     9   ar
     9     9    10   ar
    10    10    11    1
    11    11    12    1
    12    12    13    1
    13    13    14    2
    14    13    15   am
    15    15    16    1
    16    16    17   ar
    17    17    18   ar
    18    18    19    1
    19    18    20   ar
    20    20    21    1
    21    21    22   ar
    22    22    23   ar
    23    23    24   ar
    24    24    25   ar
    25    20    26   ar
    26    26    27   ar
    27    27    28    1
    28    28    29    1
    29    29    30    1
    30    30    31    1
    31    31    32    1
    32    31    33    1
    33    12     3    1
    34    27    16   ar
    35    10     5   ar
    36    25    21   ar
    37     1    34    1
    38     1    35    1
    39     1    36    1
    40     2    37    1
    41     2    38    1
    42     4    39    1
    43     4    40    1
    44     6    41    1
    45     7    42    1
    46     8    43    1
    47     9    44    1
    48    11    45    1
    49    11    46    1
    50    12    47    1
    51    15    48    1
    52    17    49    1
    53    22    50    1
    54    24    51    1
    55    25    52    1
    56    26    53    1
    57    29    54    1
    58    29    55    1
    59    30    56    1
    60    30    57    1
    61    32    58    1
    62    32    59    1
    63    32    60    1
    64    33    61    1
    65    33    62    1
    66    33    63    1
