@<TRIPOS>MOLECULE
*****
 31 33 0 0 0
SMALL
GASTEIGER

@<TRIPOS>ATOM
      1 C           3.9860    1.7723   -0.7145 C.3     1  UNL1       -0.0223
      2 C           3.0307    0.6297   -0.6773 C.ar    1  UNL1        0.0390
      3 C           3.0384   -0.2901   -1.7133 C.ar    1  UNL1       -0.0406
      4 C           2.1474   -1.3331   -1.6532 C.ar    1  UNL1       -0.0580
      5 C           1.2724   -1.4343   -0.5649 C.ar    1  UNL1       -0.0341
      6 C           1.2909   -0.5046    0.4458 C.ar    1  UNL1        0.0918
      7 C           0.3745   -0.6155    1.5682 C.ar    1  UNL1        0.1183
      8 N           0.6835   -0.9328    2.8606 N.ar    1  UNL1       -0.1717
      9 N          -0.3824   -0.9427    3.6080 N.ar    1  UNL1       -0.2835
     10 C          -1.4401   -0.6321    2.8394 C.ar    1  UNL1        0.0307
     11 C          -0.9765   -0.4245    1.5561 C.ar    1  UNL1        0.0287
     12 C          -1.8681   -0.0681    0.4612 C.ar    1  UNL1       -0.0141
     13 C          -2.1364   -0.9474   -0.5570 C.ar    1  UNL1       -0.0512
     14 C          -2.9833   -0.5442   -1.5625 C.ar    1  UNL1       -0.0259
     15 C          -3.5562    0.7156   -1.5566 C.ar    1  UNL1        0.1234
     16 F          -4.3881    1.0919   -2.5588 F       1  UNL1       -0.2055
     17 C          -3.2604    1.5758   -0.5093 C.ar    1  UNL1       -0.0259
     18 C          -2.4152    1.1941    0.5083 C.ar    1  UNL1       -0.0512
     19 N           2.1850    0.5084    0.3481 N.ar    1  UNL1       -0.2503
     20 H           3.5022    2.7371   -0.5127 H       1  UNL1        0.0292
     21 H           4.7703    1.5895    0.0556 H       1  UNL1        0.0292
     22 H           4.5144    1.8050   -1.6900 H       1  UNL1        0.0292
     23 H           3.6991   -0.2355   -2.5599 H       1  UNL1        0.0635
     24 H           2.1403   -2.0585   -2.4517 H       1  UNL1        0.0619
     25 H           0.6135   -2.2632   -0.5750 H       1  UNL1        0.0639
     26 H          -0.4966   -1.1445    4.6346 H       1  UNL1        0.1882
     27 H          -2.4792   -0.5577    3.1691 H       1  UNL1        0.0830
     28 H          -1.7305   -1.9253   -0.6130 H       1  UNL1        0.0624
     29 H          -3.2369   -1.2046   -2.4063 H       1  UNL1        0.0646
     30 H          -3.7091    2.5509   -0.5128 H       1  UNL1        0.0646
     31 H          -2.1896    1.8884    1.3339 H       1  UNL1        0.0624
@<TRIPOS>BOND
     1     1     2    1
     2     2     3   ar
     3     3     4   ar
     4     4     5   ar
     5     5     6   ar
     6     6     7    1
     7     7     8   ar
     8     8     9   ar
     9     9    10   ar
    10    10    11   ar
    11    11    12    1
    12    12    13   ar
    13    13    14   ar
    14    14    15   ar
    15    15    16    1
    16    15    17   ar
    17    17    18   ar
    18     6    19   ar
    19    19     2   ar
    20    11     7   ar
    21    18    12   ar
    22     1    20    1
    23     1    21    1
    24     1    22    1
    25     3    23    1
    26     4    24    1
    27     5    25    1
    28     9    26    1
    29    10    27    1
    30    13    28    1
    31    14    29    1
    32    17    30    1
    33    18    31    1
