
     RDKit          3D

 31 33  0  0  0  0  0  0  0  0999 V2000
    3.9860    1.7723   -0.7145 C   0  0  0  0  0  0  0  0  0  0  0  0
    3.0307    0.6297   -0.6773 C   0  0  0  0  0  0  0  0  0  0  0  0
    3.0384   -0.2901   -1.7133 C   0  0  0  0  0  0  0  0  0  0  0  0
    2.1474   -1.3331   -1.6532 C   0  0  0  0  0  0  0  0  0  0  0  0
    1.2724   -1.4343   -0.5649 C   0  0  0  0  0  0  0  0  0  0  0  0
    1.2909   -0.5046    0.4458 C   0  0  0  0  0  0  0  0  0  0  0  0
    0.3745   -0.6155    1.5682 C   0  0  0  0  0  0  0  0  0  0  0  0
    0.6835   -0.9328    2.8606 N   0  0  0  0  0  0  0  0  0  0  0  0
   -0.3824   -0.9427    3.6080 N   0  0  0  0  0  0  0  0  0  0  0  0
   -1.4401   -0.6321    2.8394 C   0  0  0  0  0  0  0  0  0  0  0  0
   -0.9765   -0.4245    1.5561 C   0  0  0  0  0  0  0  0  0  0  0  0
   -1.8681   -0.0681    0.4612 C   0  0  0  0  0  0  0  0  0  0  0  0
   -2.1364   -0.9474   -0.5570 C   0  0  0  0  0  0  0  0  0  0  0  0
   -2.9833   -0.5442   -1.5625 C   0  0  0  0  0  0  0  0  0  0  0  0
   -3.5562    0.7156   -1.5566 C   0  0  0  0  0  0  0  0  0  0  0  0
   -4.3881    1.0919   -2.5588 F   0  0  0  0  0  0  0  0  0  0  0  0
   -3.2604    1.5758   -0.5093 C   0  0  0  0  0  0  0  0  0  0  0  0
   -2.4152    1.1941    0.5083 C   0  0  0  0  0  0  0  0  0  0  0  0
    2.1850    0.5084    0.3481 N   0  0  0  0  0  0  0  0  0  0  0  0
    3.5022    2.7371   -0.5127 H   0  0  0  0  0  0  0  0  0  0  0  0
    4.7703    1.5895    0.0556 H   0  0  0  0  0  0  0  0  0  0  0  0
    4.5144    1.8050   -1.6900 H   0  0  0  0  0  0  0  0  0  0  0  0
    3.6991   -0.2355   -2.5599 H   0  0  0  0  0  0  0  0  0  0  0  0
    2.1403   -2.0585   -2.4517 H   0  0  0  0  0  0  0  0  0  0  0  0
    0.6135   -2.2632   -0.5750 H   0  0  0  0  0  0  0  0  0  0  0  0
   -0.4966   -1.1445    4.6346 H   0  0  0  0  0  0  0  0  0  0  0  0
   -2.4792   -0.5577    3.1691 H   0  0  0  0  0  0  0  0  0  0  0  0
   -1.7305   -1.9253   -0.6130 H   0  0  0  0  0  0  0  0  0  0  0  0
   -3.2369   -1.2046   -2.4063 H   0  0  0  0  0  0  0  0  0  0  0  0
   -3.7091    2.5509   -0.5128 H   0  0  0  0  0  0  0  0  0  0  0  0
   -2.1896    1.8884    1.3339 H   0  0  0  0  0  0  0  0  0  0  0  0
  1  2  1  0
  2  3  2  0
  3  4  1  0
  4  5  2  0
  5  6  1  0
  6  7  1  0
  7  8  2  0
  8  9  1  0
  9 10  1  0
 10 11  2  0
 11 12  1  0
 12 13  2  0
 13 14  1  0
 14 15  2  0
 15 16  1  0
 15 17  1  0
 17 18  2  0
  6 19  2  0
 19  2  1  0
 11  7  1  0
 18 12  1  0
  1 20  1  0
  1 21  1  0
  1 22  1  0
  3 23  1  0
  4 24  1  0
  5 25  1  0
  9 26  1  0
 10 27  1  0
 13 28  1  0
 14 29  1  0
 17 30  1  0
 18 31  1  0
M  END
$$$$
