
     RDKit          3D

 57 60  0  0  0  0  0  0  0  0999 V2000
    5.2439   -1.4397    0.4254 C   0  0  0  0  0  0  0  0  0  0  0  0
    5.3613   -0.2193   -0.4254 C   0  0  0  0  0  0  0  0  0  0  0  0
    6.5349   -0.0940   -1.1885 C   0  0  0  0  0  0  0  0  0  0  0  0
    6.7696    1.0031   -1.9646 C   0  0  0  0  0  0  0  0  0  0  0  0
    7.8627    1.2407   -2.7458 O   0  0  0  0  0  0  0  0  0  0  0  0
    8.9381    0.3759   -2.8781 C   0  0  0  0  0  0  0  0  0  0  0  0
    9.0843    0.0905   -4.2370 F   0  0  0  0  0  0  0  0  0  0  0  0
   10.1207    1.0417   -2.5053 F   0  0  0  0  0  0  0  0  0  0  0  0
    5.7801    1.9867   -1.9544 C   0  0  0  0  0  0  0  0  0  0  0  0
    4.6926    1.8399   -1.2306 N   0  0  0  0  0  0  0  0  0  0  0  0
    4.4178    0.7554   -0.4397 C   0  0  0  0  0  0  0  0  0  0  0  0
    3.1519    0.7310    0.2413 C   0  0  0  0  0  0  0  0  0  0  0  0
    2.5770    1.8766    0.4629 O   0  0  0  0  0  0  0  0  0  0  0  0
    2.4462   -0.4041    0.6997 N   0  0  0  0  0  0  0  0  0  0  0  0
    1.1795   -0.1723    1.3749 C   0  0  0  0  0  0  0  0  0  0  0  0
    1.0965    0.0116    2.7347 C   0  0  0  0  0  0  0  0  0  0  0  0
   -0.1311    0.2301    3.3460 C   0  0  0  0  0  0  0  0  0  0  0  0
   -1.2768    0.2616    2.5721 C   0  0  0  0  0  0  0  0  0  0  0  0
   -2.4486    0.4742    3.1956 F   0  0  0  0  0  0  0  0  0  0  0  0
   -1.2187    0.0779    1.1918 C   0  0  0  0  0  0  0  0  0  0  0  0
   -2.4985    0.1185    0.3837 C   0  0  1  0  0  0  0  0  0  0  0  0
   -2.0979   -0.1116   -1.0583 C   0  0  0  0  0  0  0  0  0  0  0  0
   -3.3093   -0.9215    0.8959 N   0  0  0  0  0  0  0  0  0  0  0  0
   -4.5472   -1.0569    0.7177 C   0  0  0  0  0  0  0  0  0  0  0  0
   -5.2086   -2.1844    1.3205 N   0  0  0  0  0  0  0  0  0  0  0  0
   -5.3431   -0.1320   -0.0674 C   0  0  0  0  0  0  0  0  0  0  0  0
   -6.8354   -0.2054    0.2329 C   0  0  0  0  0  0  0  0  0  0  0  0
   -6.9313   -1.2647   -0.8436 C   0  0  0  0  0  0  0  0  0  0  0  0
   -5.7215   -0.6109   -1.4770 C   0  0  0  0  0  0  0  0  0  0  0  0
   -4.7581    1.5153    0.0060 S   0  0  0  0  0  6  0  0  0  0  0  0
   -5.6277    2.2465    1.0224 O   0  0  0  0  0  0  0  0  0  0  0  0
   -4.9430    2.2556   -1.2859 O   0  0  0  0  0  0  0  0  0  0  0  0
   -3.0685    1.5124    0.5197 C   0  0  2  0  0  0  0  0  0  0  0  0
   -2.3603    2.3303   -0.3728 F   0  0  0  0  0  0  0  0  0  0  0  0
    0.0137   -0.1336    0.6393 C   0  0  0  0  0  0  0  0  0  0  0  0
    4.7644   -2.2698   -0.0761 H   0  0  0  0  0  0  0  0  0  0  0  0
    6.3205   -1.7977    0.6191 H   0  0  0  0  0  0  0  0  0  0  0  0
    4.8539   -1.1476    1.4133 H   0  0  0  0  0  0  0  0  0  0  0  0
    7.2622   -0.8948   -1.1501 H   0  0  0  0  0  0  0  0  0  0  0  0
    8.8160   -0.5337   -2.3000 H   0  0  0  0  0  0  0  0  0  0  0  0
    5.9160    2.8962   -2.5623 H   0  0  0  0  0  0  0  0  0  0  0  0
    2.7862   -1.3540    0.5498 H   0  0  0  0  0  0  0  0  0  0  0  0
    2.0308   -0.0235    3.2934 H   0  0  0  0  0  0  0  0  0  0  0  0
   -0.1478    0.3676    4.4019 H   0  0  0  0  0  0  0  0  0  0  0  0
   -1.6180   -1.0845   -1.1343 H   0  0  0  0  0  0  0  0  0  0  0  0
   -2.9391    0.0313   -1.7671 H   0  0  0  0  0  0  0  0  0  0  0  0
   -1.3910    0.7314   -1.3190 H   0  0  0  0  0  0  0  0  0  0  0  0
   -5.0262   -3.1544    0.9718 H   0  0  0  0  0  0  0  0  0  0  0  0
   -5.8807   -2.0838    2.1106 H   0  0  0  0  0  0  0  0  0  0  0  0
   -7.3601    0.7103   -0.1045 H   0  0  0  0  0  0  0  0  0  0  0  0
   -7.0862   -0.5507    1.2536 H   0  0  0  0  0  0  0  0  0  0  0  0
   -7.8455   -1.2029   -1.4695 H   0  0  0  0  0  0  0  0  0  0  0  0
   -6.6901   -2.2885   -0.5289 H   0  0  0  0  0  0  0  0  0  0  0  0
   -4.9614   -1.3132   -1.8552 H   0  0  0  0  0  0  0  0  0  0  0  0
   -5.9461    0.2662   -2.1117 H   0  0  0  0  0  0  0  0  0  0  0  0
   -2.9094    1.9547    1.5109 H   0  0  0  0  0  0  0  0  0  0  0  0
    0.1066   -0.2836   -0.4329 H   0  0  0  0  0  0  0  0  0  0  0  0
  1  2  1  0
  2  3  2  0
  3  4  1  0
  4  5  1  0
  5  6  1  0
  6  7  1  0
  6  8  1  0
  4  9  2  0
  9 10  1  0
 10 11  2  0
 11 12  1  0
 12 13  2  0
 12 14  1  0
 14 15  1  0
 15 16  2  0
 16 17  1  0
 17 18  2  0
 18 19  1  0
 18 20  1  0
 20 21  1  0
 21 22  1  6
 21 23  1  0
 23 24  2  0
 24 25  1  0
 24 26  1  0
 26 27  1  0
 27 28  1  0
 28 29  1  0
 26 30  1  0
 30 31  2  0
 30 32  2  0
 30 33  1  0
 33 34  1  0
 20 35  2  0
 11  2  1  0
 35 15  1  0
 33 21  1  0
 29 26  1  0
  1 36  1  0
  1 37  1  0
  1 38  1  0
  3 39  1  0
  6 40  1  0
  9 41  1  0
 14 42  1  0
 16 43  1  0
 17 44  1  0
 22 45  1  0
 22 46  1  0
 22 47  1  0
 25 48  1  0
 25 49  1  0
 27 50  1  0
 27 51  1  0
 28 52  1  0
 28 53  1  0
 29 54  1  0
 29 55  1  0
 33 56  1  1
 35 57  1  0
M  END
$$$$
