@<TRIPOS>MOLECULE
*****
 57 60 0 0 0
SMALL
GASTEIGER

@<TRIPOS>ATOM
      1 C           5.2439   -1.4397    0.4254 C.3     1  UNL1       -0.0374
      2 C           5.3613   -0.2193   -0.4254 C.ar    1  UNL1       -0.0165
      3 C           6.5349   -0.0940   -1.1885 C.ar    1  UNL1       -0.0131
      4 C           6.7696    1.0031   -1.9646 C.ar    1  UNL1        0.1452
      5 O           7.8627    1.2407   -2.7458 O.3     1  UNL1       -0.4327
      6 C           8.9381    0.3759   -2.8781 C.3     1  UNL1        0.3893
      7 F           9.0843    0.0905   -4.2370 F       1  UNL1       -0.1663
      8 F          10.1207    1.0417   -2.5053 F       1  UNL1       -0.1663
      9 C           5.7801    1.9867   -1.9544 C.ar    1  UNL1        0.0703
     10 N           4.6926    1.8399   -1.2306 N.ar    1  UNL1       -0.2465
     11 C           4.4178    0.7554   -0.4397 C.ar    1  UNL1        0.1288
     12 C           3.1519    0.7310    0.2413 C.2     1  UNL1        0.2668
     13 O           2.5770    1.8766    0.4629 O.2     1  UNL1       -0.2682
     14 N           2.4462   -0.4041    0.6997 N.am    1  UNL1       -0.2802
     15 C           1.1795   -0.1723    1.3749 C.ar    1  UNL1        0.0343
     16 C           1.0965    0.0116    2.7347 C.ar    1  UNL1       -0.0377
     17 C          -0.1311    0.2301    3.3460 C.ar    1  UNL1       -0.0243
     18 C          -1.2768    0.2616    2.5721 C.ar    1  UNL1        0.1312
     19 F          -2.4486    0.4742    3.1956 F       1  UNL1       -0.2050
     20 C          -1.2187    0.0779    1.1918 C.ar    1  UNL1        0.0450
     21 C          -2.4985    0.1185    0.3837 C.3     1  UNL1        0.2272
     22 C          -2.0979   -0.1116   -1.0583 C.3     1  UNL1       -0.0082
     23 N          -3.3093   -0.9215    0.8959 N.2     1  UNL1       -0.0696
     24 C          -4.5472   -1.0569    0.7177 C.2     1  UNL1        0.3075
     25 N          -5.2086   -2.1844    1.3205 N.pl3   1  UNL1       -0.2488
     26 C          -5.3431   -0.1320   -0.0674 C.3     1  UNL1        0.1918
     27 C          -6.8354   -0.2054    0.2329 C.3     1  UNL1       -0.0163
     28 C          -6.9313   -1.2647   -0.8436 C.3     1  UNL1       -0.0479
     29 C          -5.7215   -0.6109   -1.4770 C.3     1  UNL1       -0.0163
     30 S          -4.7581    1.5153    0.0060 S.O2    1  UNL1        0.0220
     31 O          -5.6277    2.2465    1.0224 O.2     1  UNL1       -0.1703
     32 O          -4.9430    2.2556   -1.2859 O.2     1  UNL1       -0.1703
     33 C          -3.0685    1.5124    0.5197 C.3     1  UNL1        0.2674
     34 F          -2.3603    2.3303   -0.3728 F       1  UNL1       -0.2156
     35 C           0.0137   -0.1336    0.6393 C.ar    1  UNL1       -0.0300
     36 H           4.7644   -2.2698   -0.0761 H       1  UNL1        0.0278
     37 H           6.3205   -1.7977    0.6191 H       1  UNL1        0.0278
     38 H           4.8539   -1.1476    1.4133 H       1  UNL1        0.0278
     39 H           7.2622   -0.8948   -1.1501 H       1  UNL1        0.0658
     40 H           8.8160   -0.5337   -2.3000 H       1  UNL1        0.1520
     41 H           5.9160    2.8962   -2.5623 H       1  UNL1        0.0867
     42 H           2.7862   -1.3540    0.5498 H       1  UNL1        0.1552
     43 H           2.0308   -0.0235    3.2934 H       1  UNL1        0.0637
     44 H          -0.1478    0.3676    4.4019 H       1  UNL1        0.0647
     45 H          -1.6180   -1.0845   -1.1343 H       1  UNL1        0.0280
     46 H          -2.9391    0.0313   -1.7671 H       1  UNL1        0.0280
     47 H          -1.3910    0.7314   -1.3190 H       1  UNL1        0.0280
     48 H          -5.0262   -3.1544    0.9718 H       1  UNL1        0.2881
     49 H          -5.8807   -2.0838    2.1106 H       1  UNL1        0.2881
     50 H          -7.3601    0.7103   -0.1045 H       1  UNL1        0.0292
     51 H          -7.0862   -0.5507    1.2536 H       1  UNL1        0.0292
     52 H          -7.8455   -1.2029   -1.4695 H       1  UNL1        0.0267
     53 H          -6.6901   -2.2885   -0.5289 H       1  UNL1        0.0267
     54 H          -4.9614   -1.3132   -1.8552 H       1  UNL1        0.0292
     55 H          -5.9461    0.2662   -2.1117 H       1  UNL1        0.0292
     56 H          -2.9094    1.9547    1.5109 H       1  UNL1        0.0951
     57 H           0.1066   -0.2836   -0.4329 H       1  UNL1        0.0641
@<TRIPOS>BOND
     1     1     2    1
     2     2     3   ar
     3     3     4   ar
     4     4     5    1
     5     5     6    1
     6     6     7    1
     7     6     8    1
     8     4     9   ar
     9     9    10   ar
    10    10    11   ar
    11    11    12    1
    12    12    13    2
    13    12    14   am
    14    14    15    1
    15    15    16   ar
    16    16    17   ar
    17    17    18   ar
    18    18    19    1
    19    18    20   ar
    20    20    21    1
    21    21    22    1
    22    21    23    1
    23    23    24    2
    24    24    25    1
    25    24    26    1
    26    26    27    1
    27    27    28    1
    28    28    29    1
    29    26    30    1
    30    30    31    2
    31    30    32    2
    32    30    33    1
    33    33    34    1
    34    20    35   ar
    35    11     2   ar
    36    35    15   ar
    37    33    21    1
    38    29    26    1
    39     1    36    1
    40     1    37    1
    41     1    38    1
    42     3    39    1
    43     6    40    1
    44     9    41    1
    45    14    42    1
    46    16    43    1
    47    17    44    1
    48    22    45    1
    49    22    46    1
    50    22    47    1
    51    25    48    1
    52    25    49    1
    53    27    50    1
    54    27    51    1
    55    28    52    1
    56    28    53    1
    57    29    54    1
    58    29    55    1
    59    33    56    1
    60    35    57    1
