@<TRIPOS>MOLECULE
*****
 99 106 0 0 0
SMALL
GASTEIGER

@<TRIPOS>ATOM
      1 C           5.6903    3.0002   -4.6532 C.3     1  UNL1        0.0788
      2 O           6.5846    2.9804   -3.5681 O.3     1  UNL1       -0.4950
      3 C           6.1553    2.3785   -2.3766 C.ar    1  UNL1        0.1226
      4 C           4.8990    1.8115   -2.2401 C.ar    1  UNL1        0.0013
      5 C           4.4546    1.2132   -1.0796 C.ar    1  UNL1        0.0378
      6 N           3.1878    0.5897   -0.9413 N.pl3   1  UNL1       -0.2834
      7 C           2.5622   -0.0504   -2.0434 C.ar    1  UNL1        0.2226
      8 N           3.2409   -0.1484   -3.1945 N.ar    1  UNL1       -0.2225
      9 C           2.7473   -0.7522   -4.2842 C.ar    1  UNL1        0.0362
     10 C           1.4863   -1.2809   -4.1766 C.ar    1  UNL1        0.0186
     11 C           0.7553   -1.1923   -2.9873 C.ar    1  UNL1        0.2249
     12 O          -0.5056   -1.7545   -2.9753 O.3     1  UNL1       -0.4373
     13 C          -1.4214   -1.7508   -1.9606 C.ar    1  UNL1        0.1381
     14 C          -1.8037   -2.9609   -1.3619 C.ar    1  UNL1       -0.0169
     15 C          -2.7253   -3.0054   -0.3401 C.ar    1  UNL1       -0.0363
     16 C          -3.3078   -1.8551    0.1319 C.ar    1  UNL1        0.0427
     17 N          -4.2788   -1.8563    1.1829 N.am    1  UNL1       -0.2686
     18 C          -5.6423   -2.0009    0.7690 C.2     1  UNL1        0.3092
     19 O          -5.9320   -2.1158   -0.4658 O.2     1  UNL1       -0.2521
     20 N          -6.7271   -2.0262    1.6769 N.am    1  UNL1       -0.2538
     21 C          -8.0439   -2.1819    1.2311 C.ar    1  UNL1        0.1299
     22 C          -8.6607   -3.4056    1.0622 C.ar    1  UNL1        0.0018
     23 C          -9.9320   -3.1361    0.6190 C.ar    1  UNL1        0.0684
     24 C         -10.9471   -4.1786    0.3011 C.3     1  UNL1        0.0032
     25 C         -11.9917   -3.8741   -0.7173 C.3     1  UNL1       -0.0441
     26 C         -12.3510   -3.9362    0.7905 C.3     1  UNL1       -0.0441
     27 N         -10.0445   -1.8004    0.5354 N.ar    1  UNL1       -0.1693
     28 N          -8.8973   -1.2056    0.9067 N.ar    1  UNL1       -0.2181
     29 C          -8.7297    0.1906    0.9142 C.ar    1  UNL1        0.0674
     30 C          -9.1944    0.9943   -0.1362 C.ar    1  UNL1       -0.0359
     31 C          -9.0243    2.3668   -0.1188 C.ar    1  UNL1       -0.0568
     32 C          -8.3929    2.9701    0.9355 C.ar    1  UNL1       -0.0503
     33 C          -8.2197    4.4541    0.9334 C.3     1  UNL1       -0.0397
     34 C          -7.9381    2.1941    1.9613 C.ar    1  UNL1       -0.0568
     35 C          -8.0979    0.8096    1.9656 C.ar    1  UNL1       -0.0359
     36 C          -2.9468   -0.6518   -0.4421 C.ar    1  UNL1        0.0069
     37 C          -3.5217    0.5087    0.0036 C.ar    1  UNL1       -0.0521
     38 C          -3.1974    1.7181   -0.5489 C.ar    1  UNL1       -0.0611
     39 C          -2.2870    1.7632   -1.5588 C.ar    1  UNL1       -0.0611
     40 C          -1.6873    0.6114   -2.0329 C.ar    1  UNL1       -0.0505
     41 C          -2.0231   -0.6073   -1.4657 C.ar    1  UNL1        0.0262
     42 N           1.3270   -0.5733   -1.9546 N.ar    1  UNL1       -0.1789
     43 C           5.3507    1.1997   -0.0050 C.ar    1  UNL1       -0.0281
     44 C           6.6074    1.7394   -0.0644 C.ar    1  UNL1        0.0419
     45 C           7.5358    1.7044    1.0563 C.2     1  UNL1        0.2443
     46 O           8.6524    2.3021    0.8899 O.2     1  UNL1       -0.2702
     47 N           7.3034    1.0684    2.2951 N.am    1  UNL1       -0.3101
     48 C           8.1965    0.9940    3.4036 C.3     1  UNL1        0.0247
     49 C           9.4158    0.1766    3.2470 C.3     1  UNL1        0.0146
     50 N          10.2047    0.5024    2.1009 N.3     1  UNL1       -0.2965
     51 C          11.6401    0.1625    2.3825 C.3     1  UNL1        0.0225
     52 C          12.3884    0.7174    1.1990 C.3     1  UNL1        0.0604
     53 O          11.5404    0.9927    0.1047 O.3     1  UNL1       -0.3772
     54 C          10.7101   -0.0951   -0.1579 C.3     1  UNL1        0.0604
     55 C           9.9125   -0.5296    1.0381 C.3     1  UNL1        0.0225
     56 C           6.9723    2.3229   -1.2762 C.ar    1  UNL1       -0.0077
     57 H           5.2827    1.9901   -4.8198 H       1  UNL1        0.0660
     58 H           4.8525    3.7179   -4.5234 H       1  UNL1        0.0660
     59 H           6.2860    3.2705   -5.5639 H       1  UNL1        0.0660
     60 H           4.2437    1.8737   -3.1083 H       1  UNL1        0.0673
     61 H           2.7231    0.6098   -0.0092 H       1  UNL1        0.1550
     62 H           3.3215   -0.8212   -5.2190 H       1  UNL1        0.0832
     63 H           1.0326   -1.7819   -5.0222 H       1  UNL1        0.0686
     64 H          -1.3251   -3.8573   -1.7556 H       1  UNL1        0.0655
     65 H          -2.9972   -3.9755    0.1031 H       1  UNL1        0.0637
     66 H          -4.0487   -1.7617    2.1893 H       1  UNL1        0.1564
     67 H          -6.5365   -1.9335    2.6967 H       1  UNL1        0.1578
     68 H          -8.2032   -4.3860    1.2527 H       1  UNL1        0.0671
     69 H         -10.6140   -5.2345    0.3909 H       1  UNL1        0.0364
     70 H         -12.4073   -4.6828   -1.3472 H       1  UNL1        0.0272
     71 H         -11.9585   -2.8675   -1.1741 H       1  UNL1        0.0272
     72 H         -12.6325   -2.9664    1.2435 H       1  UNL1        0.0272
     73 H         -13.0021   -4.7846    1.0669 H       1  UNL1        0.0272
     74 H          -9.6934    0.5028   -0.9672 H       1  UNL1        0.0639
     75 H          -9.3840    2.9960   -0.9344 H       1  UNL1        0.0621
     76 H          -8.2011    4.8467   -0.0966 H       1  UNL1        0.0278
     77 H          -9.1433    4.8659    1.4243 H       1  UNL1        0.0278
     78 H          -7.3701    4.7854    1.5583 H       1  UNL1        0.0278
     79 H          -7.4419    2.6583    2.7941 H       1  UNL1        0.0621
     80 H          -7.7327    0.2038    2.7862 H       1  UNL1        0.0639
     81 H          -4.2491    0.4342    0.8175 H       1  UNL1        0.0624
     82 H          -3.6593    2.6373   -0.1906 H       1  UNL1        0.0618
     83 H          -1.9869    2.6919   -2.0402 H       1  UNL1        0.0618
     84 H          -0.9672    0.6765   -2.8465 H       1  UNL1        0.0625
     85 H           4.9840    0.7232    0.9089 H       1  UNL1        0.0644
     86 H           6.3501    0.5993    2.3831 H       1  UNL1        0.1490
     87 H           7.6299    0.7216    4.3507 H       1  UNL1        0.0475
     88 H           8.5175    2.0844    3.5858 H       1  UNL1        0.0475
     89 H          10.0127    0.2165    4.1985 H       1  UNL1        0.0442
     90 H           9.1294   -0.9288    3.1882 H       1  UNL1        0.0442
     91 H          11.8658    0.6404    3.3407 H       1  UNL1        0.0449
     92 H          11.7883   -0.9137    2.4336 H       1  UNL1        0.0449
     93 H          12.8010    1.7056    1.5035 H       1  UNL1        0.0572
     94 H          13.1641    0.0284    0.8120 H       1  UNL1        0.0572
     95 H           9.9893    0.2258   -0.9433 H       1  UNL1        0.0572
     96 H          11.2754   -0.9412   -0.6062 H       1  UNL1        0.0572
     97 H           8.8623   -0.6798    0.9068 H       1  UNL1        0.0449
     98 H          10.4304   -1.4544    1.4328 H       1  UNL1        0.0449
     99 H           7.9632    2.7536   -1.3413 H       1  UNL1        0.0662
@<TRIPOS>BOND
     1     1     2    1
     2     2     3    1
     3     3     4   ar
     4     4     5   ar
     5     5     6    1
     6     6     7    1
     7     7     8   ar
     8     8     9   ar
     9     9    10   ar
    10    10    11   ar
    11    11    12    1
    12    12    13    1
    13    13    14   ar
    14    14    15   ar
    15    15    16   ar
    16    16    17    1
    17    17    18   am
    18    18    19    2
    19    18    20   am
    20    20    21    1
    21    21    22   ar
    22    22    23   ar
    23    23    24    1
    24    24    25    1
    25    25    26    1
    26    23    27   ar
    27    27    28   ar
    28    28    29    1
    29    29    30   ar
    30    30    31   ar
    31    31    32   ar
    32    32    33    1
    33    32    34   ar
    34    34    35   ar
    35    16    36   ar
    36    36    37   ar
    37    37    38   ar
    38    38    39   ar
    39    39    40   ar
    40    40    41   ar
    41    11    42   ar
    42     5    43   ar
    43    43    44   ar
    44    44    45    1
    45    45    46    2
    46    45    47   am
    47    47    48    1
    48    48    49    1
    49    49    50    1
    50    50    51    1
    51    51    52    1
    52    52    53    1
    53    53    54    1
    54    54    55    1
    55    44    56   ar
    56    56     3   ar
    57    42     7   ar
    58    55    50    1
    59    41    13   ar
    60    28    21   ar
    61    35    29   ar
    62    41    36   ar
    63    26    24    1
    64     1    57    1
    65     1    58    1
    66     1    59    1
    67     4    60    1
    68     6    61    1
    69     9    62    1
    70    10    63    1
    71    14    64    1
    72    15    65    1
    73    17    66    1
    74    20    67    1
    75    22    68    1
    76    24    69    1
    77    25    70    1
    78    25    71    1
    79    26    72    1
    80    26    73    1
    81    30    74    1
    82    31    75    1
    83    33    76    1
    84    33    77    1
    85    33    78    1
    86    34    79    1
    87    35    80    1
    88    37    81    1
    89    38    82    1
    90    39    83    1
    91    40    84    1
    92    43    85    1
    93    47    86    1
    94    48    87    1
    95    48    88    1
    96    49    89    1
    97    49    90    1
    98    51    91    1
    99    51    92    1
   100    52    93    1
   101    52    94    1
   102    54    95    1
   103    54    96    1
   104    55    97    1
   105    55    98    1
   106    56    99    1
