@<TRIPOS>MOLECULE
*****
 70 74 0 0 0
SMALL
GASTEIGER

@<TRIPOS>ATOM
      1 C          -0.1959   -1.0350    3.8728 C.3     1  UNL1       -0.0421
      2 C          -0.2624    0.0905    2.8606 C.3     1  UNL1        0.0515
      3 C           1.0492    0.2065    2.1689 C.ar    1  UNL1       -0.0271
      4 C           1.2247    1.0528    1.0955 C.ar    1  UNL1       -0.0562
      5 C           2.4502    1.1541    0.4585 C.ar    1  UNL1       -0.0537
      6 C           3.5430    0.4202    0.8637 C.ar    1  UNL1       -0.0177
      7 C           4.8590    0.5178    0.1964 C.ar    1  UNL1       -0.0114
      8 C           6.0277    0.3283    0.9117 C.ar    1  UNL1       -0.0376
      9 C           7.2518    0.4187    0.2929 C.ar    1  UNL1        0.0088
     10 N           7.3622    0.6955   -1.0358 N.ar    1  UNL1       -0.3121
     11 C           8.6692    0.7839   -1.6632 C.3     1  UNL1        0.0375
     12 C           8.9753   -0.1336   -2.8403 C.3     1  UNL1       -0.0301
     13 C           9.4982   -0.5110   -1.5025 C.3     1  UNL1       -0.0301
     14 C           6.2248    0.8782   -1.7227 C.ar    1  UNL1        0.2521
     15 O           6.3567    1.1368   -2.9656 O.2     1  UNL1       -0.2677
     16 C           4.9750    0.7966   -1.1418 C.ar    1  UNL1        0.0107
     17 C           3.3685   -0.4275    1.9381 C.ar    1  UNL1       -0.0537
     18 C           2.1458   -0.5281    2.5733 C.ar    1  UNL1       -0.0562
     19 N          -1.3795   -0.0211    1.9805 N.am    1  UNL1       -0.2605
     20 C          -2.4928    0.9092    1.9391 C.3     1  UNL1        0.0220
     21 C          -3.7122    0.0337    1.6983 C.3     1  UNL1        0.0033
     22 C          -3.7566   -0.4946    0.2912 C.3     1  UNL1        0.1194
     23 C          -4.6989   -1.6309    0.1212 C.3     1  UNL1       -0.0098
     24 C          -4.7689   -2.1950   -1.2797 C.3     1  UNL1       -0.0374
     25 C          -5.7366   -3.4129   -1.4501 C.3     1  UNL1       -0.0498
     26 C          -5.9766   -2.1171   -2.1125 C.3     1  UNL1       -0.0498
     27 C          -3.8123    0.5162   -0.7596 C.3     1  UNL1        0.0157
     28 C          -4.8718    1.5213   -0.8379 C.3     1  UNL1        0.0642
     29 C          -4.5088    2.3781   -2.0882 C.3     1  UNL1       -0.0362
     30 C          -6.2713    1.1095   -1.0786 C.3     1  UNL1       -0.0362
     31 O          -4.8188    2.4742    0.2007 O.3     1  UNL1       -0.3890
     32 O          -2.4368   -1.1157    0.1085 O.3     1  UNL1       -0.4435
     33 C          -1.4602   -1.0995    1.0642 C.2     1  UNL1        0.4039
     34 O          -0.5874   -2.0259    1.1865 O.2     1  UNL1       -0.2262
     35 H          -1.2066   -1.0969    4.3481 H       1  UNL1        0.0251
     36 H           0.1463   -1.9843    3.4673 H       1  UNL1        0.0251
     37 H           0.4919   -0.7153    4.6714 H       1  UNL1        0.0251
     38 H          -0.4145    1.0181    3.4901 H       1  UNL1        0.0549
     39 H           0.3668    1.6516    0.7512 H       1  UNL1        0.0621
     40 H           2.5930    1.8228   -0.3906 H       1  UNL1        0.0624
     41 H           5.9270    0.1089    1.9654 H       1  UNL1        0.0638
     42 H           8.1800    0.2701    0.8561 H       1  UNL1        0.0810
     43 H           9.2543    1.7131   -1.5441 H       1  UNL1        0.0529
     44 H           8.1102   -0.7070   -3.2386 H       1  UNL1        0.0286
     45 H           9.6587    0.2412   -3.6323 H       1  UNL1        0.0286
     46 H          10.5849   -0.3934   -1.3325 H       1  UNL1        0.0286
     47 H           9.0519   -1.3469   -0.9630 H       1  UNL1        0.0286
     48 H           4.0820    0.9502   -1.7303 H       1  UNL1        0.0678
     49 H           4.2383   -1.0130    2.2616 H       1  UNL1        0.0624
     50 H           2.0226   -1.2005    3.4192 H       1  UNL1        0.0621
     51 H          -2.2962    1.6124    1.1139 H       1  UNL1        0.0467
     52 H          -2.6031    1.4673    2.8900 H       1  UNL1        0.0467
     53 H          -3.5859   -0.8553    2.3659 H       1  UNL1        0.0319
     54 H          -4.6547    0.5136    2.0200 H       1  UNL1        0.0319
     55 H          -4.3123   -2.4945    0.7485 H       1  UNL1        0.0306
     56 H          -5.7587   -1.4165    0.4247 H       1  UNL1        0.0306
     57 H          -3.7851   -2.3009   -1.7777 H       1  UNL1        0.0302
     58 H          -5.3107   -4.2800   -2.0172 H       1  UNL1        0.0268
     59 H          -6.3266   -3.6552   -0.5471 H       1  UNL1        0.0268
     60 H          -5.7930   -2.1278   -3.2272 H       1  UNL1        0.0268
     61 H          -6.8963   -1.5767   -1.8543 H       1  UNL1        0.0268
     62 H          -3.7950   -0.0244   -1.7538 H       1  UNL1        0.0331
     63 H          -2.8265    1.0637   -0.7697 H       1  UNL1        0.0331
     64 H          -5.0219    3.3378   -2.0551 H       1  UNL1        0.0257
     65 H          -3.3835    2.4806   -2.1158 H       1  UNL1        0.0257
     66 H          -4.7691    1.7431   -2.9602 H       1  UNL1        0.0257
     67 H          -6.3865    0.7250   -2.1318 H       1  UNL1        0.0257
     68 H          -6.8704    2.0832   -1.1331 H       1  UNL1        0.0257
     69 H          -6.7823    0.5277   -0.3250 H       1  UNL1        0.0257
     70 H          -4.1621    3.1841    0.0201 H       1  UNL1        0.2101
@<TRIPOS>BOND
     1     1     2    1
     2     2     3    1
     3     3     4   ar
     4     4     5   ar
     5     5     6   ar
     6     6     7    1
     7     7     8   ar
     8     8     9   ar
     9     9    10   ar
    10    10    11    1
    11    11    12    1
    12    12    13    1
    13    10    14   ar
    14    14    15    2
    15    14    16   ar
    16     6    17   ar
    17    17    18   ar
    18     2    19    1
    19    19    20    1
    20    20    21    1
    21    21    22    1
    22    22    23    1
    23    23    24    1
    24    24    25    1
    25    25    26    1
    26    22    27    1
    27    27    28    1
    28    28    29    1
    29    28    30    1
    30    28    31    1
    31    22    32    1
    32    32    33    1
    33    33    34    2
    34    18     3   ar
    35    33    19   am
    36    16     7   ar
    37    26    24    1
    38    13    11    1
    39     1    35    1
    40     1    36    1
    41     1    37    1
    42     2    38    1
    43     4    39    1
    44     5    40    1
    45     8    41    1
    46     9    42    1
    47    11    43    1
    48    12    44    1
    49    12    45    1
    50    13    46    1
    51    13    47    1
    52    16    48    1
    53    17    49    1
    54    18    50    1
    55    20    51    1
    56    20    52    1
    57    21    53    1
    58    21    54    1
    59    23    55    1
    60    23    56    1
    61    24    57    1
    62    25    58    1
    63    25    59    1
    64    26    60    1
    65    26    61    1
    66    27    62    1
    67    27    63    1
    68    29    64    1
    69    29    65    1
    70    29    66    1
    71    30    67    1
    72    30    68    1
    73    30    69    1
    74    31    70    1
