
     RDKit          3D

 70 74  0  0  0  0  0  0  0  0999 V2000
   -0.1959   -1.0350    3.8728 C   0  0  0  0  0  0  0  0  0  0  0  0
   -0.2624    0.0905    2.8606 C   0  0  1  0  0  0  0  0  0  0  0  0
    1.0492    0.2065    2.1689 C   0  0  0  0  0  0  0  0  0  0  0  0
    1.2247    1.0528    1.0955 C   0  0  0  0  0  0  0  0  0  0  0  0
    2.4502    1.1541    0.4585 C   0  0  0  0  0  0  0  0  0  0  0  0
    3.5430    0.4202    0.8637 C   0  0  0  0  0  0  0  0  0  0  0  0
    4.8590    0.5178    0.1964 C   0  0  0  0  0  0  0  0  0  0  0  0
    6.0277    0.3283    0.9117 C   0  0  0  0  0  0  0  0  0  0  0  0
    7.2518    0.4187    0.2929 C   0  0  0  0  0  0  0  0  0  0  0  0
    7.3622    0.6955   -1.0358 N   0  0  0  0  0  0  0  0  0  0  0  0
    8.6692    0.7839   -1.6632 C   0  0  0  0  0  0  0  0  0  0  0  0
    8.9753   -0.1336   -2.8403 C   0  0  0  0  0  0  0  0  0  0  0  0
    9.4982   -0.5110   -1.5025 C   0  0  0  0  0  0  0  0  0  0  0  0
    6.2248    0.8782   -1.7227 C   0  0  0  0  0  0  0  0  0  0  0  0
    6.3567    1.1368   -2.9656 O   0  0  0  0  0  0  0  0  0  0  0  0
    4.9750    0.7966   -1.1418 C   0  0  0  0  0  0  0  0  0  0  0  0
    3.3685   -0.4275    1.9381 C   0  0  0  0  0  0  0  0  0  0  0  0
    2.1458   -0.5281    2.5733 C   0  0  0  0  0  0  0  0  0  0  0  0
   -1.3795   -0.0211    1.9805 N   0  0  0  0  0  0  0  0  0  0  0  0
   -2.4928    0.9092    1.9391 C   0  0  0  0  0  0  0  0  0  0  0  0
   -3.7122    0.0337    1.6983 C   0  0  0  0  0  0  0  0  0  0  0  0
   -3.7566   -0.4946    0.2912 C   0  0  0  0  0  0  0  0  0  0  0  0
   -4.6989   -1.6309    0.1212 C   0  0  0  0  0  0  0  0  0  0  0  0
   -4.7689   -2.1950   -1.2797 C   0  0  0  0  0  0  0  0  0  0  0  0
   -5.7366   -3.4129   -1.4501 C   0  0  0  0  0  0  0  0  0  0  0  0
   -5.9766   -2.1171   -2.1125 C   0  0  0  0  0  0  0  0  0  0  0  0
   -3.8123    0.5162   -0.7596 C   0  0  0  0  0  0  0  0  0  0  0  0
   -4.8718    1.5213   -0.8379 C   0  0  0  0  0  0  0  0  0  0  0  0
   -4.5088    2.3781   -2.0882 C   0  0  0  0  0  0  0  0  0  0  0  0
   -6.2713    1.1095   -1.0786 C   0  0  0  0  0  0  0  0  0  0  0  0
   -4.8188    2.4742    0.2007 O   0  0  0  0  0  0  0  0  0  0  0  0
   -2.4368   -1.1157    0.1085 O   0  0  0  0  0  0  0  0  0  0  0  0
   -1.4602   -1.0995    1.0642 C   0  0  0  0  0  0  0  0  0  0  0  0
   -0.5874   -2.0259    1.1865 O   0  0  0  0  0  0  0  0  0  0  0  0
   -1.2066   -1.0969    4.3481 H   0  0  0  0  0  0  0  0  0  0  0  0
    0.1463   -1.9843    3.4673 H   0  0  0  0  0  0  0  0  0  0  0  0
    0.4919   -0.7153    4.6714 H   0  0  0  0  0  0  0  0  0  0  0  0
   -0.4145    1.0181    3.4901 H   0  0  0  0  0  0  0  0  0  0  0  0
    0.3668    1.6516    0.7512 H   0  0  0  0  0  0  0  0  0  0  0  0
    2.5930    1.8228   -0.3906 H   0  0  0  0  0  0  0  0  0  0  0  0
    5.9270    0.1089    1.9654 H   0  0  0  0  0  0  0  0  0  0  0  0
    8.1800    0.2701    0.8561 H   0  0  0  0  0  0  0  0  0  0  0  0
    9.2543    1.7131   -1.5441 H   0  0  0  0  0  0  0  0  0  0  0  0
    8.1102   -0.7070   -3.2386 H   0  0  0  0  0  0  0  0  0  0  0  0
    9.6587    0.2412   -3.6323 H   0  0  0  0  0  0  0  0  0  0  0  0
   10.5849   -0.3934   -1.3325 H   0  0  0  0  0  0  0  0  0  0  0  0
    9.0519   -1.3469   -0.9630 H   0  0  0  0  0  0  0  0  0  0  0  0
    4.0820    0.9502   -1.7303 H   0  0  0  0  0  0  0  0  0  0  0  0
    4.2383   -1.0130    2.2616 H   0  0  0  0  0  0  0  0  0  0  0  0
    2.0226   -1.2005    3.4192 H   0  0  0  0  0  0  0  0  0  0  0  0
   -2.2962    1.6124    1.1139 H   0  0  0  0  0  0  0  0  0  0  0  0
   -2.6031    1.4673    2.8900 H   0  0  0  0  0  0  0  0  0  0  0  0
   -3.5859   -0.8553    2.3659 H   0  0  0  0  0  0  0  0  0  0  0  0
   -4.6547    0.5136    2.0200 H   0  0  0  0  0  0  0  0  0  0  0  0
   -4.3123   -2.4945    0.7485 H   0  0  0  0  0  0  0  0  0  0  0  0
   -5.7587   -1.4165    0.4247 H   0  0  0  0  0  0  0  0  0  0  0  0
   -3.7851   -2.3009   -1.7777 H   0  0  0  0  0  0  0  0  0  0  0  0
   -5.3107   -4.2800   -2.0172 H   0  0  0  0  0  0  0  0  0  0  0  0
   -6.3266   -3.6552   -0.5471 H   0  0  0  0  0  0  0  0  0  0  0  0
   -5.7930   -2.1278   -3.2272 H   0  0  0  0  0  0  0  0  0  0  0  0
   -6.8963   -1.5767   -1.8543 H   0  0  0  0  0  0  0  0  0  0  0  0
   -3.7950   -0.0244   -1.7538 H   0  0  0  0  0  0  0  0  0  0  0  0
   -2.8265    1.0637   -0.7697 H   0  0  0  0  0  0  0  0  0  0  0  0
   -5.0219    3.3378   -2.0551 H   0  0  0  0  0  0  0  0  0  0  0  0
   -3.3835    2.4806   -2.1158 H   0  0  0  0  0  0  0  0  0  0  0  0
   -4.7691    1.7431   -2.9602 H   0  0  0  0  0  0  0  0  0  0  0  0
   -6.3865    0.7250   -2.1318 H   0  0  0  0  0  0  0  0  0  0  0  0
   -6.8704    2.0832   -1.1331 H   0  0  0  0  0  0  0  0  0  0  0  0
   -6.7823    0.5277   -0.3250 H   0  0  0  0  0  0  0  0  0  0  0  0
   -4.1621    3.1841    0.0201 H   0  0  0  0  0  0  0  0  0  0  0  0
  1  2  1  0
  2  3  1  0
  3  4  2  0
  4  5  1  0
  5  6  2  0
  6  7  1  0
  7  8  1  0
  8  9  2  0
  9 10  1  0
 10 11  1  0
 11 12  1  0
 12 13  1  0
 10 14  1  0
 14 15  2  0
 14 16  1  0
  6 17  1  0
 17 18  2  0
  2 19  1  0
 19 20  1  0
 20 21  1  0
 21 22  1  0
 22 23  1  0
 23 24  1  0
 24 25  1  0
 25 26  1  0
 22 27  1  0
 27 28  1  0
 28 29  1  0
 28 30  1  0
 28 31  1  0
 22 32  1  0
 32 33  1  0
 33 34  2  0
 18  3  1  0
 33 19  1  0
 16  7  2  0
 26 24  1  0
 13 11  1  0
  1 35  1  0
  1 36  1  0
  1 37  1  0
  2 38  1  1
  4 39  1  0
  5 40  1  0
  8 41  1  0
  9 42  1  0
 11 43  1  0
 12 44  1  0
 12 45  1  0
 13 46  1  0
 13 47  1  0
 16 48  1  0
 17 49  1  0
 18 50  1  0
 20 51  1  0
 20 52  1  0
 21 53  1  0
 21 54  1  0
 23 55  1  0
 23 56  1  0
 24 57  1  0
 25 58  1  0
 25 59  1  0
 26 60  1  0
 26 61  1  0
 27 62  1  0
 27 63  1  0
 29 64  1  0
 29 65  1  0
 29 66  1  0
 30 67  1  0
 30 68  1  0
 30 69  1  0
 31 70  1  0
M  END
$$$$
