@<TRIPOS>MOLECULE
*****
 20 21 0 0 0
SMALL
GASTEIGER

@<TRIPOS>ATOM
      1 N          -4.6472   -0.0273   -0.6759 N.pl3   1  UNL1       -0.3375
      2 C          -3.2485    0.0042   -0.3341 C.ar    1  UNL1        0.1566
      3 N          -2.3583   -0.6143   -0.7444 N.ar    1  UNL1       -0.2251
      4 C          -1.0823   -0.5828   -0.4299 C.ar    1  UNL1        0.0805
      5 C          -0.7583    0.3557    0.5647 C.ar    1  UNL1        0.0442
      6 S          -2.3233    1.1003    0.9488 S.2     1  UNL1       -0.0525
      7 C           0.5692    0.5452    1.0458 C.ar    1  UNL1       -0.0037
      8 C           1.5900   -0.2119    0.5283 C.ar    1  UNL1        0.1312
      9 O           2.8543   -0.0094    1.0079 O.3     1  UNL1       -0.4057
     10 C           3.7651    0.9279    0.4476 C.3     1  UNL1        0.5752
     11 F           4.9647    0.9348    1.1151 F       1  UNL1       -0.1328
     12 F           3.1881    2.1932    0.4137 F       1  UNL1       -0.1328
     13 F           4.0192    0.4721   -0.8479 F       1  UNL1       -0.1328
     14 C           1.2193   -1.1161   -0.4428 C.ar    1  UNL1       -0.0175
     15 C          -0.0254   -1.3438   -0.9431 C.ar    1  UNL1       -0.0317
     16 H          -5.0020    0.4524   -1.5441 H       1  UNL1        0.1442
     17 H          -5.2694   -0.5591    0.0019 H       1  UNL1        0.1442
     18 H           0.6509    1.3035    1.8094 H       1  UNL1        0.0666
     19 H           2.0471   -1.7185   -0.8509 H       1  UNL1        0.0655
     20 H          -0.1534   -2.1062   -1.7209 H       1  UNL1        0.0640
@<TRIPOS>BOND
     1     1     2    1
     2     2     3   ar
     3     3     4   ar
     4     4     5   ar
     5     5     6   ar
     6     5     7   ar
     7     7     8   ar
     8     8     9    1
     9     9    10    1
    10    10    11    1
    11    10    12    1
    12    10    13    1
    13     8    14   ar
    14    14    15   ar
    15     6     2   ar
    16    15     4   ar
    17     1    16    1
    18     1    17    1
    19     7    18    1
    20    14    19    1
    21    15    20    1
