@<TRIPOS>MOLECULE
*****
 43 45 0 0 0
SMALL
GASTEIGER

@<TRIPOS>ATOM
      1 C           0.9574   -2.7075   -0.3780 C.3     1  UNL1       -0.0606
      2 C          -0.3748   -2.0250   -0.4116 C.3     1  UNL1       -0.0224
      3 C          -1.1392   -2.3567   -1.6965 C.3     1  UNL1       -0.0328
      4 C          -2.5828   -1.9604   -1.4622 C.3     1  UNL1        0.0151
      5 N          -2.6324   -0.5907   -0.9892 N.am    1  UNL1       -0.2989
      6 C          -3.7869    0.0535   -0.5162 C.2     1  UNL1        0.2295
      7 O          -4.8710   -0.5614   -0.4852 O.2     1  UNL1       -0.2745
      8 C          -3.7414    1.4529   -0.0518 C.3     1  UNL1        0.1112
      9 C          -5.0718    1.9029    0.4124 C.1     1  UNL1        0.0719
     10 N          -6.1048    2.2487    0.7927 N.1     1  UNL1       -0.1961
     11 C          -1.3735    0.1237   -1.0225 C.3     1  UNL1        0.0335
     12 C          -0.3656   -0.5777   -0.1168 C.3     1  UNL1        0.0429
     13 N           0.9179    0.0922   -0.2100 N.pl3   1  UNL1       -0.3128
     14 C           1.6500    0.0821   -1.4446 C.3     1  UNL1        0.0024
     15 C           1.3866    0.7735    0.9245 C.ar    1  UNL1        0.1338
     16 N           0.4961    1.0498    1.9171 N.ar    1  UNL1       -0.2200
     17 C           0.8012    1.7127    3.0231 C.ar    1  UNL1        0.1204
     18 N           2.0523    2.1353    3.1774 N.ar    1  UNL1       -0.2178
     19 C           2.9912    1.9058    2.2514 C.ar    1  UNL1        0.1432
     20 N           4.3117    2.2424    2.2264 N.ar    1  UNL1       -0.3457
     21 C           4.8255    1.7753    1.0816 C.ar    1  UNL1        0.0042
     22 C           3.8210    1.1318    0.3655 C.ar    1  UNL1       -0.0318
     23 C           2.6724    1.2186    1.1059 C.ar    1  UNL1        0.0585
     24 H           1.6236   -2.1195    0.2867 H       1  UNL1        0.0233
     25 H           1.4048   -2.8892   -1.3780 H       1  UNL1        0.0233
     26 H           0.8417   -3.6891    0.1338 H       1  UNL1        0.0233
     27 H          -1.0106   -2.5256    0.3867 H       1  UNL1        0.0317
     28 H          -0.7022   -1.8417   -2.5677 H       1  UNL1        0.0284
     29 H          -1.0797   -3.4625   -1.8370 H       1  UNL1        0.0284
     30 H          -3.1772   -2.0517   -2.3986 H       1  UNL1        0.0465
     31 H          -2.9746   -2.6263   -0.6588 H       1  UNL1        0.0465
     32 H          -3.4386    2.1401   -0.8860 H       1  UNL1        0.0513
     33 H          -3.0100    1.5701    0.7861 H       1  UNL1        0.0513
     34 H          -1.5096    1.1319   -0.5738 H       1  UNL1        0.0483
     35 H          -0.9993    0.2702   -2.0424 H       1  UNL1        0.0483
     36 H          -0.7955   -0.4039    0.9240 H       1  UNL1        0.0518
     37 H           2.0322    1.0739   -1.7525 H       1  UNL1        0.0428
     38 H           0.9420   -0.1621   -2.3191 H       1  UNL1        0.0428
     39 H           2.3847   -0.7186   -1.4966 H       1  UNL1        0.0428
     40 H           0.0231    1.8866    3.7575 H       1  UNL1        0.1048
     41 H           4.8211    2.7770    2.9863 H       1  UNL1        0.1668
     42 H           5.8435    1.8665    0.7437 H       1  UNL1        0.0807
     43 H           3.9417    0.6521   -0.5879 H       1  UNL1        0.0640
@<TRIPOS>BOND
     1     1     2    1
     2     2     3    1
     3     3     4    1
     4     4     5    1
     5     5     6   am
     6     6     7    2
     7     6     8    1
     8     8     9    1
     9     9    10    3
    10     5    11    1
    11    11    12    1
    12    12    13    1
    13    13    14    1
    14    13    15    1
    15    15    16   ar
    16    16    17   ar
    17    17    18   ar
    18    18    19   ar
    19    19    20   ar
    20    20    21   ar
    21    21    22   ar
    22    22    23   ar
    23    12     2    1
    24    23    15   ar
    25    23    19   ar
    26     1    24    1
    27     1    25    1
    28     1    26    1
    29     2    27    1
    30     3    28    1
    31     3    29    1
    32     4    30    1
    33     4    31    1
    34     8    32    1
    35     8    33    1
    36    11    34    1
    37    11    35    1
    38    12    36    1
    39    14    37    1
    40    14    38    1
    41    14    39    1
    42    17    40    1
    43    20    41    1
    44    21    42    1
    45    22    43    1
