
     RDKit          3D

 61 63  0  0  0  0  0  0  0  0999 V2000
   -3.5327    5.3915    0.7360 C   0  0  0  0  0  0  0  0  0  0  0  0
   -2.5609    4.4060    0.9136 O   0  0  0  0  0  0  0  0  0  0  0  0
   -2.1897    3.4932   -0.0519 C   0  0  0  0  0  0  0  0  0  0  0  0
   -2.8022    3.5387   -1.2801 C   0  0  0  0  0  0  0  0  0  0  0  0
   -2.4243    2.6223   -2.2355 C   0  0  0  0  0  0  0  0  0  0  0  0
   -1.4588    1.6588   -2.0190 C   0  0  0  0  0  0  0  0  0  0  0  0
   -0.8526    1.6200   -0.7900 C   0  0  0  0  0  0  0  0  0  0  0  0
    0.1589    0.6231   -0.4708 C   0  0  0  0  0  0  0  0  0  0  0  0
    1.3925    0.9998    0.1089 C   0  0  0  0  0  0  0  0  0  0  0  0
    2.0879   -0.1495    0.2437 C   0  0  0  0  0  0  0  0  0  0  0  0
    3.4591   -0.3327    0.7999 C   0  0  0  0  0  0  0  0  0  0  0  0
    4.3587   -0.2300   -0.2291 O   0  0  0  0  0  0  0  0  0  0  0  0
    5.6742   -0.3827    0.1129 C   0  0  0  0  0  0  0  0  0  0  0  0
    6.1875    0.6240    1.1168 C   0  0  0  0  0  0  0  0  0  0  0  0
    5.9035   -1.7716    0.6838 C   0  0  0  0  0  0  0  0  0  0  0  0
    6.5126   -0.2619   -1.1021 C   0  0  0  0  0  0  0  0  0  0  0  0
    7.7655   -0.3576   -1.0657 O   0  0  0  0  0  0  0  0  0  0  0  0
    5.8978   -0.0373   -2.3158 O   0  0  0  0  0  0  0  0  0  0  0  0
    1.3357   -1.1257   -0.2138 N   0  0  0  0  0  0  0  0  0  0  0  0
    0.1380   -0.6777   -0.6606 N   0  0  0  0  0  0  0  0  0  0  0  0
   -0.8418   -1.6357   -1.1517 C   0  0  0  0  0  0  0  0  0  0  0  0
   -1.5812   -2.3512   -0.0947 C   0  0  0  0  0  0  0  0  0  0  0  0
   -0.9376   -3.5266    0.3637 C   0  0  0  0  0  0  0  0  0  0  0  0
   -1.4825   -4.2514    1.3889 C   0  0  0  0  0  0  0  0  0  0  0  0
   -2.6554   -3.8862    2.0141 C   0  0  0  0  0  0  0  0  0  0  0  0
   -3.2778   -2.7501    1.5698 C   0  0  0  0  0  0  0  0  0  0  0  0
   -2.7444   -1.9876    0.5205 C   0  0  0  0  0  0  0  0  0  0  0  0
   -3.4846   -0.8102    0.0319 C   0  0  0  0  0  0  0  0  0  0  0  0
   -4.6530   -0.4368    0.9036 C   0  0  0  0  0  0  0  0  0  0  0  0
   -4.0554   -1.1555   -1.3413 C   0  0  0  0  0  0  0  0  0  0  0  0
   -1.2289    2.5374    0.1690 C   0  0  0  0  0  0  0  0  0  0  0  0
   -3.4113    5.8836   -0.2441 H   0  0  0  0  0  0  0  0  0  0  0  0
   -3.4308    6.1791    1.5247 H   0  0  0  0  0  0  0  0  0  0  0  0
   -4.5684    4.9861    0.7878 H   0  0  0  0  0  0  0  0  0  0  0  0
   -3.5779    4.2922   -1.4951 H   0  0  0  0  0  0  0  0  0  0  0  0
   -2.9092    2.6512   -3.2240 H   0  0  0  0  0  0  0  0  0  0  0  0
   -1.1934    0.9548   -2.8266 H   0  0  0  0  0  0  0  0  0  0  0  0
    1.6911    2.0083    0.3785 H   0  0  0  0  0  0  0  0  0  0  0  0
    3.5174   -1.3464    1.2413 H   0  0  0  0  0  0  0  0  0  0  0  0
    3.6405    0.3722    1.6332 H   0  0  0  0  0  0  0  0  0  0  0  0
    5.8054    1.6340    0.9738 H   0  0  0  0  0  0  0  0  0  0  0  0
    7.2923    0.6550    0.9762 H   0  0  0  0  0  0  0  0  0  0  0  0
    6.0477    0.2504    2.1631 H   0  0  0  0  0  0  0  0  0  0  0  0
    5.5371   -2.5528   -0.0366 H   0  0  0  0  0  0  0  0  0  0  0  0
    6.9972   -1.9759    0.8113 H   0  0  0  0  0  0  0  0  0  0  0  0
    5.4311   -1.9157    1.6672 H   0  0  0  0  0  0  0  0  0  0  0  0
    6.4552    0.0416   -3.1391 H   0  0  0  0  0  0  0  0  0  0  0  0
   -0.2741   -2.3437   -1.8142 H   0  0  0  0  0  0  0  0  0  0  0  0
   -1.6003   -1.1192   -1.7908 H   0  0  0  0  0  0  0  0  0  0  0  0
   -0.0087   -3.8312   -0.1185 H   0  0  0  0  0  0  0  0  0  0  0  0
   -0.9496   -5.1429    1.7043 H   0  0  0  0  0  0  0  0  0  0  0  0
   -3.0282   -4.5031    2.8183 H   0  0  0  0  0  0  0  0  0  0  0  0
   -4.1867   -2.4304    2.0265 H   0  0  0  0  0  0  0  0  0  0  0  0
   -2.8438    0.0480   -0.0412 H   0  0  0  0  0  0  0  0  0  0  0  0
   -5.3918   -1.2593    0.9401 H   0  0  0  0  0  0  0  0  0  0  0  0
   -5.1944    0.4250    0.4077 H   0  0  0  0  0  0  0  0  0  0  0  0
   -4.4069   -0.1238    1.9052 H   0  0  0  0  0  0  0  0  0  0  0  0
   -5.1811   -1.2434   -1.3011 H   0  0  0  0  0  0  0  0  0  0  0  0
   -3.8582   -0.3662   -2.0774 H   0  0  0  0  0  0  0  0  0  0  0  0
   -3.7344   -2.1750   -1.6769 H   0  0  0  0  0  0  0  0  0  0  0  0
   -0.7738    2.5505    1.1713 H   0  0  0  0  0  0  0  0  0  0  0  0
  1  2  1  0
  2  3  1  0
  3  4  2  0
  4  5  1  0
  5  6  2  0
  6  7  1  0
  7  8  1  0
  8  9  2  0
  9 10  1  0
 10 11  1  0
 11 12  1  0
 12 13  1  0
 13 14  1  0
 13 15  1  0
 13 16  1  0
 16 17  2  0
 16 18  1  0
 10 19  2  0
 19 20  1  0
 20 21  1  0
 21 22  1  0
 22 23  2  0
 23 24  1  0
 24 25  2  0
 25 26  1  0
 26 27  2  0
 27 28  1  0
 28 29  1  0
 28 30  1  0
  7 31  2  0
 31  3  1  0
 20  8  1  0
 27 22  1  0
  1 32  1  0
  1 33  1  0
  1 34  1  0
  4 35  1  0
  5 36  1  0
  6 37  1  0
  9 38  1  0
 11 39  1  0
 11 40  1  0
 14 41  1  0
 14 42  1  0
 14 43  1  0
 15 44  1  0
 15 45  1  0
 15 46  1  0
 18 47  1  0
 21 48  1  0
 21 49  1  0
 23 50  1  0
 24 51  1  0
 25 52  1  0
 26 53  1  0
 28 54  1  0
 29 55  1  0
 29 56  1  0
 29 57  1  0
 30 58  1  0
 30 59  1  0
 30 60  1  0
 31 61  1  0
M  END
$$$$
