@<TRIPOS>MOLECULE
*****
 61 63 0 0 0
SMALL
GASTEIGER

@<TRIPOS>ATOM
      1 C          -3.5327    5.3915    0.7360 C.3     1  UNL1        0.0788
      2 O          -2.5609    4.4060    0.9136 O.3     1  UNL1       -0.4951
      3 C          -2.1897    3.4932   -0.0519 C.ar    1  UNL1        0.1207
      4 C          -2.8022    3.5387   -1.2801 C.ar    1  UNL1       -0.0199
      5 C          -2.4243    2.6223   -2.2355 C.ar    1  UNL1       -0.0577
      6 C          -1.4588    1.6588   -2.0190 C.ar    1  UNL1       -0.0524
      7 C          -0.8526    1.6200   -0.7900 C.ar    1  UNL1        0.0035
      8 C           0.1589    0.6231   -0.4708 C.ar    1  UNL1        0.0697
      9 C           1.3925    0.9998    0.1089 C.ar    1  UNL1       -0.0108
     10 C           2.0879   -0.1495    0.2437 C.ar    1  UNL1        0.0892
     11 C           3.4591   -0.3327    0.7999 C.3     1  UNL1        0.0928
     12 O           4.3587   -0.2300   -0.2291 O.3     1  UNL1       -0.3566
     13 C           5.6742   -0.3827    0.1129 C.3     1  UNL1        0.1602
     14 C           6.1875    0.6240    1.1168 C.3     1  UNL1       -0.0256
     15 C           5.9035   -1.7716    0.6838 C.3     1  UNL1       -0.0256
     16 C           6.5126   -0.2619   -1.1021 C.2     1  UNL1        0.3365
     17 O           7.7655   -0.3576   -1.0657 O.2     1  UNL1       -0.2478
     18 O           5.8978   -0.0373   -2.3158 O.3     1  UNL1       -0.4786
     19 N           1.3357   -1.1257   -0.2138 N.ar    1  UNL1       -0.1730
     20 N           0.1380   -0.6777   -0.6606 N.ar    1  UNL1       -0.2590
     21 C          -0.8418   -1.6357   -1.1517 C.3     1  UNL1        0.0674
     22 C          -1.5812   -2.3512   -0.0947 C.ar    1  UNL1       -0.0227
     23 C          -0.9376   -3.5266    0.3637 C.ar    1  UNL1       -0.0565
     24 C          -1.4825   -4.2514    1.3889 C.ar    1  UNL1       -0.0614
     25 C          -2.6554   -3.8862    2.0141 C.ar    1  UNL1       -0.0615
     26 C          -3.2778   -2.7501    1.5698 C.ar    1  UNL1       -0.0580
     27 C          -2.7444   -1.9876    0.5205 C.ar    1  UNL1       -0.0399
     28 C          -3.4846   -0.8102    0.0319 C.3     1  UNL1       -0.0212
     29 C          -4.6530   -0.4368    0.9036 C.3     1  UNL1       -0.0586
     30 C          -4.0554   -1.1555   -1.3413 C.3     1  UNL1       -0.0586
     31 C          -1.2289    2.5374    0.1690 C.ar    1  UNL1       -0.0108
     32 H          -3.4113    5.8836   -0.2441 H       1  UNL1        0.0660
     33 H          -3.4308    6.1791    1.5247 H       1  UNL1        0.0660
     34 H          -4.5684    4.9861    0.7878 H       1  UNL1        0.0660
     35 H          -3.5779    4.2922   -1.4951 H       1  UNL1        0.0654
     36 H          -2.9092    2.6512   -3.2240 H       1  UNL1        0.0619
     37 H          -1.1934    0.9548   -2.8266 H       1  UNL1        0.0624
     38 H           1.6911    2.0083    0.3785 H       1  UNL1        0.0658
     39 H           3.5174   -1.3464    1.2413 H       1  UNL1        0.0626
     40 H           3.6405    0.3722    1.6332 H       1  UNL1        0.0626
     41 H           5.8054    1.6340    0.9738 H       1  UNL1        0.0263
     42 H           7.2923    0.6550    0.9762 H       1  UNL1        0.0263
     43 H           6.0477    0.2504    2.1631 H       1  UNL1        0.0263
     44 H           5.5371   -2.5528   -0.0366 H       1  UNL1        0.0263
     45 H           6.9972   -1.9759    0.8113 H       1  UNL1        0.0263
     46 H           5.4311   -1.9157    1.6672 H       1  UNL1        0.0263
     47 H           6.4552    0.0416   -3.1391 H       1  UNL1        0.2951
     48 H          -0.2741   -2.3437   -1.8142 H       1  UNL1        0.0559
     49 H          -1.6003   -1.1192   -1.7908 H       1  UNL1        0.0559
     50 H          -0.0087   -3.8312   -0.1185 H       1  UNL1        0.0621
     51 H          -0.9496   -5.1429    1.7043 H       1  UNL1        0.0618
     52 H          -3.0282   -4.5031    2.8183 H       1  UNL1        0.0618
     53 H          -4.1867   -2.4304    2.0265 H       1  UNL1        0.0620
     54 H          -2.8438    0.0480   -0.0412 H       1  UNL1        0.0344
     55 H          -5.3918   -1.2593    0.9401 H       1  UNL1        0.0235
     56 H          -5.1944    0.4250    0.4077 H       1  UNL1        0.0235
     57 H          -4.4069   -0.1238    1.9052 H       1  UNL1        0.0235
     58 H          -5.1811   -1.2434   -1.3011 H       1  UNL1        0.0235
     59 H          -3.8582   -0.3662   -2.0774 H       1  UNL1        0.0235
     60 H          -3.7344   -2.1750   -1.6769 H       1  UNL1        0.0235
     61 H          -0.7738    2.5505    1.1713 H       1  UNL1        0.0661
@<TRIPOS>BOND
     1     1     2    1
     2     2     3    1
     3     3     4   ar
     4     4     5   ar
     5     5     6   ar
     6     6     7   ar
     7     7     8    1
     8     8     9   ar
     9     9    10   ar
    10    10    11    1
    11    11    12    1
    12    12    13    1
    13    13    14    1
    14    13    15    1
    15    13    16    1
    16    16    17    2
    17    16    18    1
    18    10    19   ar
    19    19    20   ar
    20    20    21    1
    21    21    22    1
    22    22    23   ar
    23    23    24   ar
    24    24    25   ar
    25    25    26   ar
    26    26    27   ar
    27    27    28    1
    28    28    29    1
    29    28    30    1
    30     7    31   ar
    31    31     3   ar
    32    20     8   ar
    33    27    22   ar
    34     1    32    1
    35     1    33    1
    36     1    34    1
    37     4    35    1
    38     5    36    1
    39     6    37    1
    40     9    38    1
    41    11    39    1
    42    11    40    1
    43    14    41    1
    44    14    42    1
    45    14    43    1
    46    15    44    1
    47    15    45    1
    48    15    46    1
    49    18    47    1
    50    21    48    1
    51    21    49    1
    52    23    50    1
    53    24    51    1
    54    25    52    1
    55    26    53    1
    56    28    54    1
    57    29    55    1
    58    29    56    1
    59    29    57    1
    60    30    58    1
    61    30    59    1
    62    30    60    1
    63    31    61    1
