
     RDKit          3D

 41 44  0  0  0  0  0  0  0  0999 V2000
    4.0027   -1.7825   -0.0428 C   0  0  0  0  0  0  0  0  0  0  0  0
    3.1070   -0.7104    0.1852 N   0  0  0  0  0  0  0  0  0  0  0  0
    3.2592    0.3967   -0.7101 C   0  0  0  0  0  0  0  0  0  0  0  0
    2.1384    1.3884   -0.5327 C   0  0  0  0  0  0  0  0  0  0  0  0
    1.1116    0.8176    0.3357 N   0  0  0  0  0  0  0  0  0  0  0  0
    1.6896    0.5643    1.6447 C   0  0  0  0  0  0  0  0  0  0  0  0
    2.8621   -0.3882    1.5566 C   0  0  0  0  0  0  0  0  0  0  0  0
   -0.2555    0.4968    0.1176 C   0  0  0  0  0  0  0  0  0  0  0  0
   -0.3662   -0.7947   -0.0120 N   0  0  0  0  0  0  0  0  0  0  0  0
   -1.5079   -1.6076   -0.2424 C   0  0  0  0  0  0  0  0  0  0  0  0
   -1.2368   -2.9609   -0.2872 C   0  0  0  0  0  0  0  0  0  0  0  0
   -2.2470   -3.8767   -0.5036 C   0  0  0  0  0  0  0  0  0  0  0  0
   -3.5518   -3.4459   -0.6794 C   0  0  0  0  0  0  0  0  0  0  0  0
   -3.8617   -2.0962   -0.6409 C   0  0  0  0  0  0  0  0  0  0  0  0
   -2.8175   -1.2208   -0.4217 C   0  0  0  0  0  0  0  0  0  0  0  0
   -3.3128    0.0754   -0.4156 O   0  0  0  0  0  0  0  0  0  0  0  0
   -2.6471    1.2645   -0.1789 C   0  0  0  0  0  0  0  0  0  0  0  0
   -1.3096    1.5024    0.0602 C   0  0  0  0  0  0  0  0  0  0  0  0
   -0.7217    2.7154    0.2870 C   0  0  0  0  0  0  0  0  0  0  0  0
   -1.5604    3.8310    0.2760 C   0  0  0  0  0  0  0  0  0  0  0  0
   -0.9016    5.4240    0.5559 Cl  0  0  0  0  0  0  0  0  0  0  0  0
   -2.9263    3.6423    0.0378 C   0  0  0  0  0  0  0  0  0  0  0  0
   -3.4552    2.3821   -0.1848 C   0  0  0  0  0  0  0  0  0  0  0  0
    3.4292   -2.6526   -0.4451 H   0  0  0  0  0  0  0  0  0  0  0  0
    4.5909   -2.1157    0.8122 H   0  0  0  0  0  0  0  0  0  0  0  0
    4.7290   -1.4831   -0.8534 H   0  0  0  0  0  0  0  0  0  0  0  0
    4.2773    0.8772   -0.6304 H   0  0  0  0  0  0  0  0  0  0  0  0
    3.2249   -0.0320   -1.7379 H   0  0  0  0  0  0  0  0  0  0  0  0
    1.7229    1.7198   -1.4991 H   0  0  0  0  0  0  0  0  0  0  0  0
    2.6116    2.2984   -0.0623 H   0  0  0  0  0  0  0  0  0  0  0  0
    2.0713    1.5302    2.0167 H   0  0  0  0  0  0  0  0  0  0  0  0
    0.9229    0.2137    2.3492 H   0  0  0  0  0  0  0  0  0  0  0  0
    2.5174   -1.3512    2.0351 H   0  0  0  0  0  0  0  0  0  0  0  0
    3.7405   -0.0749    2.1413 H   0  0  0  0  0  0  0  0  0  0  0  0
   -0.2265   -3.2820   -0.1503 H   0  0  0  0  0  0  0  0  0  0  0  0
   -2.0599   -4.9567   -0.5439 H   0  0  0  0  0  0  0  0  0  0  0  0
   -4.3875   -4.1421   -0.8545 H   0  0  0  0  0  0  0  0  0  0  0  0
   -4.8714   -1.7548   -0.7764 H   0  0  0  0  0  0  0  0  0  0  0  0
    0.3328    2.8331    0.4679 H   0  0  0  0  0  0  0  0  0  0  0  0
   -3.5896    4.4928    0.0256 H   0  0  0  0  0  0  0  0  0  0  0  0
   -4.5272    2.2630   -0.3686 H   0  0  0  0  0  0  0  0  0  0  0  0
  1  2  1  0
  2  3  1  0
  3  4  1  0
  4  5  1  0
  5  6  1  0
  6  7  1  0
  5  8  1  0
  8  9  2  0
  9 10  1  0
 10 11  2  0
 11 12  1  0
 12 13  2  0
 13 14  1  0
 14 15  2  0
 15 16  1  0
 16 17  1  0
 17 18  2  0
 18 19  1  0
 19 20  2  0
 20 21  1  0
 20 22  1  0
 22 23  2  0
  7  2  1  0
 18  8  1  0
 15 10  1  0
 23 17  1  0
  1 24  1  0
  1 25  1  0
  1 26  1  0
  3 27  1  0
  3 28  1  0
  4 29  1  0
  4 30  1  0
  6 31  1  0
  6 32  1  0
  7 33  1  0
  7 34  1  0
 11 35  1  0
 12 36  1  0
 13 37  1  0
 14 38  1  0
 19 39  1  0
 22 40  1  0
 23 41  1  0
M  END
$$$$
