@<TRIPOS>MOLECULE
*****
 41 44 0 0 0
SMALL
GASTEIGER

@<TRIPOS>ATOM
      1 C           4.0027   -1.7825   -0.0428 C.3     1  UNL1       -0.0125
      2 N           3.1070   -0.7104    0.1852 N.3     1  UNL1       -0.2982
      3 C           3.2592    0.3967   -0.7101 C.3     1  UNL1        0.0348
      4 C           2.1384    1.3884   -0.5327 C.3     1  UNL1        0.0933
      5 N           1.1116    0.8176    0.3357 N.pl3   1  UNL1       -0.2175
      6 C           1.6896    0.5643    1.6447 C.3     1  UNL1        0.0933
      7 C           2.8621   -0.3882    1.5566 C.3     1  UNL1        0.0348
      8 C          -0.2555    0.4968    0.1176 C.2     1  UNL1        0.3250
      9 N          -0.3662   -0.7947   -0.0120 N.2     1  UNL1       -0.0376
     10 C          -1.5079   -1.6076   -0.2424 C.ar    1  UNL1        0.2183
     11 C          -1.2368   -2.9609   -0.2872 C.ar    1  UNL1       -0.0071
     12 C          -2.2470   -3.8767   -0.5036 C.ar    1  UNL1       -0.0574
     13 C          -3.5518   -3.4459   -0.6794 C.ar    1  UNL1       -0.0580
     14 C          -3.8617   -2.0962   -0.6409 C.ar    1  UNL1       -0.0150
     15 C          -2.8175   -1.2208   -0.4217 C.ar    1  UNL1        0.1789
     16 O          -3.3128    0.0754   -0.4156 O.3     1  UNL1       -0.4508
     17 C          -2.6471    1.2645   -0.1789 C.ar    1  UNL1        0.1436
     18 C          -1.3096    1.5024    0.0602 C.ar    1  UNL1        0.1091
     19 C          -0.7217    2.7154    0.2870 C.ar    1  UNL1       -0.0249
     20 C          -1.5604    3.8310    0.2760 C.ar    1  UNL1        0.0420
     21 CL         -0.9016    5.4240    0.5559 Cl      1  UNL1       -0.0835
     22 C          -2.9263    3.6423    0.0378 C.ar    1  UNL1       -0.0399
     23 C          -3.4552    2.3821   -0.1848 C.ar    1  UNL1       -0.0171
     24 H           3.4292   -2.6526   -0.4451 H       1  UNL1        0.0391
     25 H           4.5909   -2.1157    0.8122 H       1  UNL1        0.0391
     26 H           4.7290   -1.4831   -0.8534 H       1  UNL1        0.0391
     27 H           4.2773    0.8772   -0.6304 H       1  UNL1        0.0463
     28 H           3.2249   -0.0320   -1.7379 H       1  UNL1        0.0463
     29 H           1.7229    1.7198   -1.4991 H       1  UNL1        0.0739
     30 H           2.6116    2.2984   -0.0623 H       1  UNL1        0.0739
     31 H           2.0713    1.5302    2.0167 H       1  UNL1        0.0739
     32 H           0.9229    0.2137    2.3492 H       1  UNL1        0.0739
     33 H           2.5174   -1.3512    2.0351 H       1  UNL1        0.0463
     34 H           3.7405   -0.0749    2.1413 H       1  UNL1        0.0463
     35 H          -0.2265   -3.2820   -0.1503 H       1  UNL1        0.0662
     36 H          -2.0599   -4.9567   -0.5439 H       1  UNL1        0.0619
     37 H          -4.3875   -4.1421   -0.8545 H       1  UNL1        0.0619
     38 H          -4.8714   -1.7548   -0.7764 H       1  UNL1        0.0656
     39 H           0.3328    2.8331    0.4679 H       1  UNL1        0.0642
     40 H          -3.5896    4.4928    0.0256 H       1  UNL1        0.0633
     41 H          -4.5272    2.2630   -0.3686 H       1  UNL1        0.0655
@<TRIPOS>BOND
     1     1     2    1
     2     2     3    1
     3     3     4    1
     4     4     5    1
     5     5     6    1
     6     6     7    1
     7     5     8    1
     8     8     9    2
     9     9    10    1
    10    10    11   ar
    11    11    12   ar
    12    12    13   ar
    13    13    14   ar
    14    14    15   ar
    15    15    16    1
    16    16    17    1
    17    17    18   ar
    18    18    19   ar
    19    19    20   ar
    20    20    21    1
    21    20    22   ar
    22    22    23   ar
    23     7     2    1
    24    18     8    1
    25    15    10   ar
    26    23    17   ar
    27     1    24    1
    28     1    25    1
    29     1    26    1
    30     3    27    1
    31     3    28    1
    32     4    29    1
    33     4    30    1
    34     6    31    1
    35     6    32    1
    36     7    33    1
    37     7    34    1
    38    11    35    1
    39    12    36    1
    40    13    37    1
    41    14    38    1
    42    19    39    1
    43    22    40    1
    44    23    41    1
