@<TRIPOS>MOLECULE
*****
 73 75 0 0 0
SMALL
GASTEIGER

@<TRIPOS>ATOM
      1 C           8.3190   -0.4142    2.6625 C.3     1  UNL1       -0.0397
      2 C           7.7375   -0.7650    1.3373 C.ar    1  UNL1       -0.0502
      3 C           8.5739   -1.1688    0.3232 C.ar    1  UNL1       -0.0586
      4 C           8.0299   -1.4831   -0.8839 C.ar    1  UNL1       -0.0583
      5 C           6.6490   -1.4032   -1.1084 C.ar    1  UNL1       -0.0473
      6 C           6.1559   -1.7650   -2.4717 C.3     1  UNL1       -0.0395
      7 C           5.8212   -1.0055   -0.1098 C.ar    1  UNL1       -0.0442
      8 C           4.3632   -0.9207   -0.3475 C.3     1  UNL1       -0.0272
      9 C           3.9498    0.2755   -1.1362 C.3     1  UNL1       -0.0461
     10 C           2.4482    0.2497   -1.3111 C.3     1  UNL1       -0.0383
     11 C           1.7293    0.2738    0.0229 C.3     1  UNL1       -0.0357
     12 C           0.6752    1.3503    0.0452 C.3     1  UNL1        0.0204
     13 N          -0.2479    1.1836   -1.0583 N.3     1  UNL1       -0.1810
     14 S          -1.6141    2.1774   -0.9667 S.O2    1  UNL1        0.0339
     15 O          -1.6613    2.9925   -2.2626 O.2     1  UNL1       -0.1580
     16 O          -1.3123    3.2348    0.0903 O.2     1  UNL1       -0.1580
     17 C          -3.1576    1.4266   -0.7865 C.3     1  UNL1        0.1053
     18 C          -3.3662    0.5550    0.4365 C.3     1  UNL1        0.0821
     19 C          -2.2443   -0.5390    0.2219 C.3     1  UNL1       -0.0396
     20 C          -4.5985   -0.2359    0.3695 C.3     1  UNL1       -0.0183
     21 C          -5.9407    0.3182    0.2731 C.3     1  UNL1        0.0182
     22 C          -6.3083    1.1540    1.4758 C.3     1  UNL1       -0.0554
     23 C          -6.9277   -0.8275    0.2717 C.ar    1  UNL1        0.1320
     24 N          -7.8713   -0.9254   -0.6705 N.ar    1  UNL1       -0.2372
     25 C          -8.7796   -1.9062   -0.7357 C.ar    1  UNL1        0.0663
     26 C          -8.7579   -2.8923    0.2241 C.ar    1  UNL1        0.1594
     27 F          -9.6605   -3.9221    0.2108 F       1  UNL1       -0.2023
     28 C          -7.7868   -2.8080    1.2081 C.ar    1  UNL1        0.0663
     29 N          -6.9097   -1.7932    1.2082 N.ar    1  UNL1       -0.2372
     30 N          -2.9995    1.2062    1.6459 N.am    1  UNL1       -0.1788
     31 O          -2.2029    0.5027    2.5365 O.3     1  UNL1       -0.2921
     32 C          -3.3442    2.4974    2.0933 C.2     1  UNL1        0.2256
     33 O          -4.0267    3.3521    1.4791 O.2     1  UNL1       -0.2772
     34 C           0.4853    1.3151   -2.2859 C.3     1  UNL1        0.0204
     35 C           1.9620    1.4698   -2.0837 C.3     1  UNL1       -0.0357
     36 C           6.3817   -0.6872    1.1157 C.ar    1  UNL1       -0.0554
     37 H           9.1041    0.3504    2.4628 H       1  UNL1        0.0278
     38 H           7.5325    0.0373    3.2964 H       1  UNL1        0.0278
     39 H           8.7006   -1.3345    3.1203 H       1  UNL1        0.0278
     40 H           9.6579   -1.2354    0.4899 H       1  UNL1        0.0620
     41 H           8.6655   -1.8040   -1.7031 H       1  UNL1        0.0620
     42 H           6.3603   -0.8953   -3.1439 H       1  UNL1        0.0278
     43 H           5.0935   -2.0198   -2.4193 H       1  UNL1        0.0278
     44 H           6.7390   -2.6379   -2.8449 H       1  UNL1        0.0278
     45 H           3.8892   -0.8838    0.6782 H       1  UNL1        0.0313
     46 H           3.9737   -1.8582   -0.7842 H       1  UNL1        0.0313
     47 H           4.4299    0.2575   -2.1259 H       1  UNL1        0.0271
     48 H           4.2037    1.1970   -0.5547 H       1  UNL1        0.0271
     49 H           2.1079   -0.6414   -1.8656 H       1  UNL1        0.0302
     50 H           2.4364    0.5223    0.8491 H       1  UNL1        0.0281
     51 H           1.2683   -0.6876    0.2643 H       1  UNL1        0.0281
     52 H           0.1043    1.2617    0.9845 H       1  UNL1        0.0444
     53 H           1.1209    2.3699    0.0629 H       1  UNL1        0.0444
     54 H          -3.9462    2.2184   -0.8606 H       1  UNL1        0.0538
     55 H          -3.3389    0.7617   -1.6672 H       1  UNL1        0.0538
     56 H          -1.5020   -0.4577    1.0329 H       1  UNL1        0.0252
     57 H          -1.8702   -0.5185   -0.7939 H       1  UNL1        0.0252
     58 H          -2.6902   -1.5564    0.3607 H       1  UNL1        0.0252
     59 H          -4.4562   -0.9611   -0.5165 H       1  UNL1        0.0294
     60 H          -4.5455   -0.9870    1.2398 H       1  UNL1        0.0294
     61 H          -6.1550    0.8704   -0.6769 H       1  UNL1        0.0377
     62 H          -5.6670    0.9052    2.3292 H       1  UNL1        0.0236
     63 H          -6.4282    2.2210    1.2428 H       1  UNL1        0.0236
     64 H          -7.3531    0.8618    1.8433 H       1  UNL1        0.0236
     65 H          -9.5322   -1.9599   -1.5046 H       1  UNL1        0.0860
     66 H          -7.7736   -3.5891    1.9601 H       1  UNL1        0.0860
     67 H          -1.4803    1.1429    2.7779 H       1  UNL1        0.2417
     68 H          -3.0163    2.8719    3.0818 H       1  UNL1        0.1274
     69 H           0.0767    2.1901   -2.8601 H       1  UNL1        0.0444
     70 H           0.3263    0.4216   -2.9334 H       1  UNL1        0.0444
     71 H           2.4279    1.4508   -3.0956 H       1  UNL1        0.0281
     72 H           2.2657    2.4130   -1.6217 H       1  UNL1        0.0281
     73 H           5.7076   -0.3694    1.9089 H       1  UNL1        0.0623
@<TRIPOS>BOND
     1     1     2    1
     2     2     3   ar
     3     3     4   ar
     4     4     5   ar
     5     5     6    1
     6     5     7   ar
     7     7     8    1
     8     8     9    1
     9     9    10    1
    10    10    11    1
    11    11    12    1
    12    12    13    1
    13    13    14    1
    14    14    15    2
    15    14    16    2
    16    14    17    1
    17    17    18    1
    18    18    19    1
    19    18    20    1
    20    20    21    1
    21    21    22    1
    22    21    23    1
    23    23    24   ar
    24    24    25   ar
    25    25    26   ar
    26    26    27    1
    27    26    28   ar
    28    28    29   ar
    29    18    30    1
    30    30    31    1
    31    30    32   am
    32    32    33    2
    33    13    34    1
    34    34    35    1
    35     7    36   ar
    36    36     2   ar
    37    35    10    1
    38    29    23   ar
    39     1    37    1
    40     1    38    1
    41     1    39    1
    42     3    40    1
    43     4    41    1
    44     6    42    1
    45     6    43    1
    46     6    44    1
    47     8    45    1
    48     8    46    1
    49     9    47    1
    50     9    48    1
    51    10    49    1
    52    11    50    1
    53    11    51    1
    54    12    52    1
    55    12    53    1
    56    17    54    1
    57    17    55    1
    58    19    56    1
    59    19    57    1
    60    19    58    1
    61    20    59    1
    62    20    60    1
    63    21    61    1
    64    22    62    1
    65    22    63    1
    66    22    64    1
    67    25    65    1
    68    28    66    1
    69    31    67    1
    70    32    68    1
    71    34    69    1
    72    34    70    1
    73    35    71    1
    74    35    72    1
    75    36    73    1
