
     RDKit          3D

 46 47  0  0  0  0  0  0  0  0999 V2000
    2.9514   -1.7563    0.9228 C   0  0  0  0  0  0  0  0  0  0  0  0
    4.2558   -1.6496    0.4972 O   0  0  0  0  0  0  0  0  0  0  0  0
    4.5282   -0.7001   -0.4415 C   0  0  0  0  0  0  0  0  0  0  0  0
    4.2454    0.7086   -0.0681 C   0  0  1  0  0  0  0  0  0  0  0  0
    4.7492    1.6246   -1.1700 C   0  0  0  0  0  0  0  0  0  0  0  0
    2.9004    1.0486    0.2268 N   0  0  0  0  0  0  0  0  0  0  0  0
    1.9990    0.9333   -0.8822 C   0  0  0  0  0  0  0  0  0  0  0  0
    0.6002    1.2705   -0.5173 C   0  0  0  0  0  0  0  0  0  0  0  0
   -0.3606    0.2690   -0.3371 C   0  0  0  0  0  0  0  0  0  0  0  0
   -1.6630    0.5383   -0.0002 C   0  0  0  0  0  0  0  0  0  0  0  0
   -2.6244   -0.5452    0.1702 C   0  0  2  0  0  0  0  0  0  0  0  0
   -1.8808   -1.8514    0.0453 C   0  0  0  0  0  0  0  0  0  0  0  0
   -3.7885   -0.4651   -0.7907 C   0  0  0  0  0  0  0  0  0  0  0  0
   -4.6009   -1.7335   -0.7300 C   0  0  0  0  0  0  0  0  0  0  0  0
   -5.2837   -1.8559    0.9374 S   0  0  0  0  0  0  0  0  0  0  0  0
   -4.1855   -0.9427    2.0040 C   0  0  0  0  0  0  0  0  0  0  0  0
   -4.5718   -0.7928    3.3804 N   0  0  0  0  0  0  0  0  0  0  0  0
   -3.1209   -0.4631    1.5291 N   0  0  0  0  0  0  0  0  0  0  0  0
   -2.0321    1.8678    0.1666 C   0  0  0  0  0  0  0  0  0  0  0  0
   -3.3123    2.0848    0.4974 F   0  0  0  0  0  0  0  0  0  0  0  0
   -1.0951    2.8622   -0.0082 C   0  0  0  0  0  0  0  0  0  0  0  0
    0.2195    2.5735   -0.3492 C   0  0  0  0  0  0  0  0  0  0  0  0
    1.1492    3.5627   -0.5224 F   0  0  0  0  0  0  0  0  0  0  0  0
    2.2245   -1.9905    0.1101 H   0  0  0  0  0  0  0  0  0  0  0  0
    2.9265   -2.6095    1.6625 H   0  0  0  0  0  0  0  0  0  0  0  0
    2.6678   -0.8742    1.5004 H   0  0  0  0  0  0  0  0  0  0  0  0
    5.6312   -0.8051   -0.6850 H   0  0  0  0  0  0  0  0  0  0  0  0
    4.0236   -1.0156   -1.3863 H   0  0  0  0  0  0  0  0  0  0  0  0
    4.8876    0.9461    0.8246 H   0  0  0  0  0  0  0  0  0  0  0  0
    4.2568    1.3379   -2.1014 H   0  0  0  0  0  0  0  0  0  0  0  0
    5.8456    1.4346   -1.3221 H   0  0  0  0  0  0  0  0  0  0  0  0
    4.5712    2.6593   -0.8422 H   0  0  0  0  0  0  0  0  0  0  0  0
    2.8359    1.9263    0.7532 H   0  0  0  0  0  0  0  0  0  0  0  0
    2.2934    1.6735   -1.6639 H   0  0  0  0  0  0  0  0  0  0  0  0
    2.0607   -0.0898   -1.2878 H   0  0  0  0  0  0  0  0  0  0  0  0
    0.0295   -0.7494   -0.4923 H   0  0  0  0  0  0  0  0  0  0  0  0
   -1.4699   -2.0130   -0.9699 H   0  0  0  0  0  0  0  0  0  0  0  0
   -2.5232   -2.7315    0.2421 H   0  0  0  0  0  0  0  0  0  0  0  0
   -1.0410   -1.9127    0.7594 H   0  0  0  0  0  0  0  0  0  0  0  0
   -3.4384   -0.3249   -1.8093 H   0  0  0  0  0  0  0  0  0  0  0  0
   -4.4561    0.3366   -0.4119 H   0  0  0  0  0  0  0  0  0  0  0  0
   -5.4559   -1.5840   -1.4534 H   0  0  0  0  0  0  0  0  0  0  0  0
   -4.0794   -2.6244   -1.0686 H   0  0  0  0  0  0  0  0  0  0  0  0
   -3.9374   -1.0059    4.1606 H   0  0  0  0  0  0  0  0  0  0  0  0
   -5.5282   -0.4566    3.5695 H   0  0  0  0  0  0  0  0  0  0  0  0
   -1.4037    3.8842    0.1260 H   0  0  0  0  0  0  0  0  0  0  0  0
  1  2  1  0
  2  3  1  0
  3  4  1  0
  4  5  1  0
  4  6  1  0
  6  7  1  0
  7  8  1  0
  8  9  2  0
  9 10  1  0
 10 11  1  0
 11 12  1  1
 11 13  1  0
 13 14  1  0
 14 15  1  0
 15 16  1  0
 16 17  1  0
 16 18  2  0
 10 19  2  0
 19 20  1  0
 19 21  1  0
 21 22  2  0
 22 23  1  0
 22  8  1  0
 18 11  1  0
  1 24  1  0
  1 25  1  0
  1 26  1  0
  3 27  1  0
  3 28  1  0
  4 29  1  1
  5 30  1  0
  5 31  1  0
  5 32  1  0
  6 33  1  0
  7 34  1  0
  7 35  1  0
  9 36  1  0
 12 37  1  0
 12 38  1  0
 12 39  1  0
 13 40  1  0
 13 41  1  0
 14 42  1  0
 14 43  1  0
 17 44  1  0
 17 45  1  0
 21 46  1  0
M  END
$$$$
