@<TRIPOS>MOLECULE
*****
 46 47 0 0 0
SMALL
GASTEIGER

@<TRIPOS>ATOM
      1 C           2.9514   -1.7563    0.9228 C.3     1  UNL1        0.0365
      2 O           4.2558   -1.6496    0.4972 O.3     1  UNL1       -0.3814
      3 C           4.5282   -0.7001   -0.4415 C.3     1  UNL1        0.0624
      4 C           4.2454    0.7086   -0.0681 C.3     1  UNL1        0.0285
      5 C           4.7492    1.6246   -1.1700 C.3     1  UNL1       -0.0475
      6 N           2.9004    1.0486    0.2268 N.3     1  UNL1       -0.3073
      7 C           1.9990    0.9333   -0.8822 C.3     1  UNL1        0.0243
      8 C           0.6002    1.2705   -0.5173 C.ar    1  UNL1        0.0021
      9 C          -0.3606    0.2690   -0.3371 C.ar    1  UNL1       -0.0464
     10 C          -1.6630    0.5383   -0.0002 C.ar    1  UNL1        0.0154
     11 C          -2.6244   -0.5452    0.1702 C.3     1  UNL1        0.0897
     12 C          -1.8808   -1.8514    0.0453 C.3     1  UNL1       -0.0354
     13 C          -3.7885   -0.4651   -0.7907 C.3     1  UNL1       -0.0142
     14 C          -4.6009   -1.7335   -0.7300 C.3     1  UNL1        0.0034
     15 S          -5.2837   -1.8559    0.9374 S.3     1  UNL1       -0.0910
     16 C          -4.1855   -0.9427    2.0040 C.2     1  UNL1        0.1475
     17 N          -4.5718   -0.7928    3.3804 N.pl3   1  UNL1       -0.3380
     18 N          -3.1209   -0.4631    1.5291 N.2     1  UNL1       -0.2524
     19 C          -2.0321    1.8678    0.1666 C.ar    1  UNL1        0.1316
     20 F          -3.3123    2.0848    0.4974 F       1  UNL1       -0.2050
     21 C          -1.0951    2.8622   -0.0082 C.ar    1  UNL1        0.0095
     22 C           0.2195    2.5735   -0.3492 C.ar    1  UNL1        0.1305
     23 F           1.1492    3.5627   -0.5224 F       1  UNL1       -0.2051
     24 H           2.2245   -1.9905    0.1101 H       1  UNL1        0.0523
     25 H           2.9265   -2.6095    1.6625 H       1  UNL1        0.0523
     26 H           2.6678   -0.8742    1.5004 H       1  UNL1        0.0523
     27 H           5.6312   -0.8051   -0.6850 H       1  UNL1        0.0575
     28 H           4.0236   -1.0156   -1.3863 H       1  UNL1        0.0575
     29 H           4.8876    0.9461    0.8246 H       1  UNL1        0.0480
     30 H           4.2568    1.3379   -2.1014 H       1  UNL1        0.0245
     31 H           5.8456    1.4346   -1.3221 H       1  UNL1        0.0245
     32 H           4.5712    2.6593   -0.8422 H       1  UNL1        0.0245
     33 H           2.8359    1.9263    0.7532 H       1  UNL1        0.1226
     34 H           2.2934    1.6735   -1.6639 H       1  UNL1        0.0474
     35 H           2.0607   -0.0898   -1.2878 H       1  UNL1        0.0474
     36 H           0.0295   -0.7494   -0.4923 H       1  UNL1        0.0626
     37 H          -1.4699   -2.0130   -0.9699 H       1  UNL1        0.0256
     38 H          -2.5232   -2.7315    0.2421 H       1  UNL1        0.0256
     39 H          -1.0410   -1.9127    0.7594 H       1  UNL1        0.0256
     40 H          -3.4384   -0.3249   -1.8093 H       1  UNL1        0.0300
     41 H          -4.4561    0.3366   -0.4119 H       1  UNL1        0.0300
     42 H          -5.4559   -1.5840   -1.4534 H       1  UNL1        0.0381
     43 H          -4.0794   -2.6244   -1.0686 H       1  UNL1        0.0381
     44 H          -3.9374   -1.0059    4.1606 H       1  UNL1        0.1442
     45 H          -5.5282   -0.4566    3.5695 H       1  UNL1        0.1442
     46 H          -1.4037    3.8842    0.1260 H       1  UNL1        0.0675
@<TRIPOS>BOND
     1     1     2    1
     2     2     3    1
     3     3     4    1
     4     4     5    1
     5     4     6    1
     6     6     7    1
     7     7     8    1
     8     8     9   ar
     9     9    10   ar
    10    10    11    1
    11    11    12    1
    12    11    13    1
    13    13    14    1
    14    14    15    1
    15    15    16    1
    16    16    17    1
    17    16    18    2
    18    10    19   ar
    19    19    20    1
    20    19    21   ar
    21    21    22   ar
    22    22    23    1
    23    22     8   ar
    24    18    11    1
    25     1    24    1
    26     1    25    1
    27     1    26    1
    28     3    27    1
    29     3    28    1
    30     4    29    1
    31     5    30    1
    32     5    31    1
    33     5    32    1
    34     6    33    1
    35     7    34    1
    36     7    35    1
    37     9    36    1
    38    12    37    1
    39    12    38    1
    40    12    39    1
    41    13    40    1
    42    13    41    1
    43    14    42    1
    44    14    43    1
    45    17    44    1
    46    17    45    1
    47    21    46    1
