@<TRIPOS>MOLECULE
*****
 48 51 0 0 0
SMALL
GASTEIGER

@<TRIPOS>ATOM
      1 N          -3.8721    2.8137   -1.8278 N.pl3   1  UNL1       -0.3134
      2 C          -4.2891    1.5570   -1.2430 C.2     1  UNL1        0.2764
      3 N          -3.4746    0.9034   -0.4940 N.2     1  UNL1       -0.2194
      4 C          -3.9242   -0.3498    0.0754 C.3     1  UNL1        0.1603
      5 C          -2.7782   -1.1911    0.5022 C.ar    1  UNL1        0.0228
      6 C          -1.4637   -0.7865    0.3585 C.ar    1  UNL1       -0.0321
      7 C          -0.3974   -1.5495    0.7483 C.ar    1  UNL1        0.0342
      8 N           0.9750   -1.1974    0.6310 N.am    1  UNL1       -0.2802
      9 C           1.4805   -0.0039    0.0939 C.2     1  UNL1        0.2681
     10 O           0.7148    0.8731   -0.3388 O.2     1  UNL1       -0.2681
     11 C           2.9406    0.2569    0.0218 C.ar    1  UNL1        0.1439
     12 C           3.4235    1.4268   -0.5050 C.ar    1  UNL1        0.0619
     13 N           4.7591    1.6040   -0.5425 N.ar    1  UNL1       -0.2177
     14 C           5.6220    0.6854   -0.0873 C.ar    1  UNL1        0.2337
     15 O           6.9932    0.8643   -0.1243 O.3     1  UNL1       -0.4663
     16 C           7.5121    2.0776   -0.6701 C.3     1  UNL1        0.1858
     17 C           9.0266    2.0600   -0.6111 C.3     1  UNL1        0.4236
     18 F           9.5401    0.9986   -1.3340 F       1  UNL1       -0.1671
     19 F           9.4641    1.9440    0.6875 F       1  UNL1       -0.1671
     20 F           9.4996    3.2203   -1.1807 F       1  UNL1       -0.1671
     21 C           5.1326   -0.4861    0.4401 C.ar    1  UNL1        0.0899
     22 N           3.7927   -0.6767    0.4836 N.ar    1  UNL1       -0.2435
     23 C          -0.7298   -2.7896    1.3127 C.ar    1  UNL1       -0.0377
     24 C          -2.0020   -3.2480    1.4826 C.ar    1  UNL1       -0.0243
     25 C          -3.0400   -2.4106    1.0592 C.ar    1  UNL1        0.1292
     26 F          -4.3002   -2.8960    1.2401 F       1  UNL1       -0.2051
     27 C          -4.6978   -0.0040    1.3228 C.3     1  UNL1        0.2686
     28 F          -3.8231    0.6752    2.1840 F       1  UNL1       -0.2062
     29 F          -5.7410    0.8710    1.1005 F       1  UNL1       -0.2062
     30 C          -4.6851   -1.1132   -0.9316 C.3     1  UNL1        0.0344
     31 C          -6.1314   -1.3778   -0.8548 C.3     1  UNL1       -0.0064
     32 C          -5.6516   -0.3427   -1.7731 C.3     1  UNL1        0.1091
     33 O          -5.5497    1.0182   -1.4592 O.2     1  UNL1       -0.4622
     34 H          -2.8717    2.8837   -2.0667 H       1  UNL1        0.1466
     35 H          -4.5357    3.5761   -1.9891 H       1  UNL1        0.1466
     36 H          -1.2887    0.1966   -0.0918 H       1  UNL1        0.0640
     37 H           1.7207   -1.8752    0.9706 H       1  UNL1        0.1552
     38 H           2.7158    2.1453   -0.8622 H       1  UNL1        0.0854
     39 H           7.1781    2.1488   -1.7210 H       1  UNL1        0.0788
     40 H           7.1625    2.9669   -0.1111 H       1  UNL1        0.0788
     41 H           5.8295   -1.2258    0.8067 H       1  UNL1        0.0884
     42 H           0.0926   -3.4128    1.6295 H       1  UNL1        0.0637
     43 H          -2.2414   -4.2094    1.9207 H       1  UNL1        0.0647
     44 H          -5.0891   -0.8483    1.8814 H       1  UNL1        0.1047
     45 H          -4.0653   -1.8278   -1.5493 H       1  UNL1        0.0366
     46 H          -6.7374   -1.0961    0.0295 H       1  UNL1        0.0306
     47 H          -6.4872   -2.3197   -1.3231 H       1  UNL1        0.0306
     48 H          -5.7081   -0.5286   -2.8790 H       1  UNL1        0.0737
@<TRIPOS>BOND
     1     1     2    1
     2     2     3    2
     3     3     4    1
     4     4     5    1
     5     5     6   ar
     6     6     7   ar
     7     7     8    1
     8     8     9   am
     9     9    10    2
    10     9    11    1
    11    11    12   ar
    12    12    13   ar
    13    13    14   ar
    14    14    15    1
    15    15    16    1
    16    16    17    1
    17    17    18    1
    18    17    19    1
    19    17    20    1
    20    14    21   ar
    21    21    22   ar
    22     7    23   ar
    23    23    24   ar
    24    24    25   ar
    25    25    26    1
    26     4    27    1
    27    27    28    1
    28    27    29    1
    29     4    30    1
    30    30    31    1
    31    31    32    1
    32    32    33    1
    33    33     2    1
    34    25     5   ar
    35    32    30    1
    36    22    11   ar
    37     1    34    1
    38     1    35    1
    39     6    36    1
    40     8    37    1
    41    12    38    1
    42    16    39    1
    43    16    40    1
    44    21    41    1
    45    23    42    1
    46    24    43    1
    47    27    44    1
    48    30    45    1
    49    31    46    1
    50    31    47    1
    51    32    48    1
