
     RDKit          3D

 48 51  0  0  0  0  0  0  0  0999 V2000
   -3.8721    2.8137   -1.8278 N   0  0  0  0  0  0  0  0  0  0  0  0
   -4.2891    1.5570   -1.2430 C   0  0  0  0  0  0  0  0  0  0  0  0
   -3.4746    0.9034   -0.4940 N   0  0  0  0  0  0  0  0  0  0  0  0
   -3.9242   -0.3498    0.0754 C   0  0  1  0  0  0  0  0  0  0  0  0
   -2.7782   -1.1911    0.5022 C   0  0  0  0  0  0  0  0  0  0  0  0
   -1.4637   -0.7865    0.3585 C   0  0  0  0  0  0  0  0  0  0  0  0
   -0.3974   -1.5495    0.7483 C   0  0  0  0  0  0  0  0  0  0  0  0
    0.9750   -1.1974    0.6310 N   0  0  0  0  0  0  0  0  0  0  0  0
    1.4805   -0.0039    0.0939 C   0  0  0  0  0  0  0  0  0  0  0  0
    0.7148    0.8731   -0.3388 O   0  0  0  0  0  0  0  0  0  0  0  0
    2.9406    0.2569    0.0218 C   0  0  0  0  0  0  0  0  0  0  0  0
    3.4235    1.4268   -0.5050 C   0  0  0  0  0  0  0  0  0  0  0  0
    4.7591    1.6040   -0.5425 N   0  0  0  0  0  0  0  0  0  0  0  0
    5.6220    0.6854   -0.0873 C   0  0  0  0  0  0  0  0  0  0  0  0
    6.9932    0.8643   -0.1243 O   0  0  0  0  0  0  0  0  0  0  0  0
    7.5121    2.0776   -0.6701 C   0  0  0  0  0  0  0  0  0  0  0  0
    9.0266    2.0600   -0.6111 C   0  0  0  0  0  0  0  0  0  0  0  0
    9.5401    0.9986   -1.3340 F   0  0  0  0  0  0  0  0  0  0  0  0
    9.4641    1.9440    0.6875 F   0  0  0  0  0  0  0  0  0  0  0  0
    9.4996    3.2203   -1.1807 F   0  0  0  0  0  0  0  0  0  0  0  0
    5.1326   -0.4861    0.4401 C   0  0  0  0  0  0  0  0  0  0  0  0
    3.7927   -0.6767    0.4836 N   0  0  0  0  0  0  0  0  0  0  0  0
   -0.7298   -2.7896    1.3127 C   0  0  0  0  0  0  0  0  0  0  0  0
   -2.0020   -3.2480    1.4826 C   0  0  0  0  0  0  0  0  0  0  0  0
   -3.0400   -2.4106    1.0592 C   0  0  0  0  0  0  0  0  0  0  0  0
   -4.3002   -2.8960    1.2401 F   0  0  0  0  0  0  0  0  0  0  0  0
   -4.6978   -0.0040    1.3228 C   0  0  0  0  0  0  0  0  0  0  0  0
   -3.8231    0.6752    2.1840 F   0  0  0  0  0  0  0  0  0  0  0  0
   -5.7410    0.8710    1.1005 F   0  0  0  0  0  0  0  0  0  0  0  0
   -4.6851   -1.1132   -0.9316 C   0  0  1  0  0  0  0  0  0  0  0  0
   -6.1314   -1.3778   -0.8548 C   0  0  0  0  0  0  0  0  0  0  0  0
   -5.6516   -0.3427   -1.7731 C   0  0  1  0  0  0  0  0  0  0  0  0
   -5.5497    1.0182   -1.4592 O   0  0  0  0  0  0  0  0  0  0  0  0
   -2.8717    2.8837   -2.0667 H   0  0  0  0  0  0  0  0  0  0  0  0
   -4.5357    3.5761   -1.9891 H   0  0  0  0  0  0  0  0  0  0  0  0
   -1.2887    0.1966   -0.0918 H   0  0  0  0  0  0  0  0  0  0  0  0
    1.7207   -1.8752    0.9706 H   0  0  0  0  0  0  0  0  0  0  0  0
    2.7158    2.1453   -0.8622 H   0  0  0  0  0  0  0  0  0  0  0  0
    7.1781    2.1488   -1.7210 H   0  0  0  0  0  0  0  0  0  0  0  0
    7.1625    2.9669   -0.1111 H   0  0  0  0  0  0  0  0  0  0  0  0
    5.8295   -1.2258    0.8067 H   0  0  0  0  0  0  0  0  0  0  0  0
    0.0926   -3.4128    1.6295 H   0  0  0  0  0  0  0  0  0  0  0  0
   -2.2414   -4.2094    1.9207 H   0  0  0  0  0  0  0  0  0  0  0  0
   -5.0891   -0.8483    1.8814 H   0  0  0  0  0  0  0  0  0  0  0  0
   -4.0653   -1.8278   -1.5493 H   0  0  0  0  0  0  0  0  0  0  0  0
   -6.7374   -1.0961    0.0295 H   0  0  0  0  0  0  0  0  0  0  0  0
   -6.4872   -2.3197   -1.3231 H   0  0  0  0  0  0  0  0  0  0  0  0
   -5.7081   -0.5286   -2.8790 H   0  0  0  0  0  0  0  0  0  0  0  0
  1  2  1  0
  2  3  2  0
  3  4  1  0
  4  5  1  0
  5  6  2  0
  6  7  1  0
  7  8  1  0
  8  9  1  0
  9 10  2  0
  9 11  1  0
 11 12  2  0
 12 13  1  0
 13 14  2  0
 14 15  1  0
 15 16  1  0
 16 17  1  0
 17 18  1  0
 17 19  1  0
 17 20  1  0
 14 21  1  0
 21 22  2  0
  7 23  2  0
 23 24  1  0
 24 25  2  0
 25 26  1  0
  4 27  1  1
 27 28  1  0
 27 29  1  0
  4 30  1  0
 30 31  1  0
 31 32  1  0
 32 33  1  0
 33  2  1  0
 25  5  1  0
 32 30  1  0
 22 11  1  0
  1 34  1  0
  1 35  1  0
  6 36  1  0
  8 37  1  0
 12 38  1  0
 16 39  1  0
 16 40  1  0
 21 41  1  0
 23 42  1  0
 24 43  1  0
 27 44  1  0
 30 45  1  6
 31 46  1  0
 31 47  1  0
 32 48  1  6
M  END
$$$$
