
     RDKit          3D

 39 41  0  0  0  0  0  0  0  0999 V2000
    1.7486    0.3675   -2.2544 C   0  0  0  0  0  0  0  0  0  0  0  0
    0.8727   -0.3257   -1.2450 C   0  0  1  0  0  0  0  0  0  0  0  0
    1.5350   -1.0229   -0.1610 C   0  0  0  0  0  0  0  0  0  0  0  0
    1.1840   -2.2978    0.2082 N   0  0  0  0  0  0  0  0  0  0  0  0
    1.7320   -2.9861    1.2106 C   0  0  0  0  0  0  0  0  0  0  0  0
    2.7124   -2.4981    1.9904 N   0  0  0  0  0  0  0  0  0  0  0  0
    3.1346   -1.2533    1.7153 C   0  0  0  0  0  0  0  0  0  0  0  0
    2.5423   -0.5782    0.6717 C   0  0  0  0  0  0  0  0  0  0  0  0
    3.0643    0.6515    0.4566 F   0  0  0  0  0  0  0  0  0  0  0  0
   -0.4315    0.3249   -1.1125 C   0  0  2  0  0  0  0  0  0  0  0  0
   -0.9608    0.1883   -2.4790 O   0  0  0  0  0  0  0  0  0  0  0  0
   -0.5571    1.7873   -0.9507 C   0  0  0  0  0  0  0  0  0  0  0  0
    0.0016    2.4937    0.1391 N   0  0  0  0  0  0  0  0  0  0  0  0
    1.2103    3.0680    0.2427 C   0  0  0  0  0  0  0  0  0  0  0  0
    1.3314    3.6625    1.4437 N   0  0  0  0  0  0  0  0  0  0  0  0
    0.1880    3.4711    2.1262 C   0  0  0  0  0  0  0  0  0  0  0  0
   -0.5743    2.7600    1.2871 N   0  0  0  0  0  0  0  0  0  0  0  0
   -1.4522   -0.4800   -0.3726 C   0  0  0  0  0  0  0  0  0  0  0  0
   -1.4136   -0.6900    0.9896 C   0  0  0  0  0  0  0  0  0  0  0  0
   -0.4251   -0.1947    1.7481 F   0  0  0  0  0  0  0  0  0  0  0  0
   -2.3370   -1.4144    1.7112 C   0  0  0  0  0  0  0  0  0  0  0  0
   -3.3985   -1.9901    1.0465 C   0  0  0  0  0  0  0  0  0  0  0  0
   -4.3349   -2.7120    1.7047 F   0  0  0  0  0  0  0  0  0  0  0  0
   -3.5239   -1.8383   -0.3090 C   0  0  0  0  0  0  0  0  0  0  0  0
   -2.5720   -1.1109   -0.9384 C   0  0  0  0  0  0  0  0  0  0  0  0
    1.1063    0.7086   -3.0894 H   0  0  0  0  0  0  0  0  0  0  0  0
    2.3315    1.2042   -1.9012 H   0  0  0  0  0  0  0  0  0  0  0  0
    2.4727   -0.3487   -2.7444 H   0  0  0  0  0  0  0  0  0  0  0  0
    0.6004   -1.2775   -1.9315 H   0  0  0  0  0  0  0  0  0  0  0  0
    1.3631   -4.0022    1.4079 H   0  0  0  0  0  0  0  0  0  0  0  0
    3.9079   -0.8484    2.3185 H   0  0  0  0  0  0  0  0  0  0  0  0
   -1.7703    0.7337   -2.5520 H   0  0  0  0  0  0  0  0  0  0  0  0
   -0.2397    2.2810   -1.9476 H   0  0  0  0  0  0  0  0  0  0  0  0
   -1.6560    2.1154   -0.9604 H   0  0  0  0  0  0  0  0  0  0  0  0
    2.0124    3.0938   -0.4796 H   0  0  0  0  0  0  0  0  0  0  0  0
   -0.0771    3.8048    3.1227 H   0  0  0  0  0  0  0  0  0  0  0  0
   -2.2928   -1.5692    2.7773 H   0  0  0  0  0  0  0  0  0  0  0  0
   -4.3434   -2.2763   -0.8606 H   0  0  0  0  0  0  0  0  0  0  0  0
   -2.6913   -1.0016   -2.0288 H   0  0  0  0  0  0  0  0  0  0  0  0
  1  2  1  0
  2  3  1  0
  3  4  2  0
  4  5  1  0
  5  6  2  0
  6  7  1  0
  7  8  2  0
  8  9  1  0
  2 10  1  0
 10 11  1  6
 10 12  1  0
 12 13  1  0
 13 14  1  0
 14 15  2  0
 15 16  1  0
 16 17  2  0
 10 18  1  0
 18 19  2  0
 19 20  1  0
 19 21  1  0
 21 22  2  0
 22 23  1  0
 22 24  1  0
 24 25  2  0
  8  3  1  0
 17 13  1  0
 25 18  1  0
  1 26  1  0
  1 27  1  0
  1 28  1  0
  2 29  1  6
  5 30  1  0
  7 31  1  0
 11 32  1  0
 12 33  1  0
 12 34  1  0
 14 35  1  0
 16 36  1  0
 21 37  1  0
 24 38  1  0
 25 39  1  0
M  END
$$$$
