
     RDKit          3D

 55 59  0  0  0  0  0  0  0  0999 V2000
    3.7879   -0.5801   -2.5561 C   0  0  0  0  0  0  0  0  0  0  0  0
    3.4132    0.0053   -1.1821 C   0  0  2  0  0  0  0  0  0  0  0  0
    4.6980   -0.0856   -0.3500 C   0  0  0  0  0  0  0  0  0  0  0  0
    5.0478   -1.4231   -0.1908 O   0  0  0  0  0  0  0  0  0  0  0  0
    4.1165   -2.1524    0.4882 C   0  0  0  0  0  0  0  0  0  0  0  0
    2.8012   -2.1927   -0.3042 C   0  0  0  0  0  0  0  0  0  0  0  0
    2.4327   -0.8082   -0.5380 N   0  0  0  0  0  0  0  0  0  0  0  0
    1.1349   -0.3852   -0.1371 C   0  0  0  0  0  0  0  0  0  0  0  0
    0.1723   -1.2818    0.0863 N   0  0  0  0  0  0  0  0  0  0  0  0
   -1.0865   -1.0066    0.4522 C   0  0  0  0  0  0  0  0  0  0  0  0
   -2.1062   -2.0527    0.6466 C   0  0  0  0  0  0  0  0  0  0  0  0
   -3.2998   -1.7757    1.2617 C   0  0  0  0  0  0  0  0  0  0  0  0
   -4.2127   -2.7608    1.3979 N   0  0  0  0  0  0  0  0  0  0  0  0
   -3.9990   -4.0040    0.9545 C   0  0  0  0  0  0  0  0  0  0  0  0
   -2.8164   -4.3005    0.3383 C   0  0  0  0  0  0  0  0  0  0  0  0
   -2.3476   -5.4512   -0.2062 N   0  0  0  0  0  0  0  0  0  0  0  0
   -1.1248   -5.2460   -0.7091 C   0  0  0  0  0  0  0  0  0  0  0  0
   -0.7860   -3.9185   -0.4847 C   0  0  0  0  0  0  0  0  0  0  0  0
   -1.8424   -3.3273    0.1709 C   0  0  0  0  0  0  0  0  0  0  0  0
   -1.4351    0.3128    0.6168 C   0  0  0  0  0  0  0  0  0  0  0  0
   -0.4688    1.2902    0.3960 C   0  0  0  0  0  0  0  0  0  0  0  0
    0.8061    0.9434    0.0218 C   0  0  0  0  0  0  0  0  0  0  0  0
    1.5100    2.0706   -0.1155 N   0  0  0  0  0  0  0  0  0  0  0  0
    0.6911    3.1006    0.1673 C   0  0  0  0  0  0  0  0  0  0  0  0
   -0.5303    2.6351    0.4837 N   0  0  0  0  0  0  0  0  0  0  0  0
   -1.7338    3.3509    0.8571 C   0  0  1  0  0  0  0  0  0  0  0  0
   -1.8133    3.5269    2.3528 C   0  0  0  0  0  0  0  0  0  0  0  0
   -1.7530    4.9380    0.0513 S   0  0  0  0  0  6  0  0  0  0  0  0
   -3.2646    5.7948    0.4710 C   0  0  0  0  0  0  0  0  0  0  0  0
   -0.6241    5.8004    0.5537 O   0  0  0  0  0  0  0  0  0  0  0  0
   -1.7088    4.7576   -1.4338 O   0  0  0  0  0  0  0  0  0  0  0  0
    2.8781   -0.6856   -3.1574 H   0  0  0  0  0  0  0  0  0  0  0  0
    4.4899    0.1433   -3.0116 H   0  0  0  0  0  0  0  0  0  0  0  0
    4.2980   -1.5594   -2.4371 H   0  0  0  0  0  0  0  0  0  0  0  0
    3.1733    1.0406   -1.3677 H   0  0  0  0  0  0  0  0  0  0  0  0
    5.4995    0.3848   -0.9567 H   0  0  0  0  0  0  0  0  0  0  0  0
    4.6157    0.4643    0.5910 H   0  0  0  0  0  0  0  0  0  0  0  0
    3.9033   -1.7951    1.5138 H   0  0  0  0  0  0  0  0  0  0  0  0
    4.4604   -3.1916    0.5640 H   0  0  0  0  0  0  0  0  0  0  0  0
    2.0192   -2.6918    0.3152 H   0  0  0  0  0  0  0  0  0  0  0  0
    2.9207   -2.7782   -1.2154 H   0  0  0  0  0  0  0  0  0  0  0  0
   -3.5034   -0.8015    1.6333 H   0  0  0  0  0  0  0  0  0  0  0  0
   -4.7637   -4.7558    1.0897 H   0  0  0  0  0  0  0  0  0  0  0  0
   -2.8837   -6.3418   -0.2148 H   0  0  0  0  0  0  0  0  0  0  0  0
   -0.4746   -5.9468   -1.2084 H   0  0  0  0  0  0  0  0  0  0  0  0
    0.1311   -3.4550   -0.7845 H   0  0  0  0  0  0  0  0  0  0  0  0
   -2.4356    0.6117    0.9057 H   0  0  0  0  0  0  0  0  0  0  0  0
    0.9735    4.1588    0.1442 H   0  0  0  0  0  0  0  0  0  0  0  0
   -2.6404    2.7899    0.4853 H   0  0  0  0  0  0  0  0  0  0  0  0
   -2.7294    3.0075    2.7331 H   0  0  0  0  0  0  0  0  0  0  0  0
   -0.9122    3.0758    2.8334 H   0  0  0  0  0  0  0  0  0  0  0  0
   -1.9205    4.6024    2.6310 H   0  0  0  0  0  0  0  0  0  0  0  0
   -3.3394    6.7332   -0.0904 H   0  0  0  0  0  0  0  0  0  0  0  0
   -4.1340    5.1585    0.2602 H   0  0  0  0  0  0  0  0  0  0  0  0
   -3.2844    6.0573    1.5472 H   0  0  0  0  0  0  0  0  0  0  0  0
  1  2  1  0
  2  3  1  0
  3  4  1  0
  4  5  1  0
  5  6  1  0
  6  7  1  0
  7  8  1  0
  8  9  2  0
  9 10  1  0
 10 11  1  0
 11 12  2  0
 12 13  1  0
 13 14  2  0
 14 15  1  0
 15 16  1  0
 16 17  1  0
 17 18  2  0
 18 19  1  0
 10 20  2  0
 20 21  1  0
 21 22  2  0
 22 23  1  0
 23 24  2  0
 24 25  1  0
 25 26  1  0
 26 27  1  0
 26 28  1  0
 28 29  1  0
 28 30  2  0
 28 31  2  0
  7  2  1  0
 22  8  1  0
 19 11  1  0
 25 21  1  0
 19 15  2  0
  1 32  1  0
  1 33  1  0
  1 34  1  0
  2 35  1  6
  3 36  1  0
  3 37  1  0
  5 38  1  0
  5 39  1  0
  6 40  1  0
  6 41  1  0
 12 42  1  0
 14 43  1  0
 16 44  1  0
 17 45  1  0
 18 46  1  0
 20 47  1  0
 24 48  1  0
 26 49  1  6
 27 50  1  0
 27 51  1  0
 27 52  1  0
 29 53  1  0
 29 54  1  0
 29 55  1  0
M  END
$$$$
