@<TRIPOS>MOLECULE
*****
 55 59 0 0 0
SMALL
GASTEIGER

@<TRIPOS>ATOM
      1 C           3.7879   -0.5801   -2.5561 C.3     1  UNL1       -0.0443
      2 C           3.4132    0.0053   -1.1821 C.3     1  UNL1        0.0455
      3 C           4.6980   -0.0856   -0.3500 C.3     1  UNL1        0.0660
      4 O           5.0478   -1.4231   -0.1908 O.3     1  UNL1       -0.3764
      5 C           4.1165   -2.1524    0.4882 C.3     1  UNL1        0.0634
      6 C           2.8012   -2.1927   -0.3042 C.3     1  UNL1        0.0374
      7 N           2.4327   -0.8082   -0.5380 N.pl3   1  UNL1       -0.3063
      8 C           1.1349   -0.3852   -0.1371 C.ar    1  UNL1        0.1500
      9 N           0.1723   -1.2818    0.0863 N.ar    1  UNL1       -0.2296
     10 C          -1.0865   -1.0066    0.4522 C.ar    1  UNL1        0.0773
     11 C          -2.1062   -2.0527    0.6466 C.ar    1  UNL1        0.0277
     12 C          -3.2998   -1.7757    1.2617 C.ar    1  UNL1        0.0374
     13 N          -4.2127   -2.7608    1.3979 N.ar    1  UNL1       -0.2605
     14 C          -3.9990   -4.0040    0.9545 C.ar    1  UNL1        0.0514
     15 C          -2.8164   -4.3005    0.3383 C.ar    1  UNL1        0.0654
     16 N          -2.3476   -5.4512   -0.2062 N.ar    1  UNL1       -0.3595
     17 C          -1.1248   -5.2460   -0.7091 C.ar    1  UNL1        0.0028
     18 C          -0.7860   -3.9185   -0.4847 C.ar    1  UNL1       -0.0359
     19 C          -1.8424   -3.3273    0.1709 C.ar    1  UNL1        0.0117
     20 C          -1.4351    0.3128    0.6168 C.ar    1  UNL1       -0.0098
     21 C          -0.4688    1.2902    0.3960 C.ar    1  UNL1        0.0756
     22 C           0.8061    0.9434    0.0218 C.ar    1  UNL1        0.1288
     23 N           1.5100    2.0706   -0.1155 N.ar    1  UNL1       -0.2322
     24 C           0.6911    3.1006    0.1673 C.ar    1  UNL1        0.0987
     25 N          -0.5303    2.6351    0.4837 N.ar    1  UNL1       -0.3073
     26 C          -1.7338    3.3509    0.8571 C.3     1  UNL1        0.1499
     27 C          -1.8133    3.5269    2.3528 C.3     1  UNL1       -0.0239
     28 S          -1.7530    4.9380    0.0513 S.O2    1  UNL1       -0.0129
     29 C          -3.2646    5.7948    0.4710 C.3     1  UNL1        0.0567
     30 O          -0.6241    5.8004    0.5537 O.2     1  UNL1       -0.1726
     31 O          -1.7088    4.7576   -1.4338 O.2     1  UNL1       -0.1726
     32 H           2.8781   -0.6856   -3.1574 H       1  UNL1        0.0248
     33 H           4.4899    0.1433   -3.0116 H       1  UNL1        0.0248
     34 H           4.2980   -1.5594   -2.4371 H       1  UNL1        0.0248
     35 H           3.1733    1.0406   -1.3677 H       1  UNL1        0.0520
     36 H           5.4995    0.3848   -0.9567 H       1  UNL1        0.0578
     37 H           4.6157    0.4643    0.5910 H       1  UNL1        0.0578
     38 H           3.9033   -1.7951    1.5138 H       1  UNL1        0.0575
     39 H           4.4604   -3.1916    0.5640 H       1  UNL1        0.0575
     40 H           2.0192   -2.6918    0.3152 H       1  UNL1        0.0487
     41 H           2.9207   -2.7782   -1.2154 H       1  UNL1        0.0487
     42 H          -3.5034   -0.8015    1.6333 H       1  UNL1        0.0836
     43 H          -4.7637   -4.7558    1.0897 H       1  UNL1        0.0851
     44 H          -2.8837   -6.3418   -0.2148 H       1  UNL1        0.1654
     45 H          -0.4746   -5.9468   -1.2084 H       1  UNL1        0.0807
     46 H           0.1311   -3.4550   -0.7845 H       1  UNL1        0.0639
     47 H          -2.4356    0.6117    0.9057 H       1  UNL1        0.0660
     48 H           0.9735    4.1588    0.1442 H       1  UNL1        0.1029
     49 H          -2.6404    2.7899    0.4853 H       1  UNL1        0.0770
     50 H          -2.7294    3.0075    2.7331 H       1  UNL1        0.0266
     51 H          -0.9122    3.0758    2.8334 H       1  UNL1        0.0266
     52 H          -1.9205    4.6024    2.6310 H       1  UNL1        0.0266
     53 H          -3.3394    6.7332   -0.0904 H       1  UNL1        0.0464
     54 H          -4.1340    5.1585    0.2602 H       1  UNL1        0.0464
     55 H          -3.2844    6.0573    1.5472 H       1  UNL1        0.0464
@<TRIPOS>BOND
     1     1     2    1
     2     2     3    1
     3     3     4    1
     4     4     5    1
     5     5     6    1
     6     6     7    1
     7     7     8    1
     8     8     9   ar
     9     9    10   ar
    10    10    11    1
    11    11    12   ar
    12    12    13   ar
    13    13    14   ar
    14    14    15   ar
    15    15    16   ar
    16    16    17   ar
    17    17    18   ar
    18    18    19   ar
    19    10    20   ar
    20    20    21   ar
    21    21    22   ar
    22    22    23   ar
    23    23    24   ar
    24    24    25   ar
    25    25    26    1
    26    26    27    1
    27    26    28    1
    28    28    29    1
    29    28    30    2
    30    28    31    2
    31     7     2    1
    32    22     8   ar
    33    19    11   ar
    34    25    21   ar
    35    19    15   ar
    36     1    32    1
    37     1    33    1
    38     1    34    1
    39     2    35    1
    40     3    36    1
    41     3    37    1
    42     5    38    1
    43     5    39    1
    44     6    40    1
    45     6    41    1
    46    12    42    1
    47    14    43    1
    48    16    44    1
    49    17    45    1
    50    18    46    1
    51    20    47    1
    52    24    48    1
    53    26    49    1
    54    27    50    1
    55    27    51    1
    56    27    52    1
    57    29    53    1
    58    29    54    1
    59    29    55    1
