@<TRIPOS>MOLECULE
*****
 62 66 0 0 0
SMALL
GASTEIGER

@<TRIPOS>ATOM
      1 N          -2.9276    2.1768    2.1989 N.am    1  UNL1       -0.3283
      2 C          -2.4246    1.0797    1.4700 C.2     1  UNL1        0.2257
      3 O          -1.4520    0.9901    2.2317 O.2     1  UNL1       -0.2747
      4 C          -2.7231    0.2267    0.2965 C.3     1  UNL1        0.1004
      5 C          -1.7217   -0.8440    0.0875 C.3     1  UNL1       -0.0050
      6 C          -1.5342   -1.8157    1.1933 C.3     1  UNL1       -0.0346
      7 C          -0.0323   -1.8262    1.5213 C.3     1  UNL1       -0.0008
      8 N           0.5841   -1.1856    0.4288 N.3     1  UNL1       -0.3017
      9 C           1.9106   -0.7544    0.5325 C.3     1  UNL1        0.0029
     10 C           2.9533   -1.8372    0.6261 C.3     1  UNL1       -0.0149
     11 C           4.2779   -1.1609    0.7208 C.ar    1  UNL1       -0.0457
     12 C           5.0284   -0.8360   -0.3781 C.ar    1  UNL1       -0.0518
     13 C           6.2585   -0.2101   -0.3509 C.ar    1  UNL1       -0.0023
     14 C           6.7331    0.0961    0.9262 C.ar    1  UNL1        0.1238
     15 O           7.9782    0.7192    0.7512 O.3     1  UNL1       -0.4914
     16 C           7.9619    1.3463   -0.5300 C.3     1  UNL1        0.0937
     17 C           7.2620    0.2502   -1.3411 C.3     1  UNL1        0.0101
     18 C           6.0518   -0.1898    2.1000 C.ar    1  UNL1       -0.0194
     19 C           4.8348   -0.8162    1.9341 C.ar    1  UNL1       -0.0551
     20 C          -0.3376   -0.3430   -0.2371 C.3     1  UNL1        0.0033
     21 C          -2.7200    1.1742   -0.8787 C.ar    1  UNL1       -0.0278
     22 C          -2.2528    2.4706   -0.9174 C.ar    1  UNL1       -0.0572
     23 C          -2.3113    3.2321   -2.0469 C.ar    1  UNL1       -0.0615
     24 C          -2.8589    2.6798   -3.1891 C.ar    1  UNL1       -0.0617
     25 C          -3.3225    1.3836   -3.1396 C.ar    1  UNL1       -0.0615
     26 C          -3.2844    0.5622   -2.0039 C.ar    1  UNL1       -0.0572
     27 C          -4.0617   -0.3679    0.4820 C.ar    1  UNL1       -0.0278
     28 C          -5.0613    0.4790    0.9765 C.ar    1  UNL1       -0.0572
     29 C          -6.3385    0.0410    1.1832 C.ar    1  UNL1       -0.0615
     30 C          -6.7352   -1.2486    0.9249 C.ar    1  UNL1       -0.0617
     31 C          -5.7694   -2.1348    0.4281 C.ar    1  UNL1       -0.0615
     32 C          -4.4969   -1.6490    0.2357 C.ar    1  UNL1       -0.0572
     33 H          -2.8449    3.2118    2.1332 H       1  UNL1        0.1450
     34 H          -3.5611    2.1884    3.0533 H       1  UNL1        0.1450
     35 H          -2.0515   -1.4383   -0.8063 H       1  UNL1        0.0330
     36 H          -1.7357   -2.8859    0.8982 H       1  UNL1        0.0281
     37 H          -2.1211   -1.6245    2.1017 H       1  UNL1        0.0281
     38 H           0.1238   -1.2354    2.4447 H       1  UNL1        0.0427
     39 H           0.3332   -2.8437    1.7599 H       1  UNL1        0.0427
     40 H           2.0067   -0.1459    1.4744 H       1  UNL1        0.0430
     41 H           2.1718   -0.1119   -0.3057 H       1  UNL1        0.0430
     42 H           2.9806   -2.4897   -0.2498 H       1  UNL1        0.0326
     43 H           2.8831   -2.4182    1.5909 H       1  UNL1        0.0326
     44 H           4.6507   -1.0787   -1.3720 H       1  UNL1        0.0624
     45 H           7.3248    2.2520   -0.5579 H       1  UNL1        0.0700
     46 H           8.9710    1.5404   -0.9137 H       1  UNL1        0.0700
     47 H           7.9361   -0.5638   -1.6067 H       1  UNL1        0.0347
     48 H           6.7766    0.7377   -2.2120 H       1  UNL1        0.0347
     49 H           6.4633    0.0686    3.0629 H       1  UNL1        0.0654
     50 H           4.2798   -1.0511    2.8477 H       1  UNL1        0.0621
     51 H          -0.2361    0.7401    0.0411 H       1  UNL1        0.0430
     52 H          -0.1483   -0.3693   -1.3296 H       1  UNL1        0.0430
     53 H          -1.8381    2.8196    0.0171 H       1  UNL1        0.0621
     54 H          -1.9309    4.2321   -2.0097 H       1  UNL1        0.0618
     55 H          -2.9215    3.2514   -4.0977 H       1  UNL1        0.0618
     56 H          -3.7467    0.9975   -4.0777 H       1  UNL1        0.0618
     57 H          -3.6725   -0.4333   -2.0727 H       1  UNL1        0.0621
     58 H          -4.9684    1.5234    1.2389 H       1  UNL1        0.0621
     59 H          -7.1661    0.6380    1.5635 H       1  UNL1        0.0618
     60 H          -7.7075   -1.7019    1.0489 H       1  UNL1        0.0618
     61 H          -5.9678   -3.1725    0.1885 H       1  UNL1        0.0618
     62 H          -3.7517   -2.3254   -0.1547 H       1  UNL1        0.0621
@<TRIPOS>BOND
     1     1     2   am
     2     2     3    2
     3     2     4    1
     4     4     5    1
     5     5     6    1
     6     6     7    1
     7     7     8    1
     8     8     9    1
     9     9    10    1
    10    10    11    1
    11    11    12   ar
    12    12    13   ar
    13    13    14   ar
    14    14    15    1
    15    15    16    1
    16    16    17    1
    17    14    18   ar
    18    18    19   ar
    19     8    20    1
    20     4    21    1
    21    21    22   ar
    22    22    23   ar
    23    23    24   ar
    24    24    25   ar
    25    25    26   ar
    26     4    27    1
    27    27    28   ar
    28    28    29   ar
    29    29    30   ar
    30    30    31   ar
    31    31    32   ar
    32    20     5    1
    33    26    21   ar
    34    32    27   ar
    35    19    11   ar
    36    17    13    1
    37     1    33    1
    38     1    34    1
    39     5    35    1
    40     6    36    1
    41     6    37    1
    42     7    38    1
    43     7    39    1
    44     9    40    1
    45     9    41    1
    46    10    42    1
    47    10    43    1
    48    12    44    1
    49    16    45    1
    50    16    46    1
    51    17    47    1
    52    17    48    1
    53    18    49    1
    54    19    50    1
    55    20    51    1
    56    20    52    1
    57    22    53    1
    58    23    54    1
    59    24    55    1
    60    25    56    1
    61    26    57    1
    62    28    58    1
    63    29    59    1
    64    30    60    1
    65    31    61    1
    66    32    62    1
