@<TRIPOS>MOLECULE
*****
 31 32 0 0 0
SMALL
GASTEIGER

@<TRIPOS>ATOM
      1 C4*        -2.4096   -0.3090   -0.4291 C.3     1  UNL1        0.1124
      2 C5*        -3.6076    0.4919   -0.8513 C.3     1  UNL1        0.0730
      3 O5*        -3.2962    1.8311   -0.6138 O.3     1  UNL1       -0.3924
      4 O4*        -1.2557    0.0330   -1.1415 O.3     1  UNL1       -0.3474
      5 C1*        -0.2954   -0.7017   -0.4762 C.3     1  UNL1        0.1611
      6 N           1.0647   -0.2510   -0.7356 N.am    1  UNL1       -0.2328
      7 C           1.9903   -1.2072   -1.2743 C.2     1  UNL1        0.0034
      8 C           3.3149   -1.1912   -1.2288 C.2     1  UNL1       -0.0463
      9 C           4.1505   -0.1601   -0.5979 C.2     1  UNL1       -0.0466
     10 C           3.8880    1.0457   -0.1303 C.2     1  UNL1       -0.0022
     11 N           2.6218    1.6918   -0.1249 N.am    1  UNL1       -0.2756
     12 C           1.3309    1.1289   -0.4158 C.2     1  UNL1        0.3119
     13 O           0.3234    1.8753   -0.3991 O.2     1  UNL1       -0.2519
     14 C2*        -0.5992   -0.5718    1.0067 C.3     1  UNL1        0.1266
     15 O2*        -0.7336   -1.8275    1.5702 O.3     1  UNL1       -0.3849
     16 C3*        -1.9714    0.0695    0.9719 C.3     1  UNL1        0.1133
     17 O3*        -2.8219   -0.4743    1.9295 O.3     1  UNL1       -0.3864
     18 H4*        -2.5304   -1.3907   -0.4665 H       1  UNL1        0.0646
     19 H5*1       -4.4337    0.2224   -0.1619 H       1  UNL1        0.0584
     20 H5*2       -3.9189    0.3226   -1.8770 H       1  UNL1        0.0584
     21 H5*        -3.5838    2.4052   -1.3647 H       1  UNL1        0.2095
     22 H1*        -0.3533   -1.7707   -0.7665 H       1  UNL1        0.0841
     23 H           1.5105   -2.0373   -1.7769 H       1  UNL1        0.0786
     24 H           3.8117   -2.0211   -1.7047 H       1  UNL1        0.0630
     25 H           5.1957   -0.4153   -0.4813 H       1  UNL1        0.0630
     26 H           4.6917    1.6259    0.2973 H       1  UNL1        0.0782
     27 H           2.5595    2.7197    0.1171 H       1  UNL1        0.1558
     28 H2*         0.1428    0.0609    1.5267 H       1  UNL1        0.0663
     29 H2*        -0.0770   -2.4790    1.2201 H       1  UNL1        0.2101
     30 H3*        -1.8560    1.1560    1.1152 H       1  UNL1        0.0647
     31 H3*        -2.8524    0.1276    2.7004 H       1  UNL1        0.2100
@<TRIPOS>BOND
     1     1     2    1
     2     2     3    1
     3     1     4    1
     4     4     5    1
     5     5     6    1
     6     6     7    1
     7     7     8    2
     8     8     9    1
     9     9    10    2
    10    10    11    1
    11    11    12   am
    12    12    13    2
    13     5    14    1
    14    14    15    1
    15    14    16    1
    16    16    17    1
    17    16     1    1
    18    12     6   am
    19     1    18    1
    20     2    19    1
    21     2    20    1
    22     3    21    1
    23     5    22    1
    24     7    23    1
    25     8    24    1
    26     9    25    1
    27    10    26    1
    28    11    27    1
    29    14    28    1
    30    15    29    1
    31    16    30    1
    32    17    31    1
