@<TRIPOS>MOLECULE
*****
 69 71 0 0 0
SMALL
GASTEIGER

@<TRIPOS>ATOM
      1 C          -7.3975   -0.8535   -1.4636 C.3     1  UNL1       -0.0130
      2 N          -6.7666    0.2866   -0.8629 N.3     1  UNL1       -0.3069
      3 C          -7.4428    0.6553    0.3418 C.3     1  UNL1       -0.0130
      4 C          -5.3369    0.1700   -0.7438 C.3     1  UNL1        0.0141
      5 C          -4.9608   -0.8940    0.2658 C.3     1  UNL1        0.0275
      6 N          -3.5327   -1.0357    0.4129 N.am    1  UNL1       -0.2987
      7 C          -2.9272   -0.2205    1.4267 C.3     1  UNL1        0.0305
      8 C          -1.5525    0.3256    1.0231 C.3     1  UNL1        0.0308
      9 N          -0.6244   -0.7074    0.7382 N.am    1  UNL1       -0.2955
     10 C           0.6217   -0.4978    0.1912 C.2     1  UNL1        0.2490
     11 O           1.2999   -1.6038   -0.0064 O.2     1  UNL1       -0.2699
     12 C           1.3265    0.7482   -0.2125 C.ar    1  UNL1        0.0657
     13 C           0.9528    2.0182    0.0711 C.ar    1  UNL1       -0.0370
     14 C           1.6789    3.0624   -0.3080 C.ar    1  UNL1       -0.0023
     15 C           1.5042    4.5302   -0.1350 C.3     1  UNL1       -0.0064
     16 C           0.7141    5.0295   -1.3257 C.3     1  UNL1       -0.0556
     17 C           0.7634    4.8686    1.1292 C.3     1  UNL1       -0.0556
     18 C           2.8461    5.2154   -0.1520 C.3     1  UNL1       -0.0556
     19 S           3.0477    2.3385   -1.1521 S.2     1  UNL1       -0.0771
     20 C           2.5029    0.6214   -0.9152 C.ar    1  UNL1        0.0853
     21 N           3.2064   -0.5322   -1.3912 N.am    1  UNL1       -0.2629
     22 C           4.1327   -1.1993   -0.5810 C.2     1  UNL1        0.3085
     23 O           4.3656   -0.7873    0.5810 O.2     1  UNL1       -0.2521
     24 N           4.8110   -2.3505   -1.0761 N.am    1  UNL1       -0.2678
     25 C           5.7478   -3.0896   -0.3135 C.ar    1  UNL1        0.0546
     26 C           5.2863   -4.1334    0.4665 C.ar    1  UNL1       -0.0389
     27 C           6.1298   -4.9037    1.2409 C.ar    1  UNL1       -0.0585
     28 C           7.4832   -4.6176    1.2337 C.ar    1  UNL1       -0.0419
     29 C           7.9799   -3.5848    0.4679 C.ar    1  UNL1        0.0610
     30 CL          9.7013   -3.2652    0.4913 Cl      1  UNL1       -0.0820
     31 C           7.0993   -2.8367   -0.2948 C.ar    1  UNL1        0.0804
     32 CL          7.7436   -1.5318   -1.2581 Cl      1  UNL1       -0.0801
     33 C          -0.8923   -2.1555    1.0001 C.3     1  UNL1        0.0233
     34 C          -1.6193   -2.7446   -0.1907 C.3     1  UNL1        0.0399
     35 C          -2.8858   -1.9608   -0.4480 C.2     1  UNL1        0.2171
     36 O          -3.4577   -2.1264   -1.5445 O.2     1  UNL1       -0.2755
     37 H          -7.5636   -1.6738   -0.7033 H       1  UNL1        0.0391
     38 H          -8.4162   -0.5668   -1.7972 H       1  UNL1        0.0391
     39 H          -6.7676   -1.2006   -2.2961 H       1  UNL1        0.0391
     40 H          -7.0879    1.6305    0.7341 H       1  UNL1        0.0391
     41 H          -7.4088   -0.0845    1.1438 H       1  UNL1        0.0391
     42 H          -8.5281    0.8178    0.1021 H       1  UNL1        0.0391
     43 H          -4.9386    1.1679   -0.4533 H       1  UNL1        0.0442
     44 H          -4.9412   -0.1279   -1.7363 H       1  UNL1        0.0442
     45 H          -5.4697   -1.8257   -0.0502 H       1  UNL1        0.0477
     46 H          -5.4507   -0.6142    1.2363 H       1  UNL1        0.0477
     47 H          -2.8553   -0.8084    2.3557 H       1  UNL1        0.0480
     48 H          -3.5930    0.6542    1.6053 H       1  UNL1        0.0480
     49 H          -1.2359    0.9034    1.9091 H       1  UNL1        0.0480
     50 H          -1.7421    0.9792    0.1731 H       1  UNL1        0.0480
     51 H           0.0192    2.2242    0.6528 H       1  UNL1        0.0634
     52 H           1.0539    6.0351   -1.6504 H       1  UNL1        0.0238
     53 H           0.8888    4.3478   -2.1901 H       1  UNL1        0.0238
     54 H          -0.3764    4.9854   -1.0993 H       1  UNL1        0.0238
     55 H          -0.1624    4.2682    1.1327 H       1  UNL1        0.0238
     56 H           0.4760    5.9400    1.0844 H       1  UNL1        0.0238
     57 H           1.3953    4.6918    2.0151 H       1  UNL1        0.0238
     58 H           3.4845    4.8294   -0.9679 H       1  UNL1        0.0238
     59 H           2.6732    6.2800   -0.3607 H       1  UNL1        0.0238
     60 H           3.3905    5.1300    0.8143 H       1  UNL1        0.0238
     61 H           3.0440   -0.9047   -2.3608 H       1  UNL1        0.1569
     62 H           4.6007   -2.6642   -2.0587 H       1  UNL1        0.1564
     63 H           4.2316   -4.3494    0.4672 H       1  UNL1        0.0637
     64 H           5.8076   -5.7231    1.8611 H       1  UNL1        0.0619
     65 H           8.1600   -5.2152    1.8376 H       1  UNL1        0.0633
     66 H          -1.4822   -2.2146    1.9221 H       1  UNL1        0.0469
     67 H           0.0785   -2.6852    1.0748 H       1  UNL1        0.0469
     68 H          -1.0165   -2.6637   -1.1181 H       1  UNL1        0.0374
     69 H          -1.8162   -3.8006   -0.0045 H       1  UNL1        0.0374
@<TRIPOS>BOND
     1     1     2    1
     2     2     3    1
     3     2     4    1
     4     4     5    1
     5     5     6    1
     6     6     7    1
     7     7     8    1
     8     8     9    1
     9     9    10   am
    10    10    11    2
    11    10    12    1
    12    12    13   ar
    13    13    14   ar
    14    14    15    1
    15    15    16    1
    16    15    17    1
    17    15    18    1
    18    14    19   ar
    19    19    20   ar
    20    20    21    1
    21    21    22   am
    22    22    23    2
    23    22    24   am
    24    24    25    1
    25    25    26   ar
    26    26    27   ar
    27    27    28   ar
    28    28    29   ar
    29    29    30    1
    30    29    31   ar
    31    31    32    1
    32     9    33    1
    33    33    34    1
    34    34    35    1
    35    35    36    2
    36    35     6   am
    37    20    12   ar
    38    31    25   ar
    39     1    37    1
    40     1    38    1
    41     1    39    1
    42     3    40    1
    43     3    41    1
    44     3    42    1
    45     4    43    1
    46     4    44    1
    47     5    45    1
    48     5    46    1
    49     7    47    1
    50     7    48    1
    51     8    49    1
    52     8    50    1
    53    13    51    1
    54    16    52    1
    55    16    53    1
    56    16    54    1
    57    17    55    1
    58    17    56    1
    59    17    57    1
    60    18    58    1
    61    18    59    1
    62    18    60    1
    63    21    61    1
    64    24    62    1
    65    26    63    1
    66    27    64    1
    67    28    65    1
    68    33    66    1
    69    33    67    1
    70    34    68    1
    71    34    69    1
