
     RDKit          3D

 69 71  0  0  0  0  0  0  0  0999 V2000
   -7.3975   -0.8535   -1.4636 C   0  0  0  0  0  0  0  0  0  0  0  0
   -6.7666    0.2866   -0.8629 N   0  0  0  0  0  0  0  0  0  0  0  0
   -7.4428    0.6553    0.3418 C   0  0  0  0  0  0  0  0  0  0  0  0
   -5.3369    0.1700   -0.7438 C   0  0  0  0  0  0  0  0  0  0  0  0
   -4.9608   -0.8940    0.2658 C   0  0  0  0  0  0  0  0  0  0  0  0
   -3.5327   -1.0357    0.4129 N   0  0  0  0  0  0  0  0  0  0  0  0
   -2.9272   -0.2205    1.4267 C   0  0  0  0  0  0  0  0  0  0  0  0
   -1.5525    0.3256    1.0231 C   0  0  0  0  0  0  0  0  0  0  0  0
   -0.6244   -0.7074    0.7382 N   0  0  0  0  0  0  0  0  0  0  0  0
    0.6217   -0.4978    0.1912 C   0  0  0  0  0  0  0  0  0  0  0  0
    1.2999   -1.6038   -0.0064 O   0  0  0  0  0  0  0  0  0  0  0  0
    1.3265    0.7482   -0.2125 C   0  0  0  0  0  0  0  0  0  0  0  0
    0.9528    2.0182    0.0711 C   0  0  0  0  0  0  0  0  0  0  0  0
    1.6789    3.0624   -0.3080 C   0  0  0  0  0  0  0  0  0  0  0  0
    1.5042    4.5302   -0.1350 C   0  0  0  0  0  0  0  0  0  0  0  0
    0.7141    5.0295   -1.3257 C   0  0  0  0  0  0  0  0  0  0  0  0
    0.7634    4.8686    1.1292 C   0  0  0  0  0  0  0  0  0  0  0  0
    2.8461    5.2154   -0.1520 C   0  0  0  0  0  0  0  0  0  0  0  0
    3.0477    2.3385   -1.1521 S   0  0  0  0  0  0  0  0  0  0  0  0
    2.5029    0.6214   -0.9152 C   0  0  0  0  0  0  0  0  0  0  0  0
    3.2064   -0.5322   -1.3912 N   0  0  0  0  0  0  0  0  0  0  0  0
    4.1327   -1.1993   -0.5810 C   0  0  0  0  0  0  0  0  0  0  0  0
    4.3656   -0.7873    0.5810 O   0  0  0  0  0  0  0  0  0  0  0  0
    4.8110   -2.3505   -1.0761 N   0  0  0  0  0  0  0  0  0  0  0  0
    5.7478   -3.0896   -0.3135 C   0  0  0  0  0  0  0  0  0  0  0  0
    5.2863   -4.1334    0.4665 C   0  0  0  0  0  0  0  0  0  0  0  0
    6.1298   -4.9037    1.2409 C   0  0  0  0  0  0  0  0  0  0  0  0
    7.4832   -4.6176    1.2337 C   0  0  0  0  0  0  0  0  0  0  0  0
    7.9799   -3.5848    0.4679 C   0  0  0  0  0  0  0  0  0  0  0  0
    9.7013   -3.2652    0.4913 Cl  0  0  0  0  0  0  0  0  0  0  0  0
    7.0993   -2.8367   -0.2948 C   0  0  0  0  0  0  0  0  0  0  0  0
    7.7436   -1.5318   -1.2581 Cl  0  0  0  0  0  0  0  0  0  0  0  0
   -0.8923   -2.1555    1.0001 C   0  0  0  0  0  0  0  0  0  0  0  0
   -1.6193   -2.7446   -0.1907 C   0  0  0  0  0  0  0  0  0  0  0  0
   -2.8858   -1.9608   -0.4480 C   0  0  0  0  0  0  0  0  0  0  0  0
   -3.4577   -2.1264   -1.5445 O   0  0  0  0  0  0  0  0  0  0  0  0
   -7.5636   -1.6738   -0.7033 H   0  0  0  0  0  0  0  0  0  0  0  0
   -8.4162   -0.5668   -1.7972 H   0  0  0  0  0  0  0  0  0  0  0  0
   -6.7676   -1.2006   -2.2961 H   0  0  0  0  0  0  0  0  0  0  0  0
   -7.0879    1.6305    0.7341 H   0  0  0  0  0  0  0  0  0  0  0  0
   -7.4088   -0.0845    1.1438 H   0  0  0  0  0  0  0  0  0  0  0  0
   -8.5281    0.8178    0.1021 H   0  0  0  0  0  0  0  0  0  0  0  0
   -4.9386    1.1679   -0.4533 H   0  0  0  0  0  0  0  0  0  0  0  0
   -4.9412   -0.1279   -1.7363 H   0  0  0  0  0  0  0  0  0  0  0  0
   -5.4697   -1.8257   -0.0502 H   0  0  0  0  0  0  0  0  0  0  0  0
   -5.4507   -0.6142    1.2363 H   0  0  0  0  0  0  0  0  0  0  0  0
   -2.8553   -0.8084    2.3557 H   0  0  0  0  0  0  0  0  0  0  0  0
   -3.5930    0.6542    1.6053 H   0  0  0  0  0  0  0  0  0  0  0  0
   -1.2359    0.9034    1.9091 H   0  0  0  0  0  0  0  0  0  0  0  0
   -1.7421    0.9792    0.1731 H   0  0  0  0  0  0  0  0  0  0  0  0
    0.0192    2.2242    0.6528 H   0  0  0  0  0  0  0  0  0  0  0  0
    1.0539    6.0351   -1.6504 H   0  0  0  0  0  0  0  0  0  0  0  0
    0.8888    4.3478   -2.1901 H   0  0  0  0  0  0  0  0  0  0  0  0
   -0.3764    4.9854   -1.0993 H   0  0  0  0  0  0  0  0  0  0  0  0
   -0.1624    4.2682    1.1327 H   0  0  0  0  0  0  0  0  0  0  0  0
    0.4760    5.9400    1.0844 H   0  0  0  0  0  0  0  0  0  0  0  0
    1.3953    4.6918    2.0151 H   0  0  0  0  0  0  0  0  0  0  0  0
    3.4845    4.8294   -0.9679 H   0  0  0  0  0  0  0  0  0  0  0  0
    2.6732    6.2800   -0.3607 H   0  0  0  0  0  0  0  0  0  0  0  0
    3.3905    5.1300    0.8143 H   0  0  0  0  0  0  0  0  0  0  0  0
    3.0440   -0.9047   -2.3608 H   0  0  0  0  0  0  0  0  0  0  0  0
    4.6007   -2.6642   -2.0587 H   0  0  0  0  0  0  0  0  0  0  0  0
    4.2316   -4.3494    0.4672 H   0  0  0  0  0  0  0  0  0  0  0  0
    5.8076   -5.7231    1.8611 H   0  0  0  0  0  0  0  0  0  0  0  0
    8.1600   -5.2152    1.8376 H   0  0  0  0  0  0  0  0  0  0  0  0
   -1.4822   -2.2146    1.9221 H   0  0  0  0  0  0  0  0  0  0  0  0
    0.0785   -2.6852    1.0748 H   0  0  0  0  0  0  0  0  0  0  0  0
   -1.0165   -2.6637   -1.1181 H   0  0  0  0  0  0  0  0  0  0  0  0
   -1.8162   -3.8006   -0.0045 H   0  0  0  0  0  0  0  0  0  0  0  0
  1  2  1  0
  2  3  1  0
  2  4  1  0
  4  5  1  0
  5  6  1  0
  6  7  1  0
  7  8  1  0
  8  9  1  0
  9 10  1  0
 10 11  2  0
 10 12  1  0
 12 13  1  0
 13 14  2  0
 14 15  1  0
 15 16  1  0
 15 17  1  0
 15 18  1  0
 14 19  1  0
 19 20  1  0
 20 21  1  0
 21 22  1  0
 22 23  2  0
 22 24  1  0
 24 25  1  0
 25 26  2  0
 26 27  1  0
 27 28  2  0
 28 29  1  0
 29 30  1  0
 29 31  2  0
 31 32  1  0
  9 33  1  0
 33 34  1  0
 34 35  1  0
 35 36  2  0
 35  6  1  0
 20 12  2  0
 31 25  1  0
  1 37  1  0
  1 38  1  0
  1 39  1  0
  3 40  1  0
  3 41  1  0
  3 42  1  0
  4 43  1  0
  4 44  1  0
  5 45  1  0
  5 46  1  0
  7 47  1  0
  7 48  1  0
  8 49  1  0
  8 50  1  0
 13 51  1  0
 16 52  1  0
 16 53  1  0
 16 54  1  0
 17 55  1  0
 17 56  1  0
 17 57  1  0
 18 58  1  0
 18 59  1  0
 18 60  1  0
 21 61  1  0
 24 62  1  0
 26 63  1  0
 27 64  1  0
 28 65  1  0
 33 66  1  0
 33 67  1  0
 34 68  1  0
 34 69  1  0
M  END
$$$$
