@<TRIPOS>MOLECULE
*****
 24 25 0 0 0
SMALL
GASTEIGER

@<TRIPOS>ATOM
      1 C          -4.9184    0.1846    0.8149 C.3     1  UNL1       -0.0107
      2 S          -3.4085   -0.3514    1.7041 S.3     1  UNL1       -0.0912
      3 C          -2.0074   -0.2760    0.5877 C.ar    1  UNL1        0.1699
      4 N          -1.7069   -1.3645   -0.1398 N.ar    1  UNL1       -0.1878
      5 C          -0.6210   -1.1004   -0.9148 C.ar    1  UNL1        0.2348
      6 O           0.0286   -1.9378   -1.8180 O.3     1  UNL1       -0.4912
      7 C          -0.2622    0.1998   -0.6351 C.ar    1  UNL1        0.0848
      8 C           0.8690    0.9453   -1.2342 C.3     1  UNL1        0.0242
      9 C           2.1065    0.4678   -0.6141 C.ar    1  UNL1       -0.0043
     10 C           2.8389    0.8595    0.5004 C.ar    1  UNL1       -0.0512
     11 C           3.9710    0.2116    0.8333 C.ar    1  UNL1       -0.0545
     12 C           4.3543   -0.8426    0.0201 C.ar    1  UNL1       -0.0241
     13 S           2.9908   -0.8915   -1.3003 S.2     1  UNL1       -0.1012
     14 N          -1.1271    0.6726    0.2842 N.ar    1  UNL1       -0.3334
     15 H          -5.7720   -0.4547    1.0538 H       1  UNL1        0.0345
     16 H          -5.0968    1.2663    0.9541 H       1  UNL1        0.0345
     17 H          -4.7357    0.0501   -0.2896 H       1  UNL1        0.0345
     18 H          -0.3211   -2.8553   -2.0565 H       1  UNL1        0.2938
     19 H           0.9249    0.8199   -2.3157 H       1  UNL1        0.0383
     20 H           0.7713    2.0406   -1.0214 H       1  UNL1        0.0383
     21 H           2.3972    1.6988    1.0208 H       1  UNL1        0.0626
     22 H           4.5501    0.5052    1.6961 H       1  UNL1        0.0623
     23 H           5.3464   -1.4546    0.2623 H       1  UNL1        0.0693
     24 H          -1.1717    1.6067    0.7333 H       1  UNL1        0.1677
@<TRIPOS>BOND
     1     1     2    1
     2     2     3    1
     3     3     4   ar
     4     4     5   ar
     5     5     6    1
     6     5     7   ar
     7     7     8    1
     8     8     9    1
     9     9    10   ar
    10    10    11   ar
    11    11    12   ar
    12    12    13   ar
    13     7    14   ar
    14    14     3   ar
    15    13     9   ar
    16     1    15    1
    17     1    16    1
    18     1    17    1
    19     6    18    1
    20     8    19    1
    21     8    20    1
    22    10    21    1
    23    11    22    1
    24    12    23    1
    25    14    24    1
