@<TRIPOS>MOLECULE
*****
 42 44 0 0 0
SMALL
GASTEIGER

@<TRIPOS>ATOM
      1 C           4.4149    2.1155   -0.6094 C.3     1  UNL1       -0.0389
      2 C           4.5535    0.9257    0.2494 C.ar    1  UNL1       -0.0369
      3 C           5.5572    0.8623    1.1848 C.ar    1  UNL1       -0.0580
      4 C           5.7019   -0.2436    1.9774 C.ar    1  UNL1       -0.0601
      5 C           4.8444   -1.3002    1.8454 C.ar    1  UNL1       -0.0426
      6 C           3.8086   -1.2632    0.8983 C.ar    1  UNL1        0.0533
      7 CL          2.7256   -2.6180    0.8182 Cl      1  UNL1       -0.0828
      8 C           3.6602   -0.1445    0.0930 C.ar    1  UNL1        0.0579
      9 C           2.6080    0.0168   -0.8789 C.2     1  UNL1        0.2460
     10 O           2.2396    1.1975   -1.1565 O.2     1  UNL1       -0.2701
     11 N           1.9748   -1.0516   -1.5353 N.am    1  UNL1       -0.3072
     12 C           0.8900   -0.8034   -2.5128 C.3     1  UNL1        0.0371
     13 C          -0.3987   -0.5115   -1.8475 C.ar    1  UNL1       -0.0303
     14 C          -1.2091   -1.5747   -1.4786 C.ar    1  UNL1       -0.0565
     15 C          -2.4320   -1.4266   -0.8613 C.ar    1  UNL1       -0.0537
     16 C          -2.9045   -0.1502   -0.5806 C.ar    1  UNL1       -0.0177
     17 C          -4.1895    0.0603    0.0779 C.ar    1  UNL1       -0.0114
     18 C          -4.9621    1.1727   -0.1716 C.ar    1  UNL1       -0.0378
     19 C          -6.1696    1.2820    0.5105 C.ar    1  UNL1        0.0055
     20 N          -6.5973    0.3601    1.3839 N.ar    1  UNL1       -0.3291
     21 C          -5.8357   -0.7203    1.6190 C.ar    1  UNL1        0.2493
     22 O          -6.2148   -1.6026    2.4364 O.2     1  UNL1       -0.2679
     23 C          -4.6367   -0.8707    0.9695 C.ar    1  UNL1        0.0105
     24 C          -2.1039    0.9114   -0.9452 C.ar    1  UNL1       -0.0537
     25 C          -0.8803    0.7434   -1.5637 C.ar    1  UNL1       -0.0565
     26 H           3.6114    2.8072   -0.2985 H       1  UNL1        0.0278
     27 H           5.3687    2.7341   -0.5155 H       1  UNL1        0.0278
     28 H           4.3304    1.9152   -1.6834 H       1  UNL1        0.0278
     29 H           6.2205    1.7288    1.2577 H       1  UNL1        0.0620
     30 H           6.5189   -0.2237    2.6957 H       1  UNL1        0.0618
     31 H           4.9403   -2.1663    2.4506 H       1  UNL1        0.0632
     32 H           2.2486   -2.0569   -1.3877 H       1  UNL1        0.1493
     33 H           0.8362   -1.6706   -3.2017 H       1  UNL1        0.0512
     34 H           1.2065    0.0566   -3.1721 H       1  UNL1        0.0512
     35 H          -0.8492   -2.5820   -1.6938 H       1  UNL1        0.0621
     36 H          -3.0625   -2.2602   -0.5749 H       1  UNL1        0.0624
     37 H          -4.6500    1.9435   -0.8739 H       1  UNL1        0.0638
     38 H          -6.7723    2.1490    0.3167 H       1  UNL1        0.0808
     39 H          -7.5266    0.4820    1.8839 H       1  UNL1        0.1683
     40 H          -4.0581   -1.7712    1.1990 H       1  UNL1        0.0678
     41 H          -2.4849    1.9205   -0.7201 H       1  UNL1        0.0624
     42 H          -0.3226    1.6271   -1.8229 H       1  UNL1        0.0621
@<TRIPOS>BOND
     1     1     2    1
     2     2     3   ar
     3     3     4   ar
     4     4     5   ar
     5     5     6   ar
     6     6     7    1
     7     6     8   ar
     8     8     9    1
     9     9    10    2
    10     9    11   am
    11    11    12    1
    12    12    13    1
    13    13    14   ar
    14    14    15   ar
    15    15    16   ar
    16    16    17    1
    17    17    18   ar
    18    18    19   ar
    19    19    20   ar
    20    20    21   ar
    21    21    22    2
    22    21    23   ar
    23    16    24   ar
    24    24    25   ar
    25     8     2   ar
    26    25    13   ar
    27    23    17   ar
    28     1    26    1
    29     1    27    1
    30     1    28    1
    31     3    29    1
    32     4    30    1
    33     5    31    1
    34    11    32    1
    35    12    33    1
    36    12    34    1
    37    14    35    1
    38    15    36    1
    39    18    37    1
    40    19    38    1
    41    20    39    1
    42    23    40    1
    43    24    41    1
    44    25    42    1
