
     RDKit          3D

 42 44  0  0  0  0  0  0  0  0999 V2000
    4.4149    2.1155   -0.6094 C   0  0  0  0  0  0  0  0  0  0  0  0
    4.5535    0.9257    0.2494 C   0  0  0  0  0  0  0  0  0  0  0  0
    5.5572    0.8623    1.1848 C   0  0  0  0  0  0  0  0  0  0  0  0
    5.7019   -0.2436    1.9774 C   0  0  0  0  0  0  0  0  0  0  0  0
    4.8444   -1.3002    1.8454 C   0  0  0  0  0  0  0  0  0  0  0  0
    3.8086   -1.2632    0.8983 C   0  0  0  0  0  0  0  0  0  0  0  0
    2.7256   -2.6180    0.8182 Cl  0  0  0  0  0  0  0  0  0  0  0  0
    3.6602   -0.1445    0.0930 C   0  0  0  0  0  0  0  0  0  0  0  0
    2.6080    0.0168   -0.8789 C   0  0  0  0  0  0  0  0  0  0  0  0
    2.2396    1.1975   -1.1565 O   0  0  0  0  0  0  0  0  0  0  0  0
    1.9748   -1.0516   -1.5353 N   0  0  0  0  0  0  0  0  0  0  0  0
    0.8900   -0.8034   -2.5128 C   0  0  0  0  0  0  0  0  0  0  0  0
   -0.3987   -0.5115   -1.8475 C   0  0  0  0  0  0  0  0  0  0  0  0
   -1.2091   -1.5747   -1.4786 C   0  0  0  0  0  0  0  0  0  0  0  0
   -2.4320   -1.4266   -0.8613 C   0  0  0  0  0  0  0  0  0  0  0  0
   -2.9045   -0.1502   -0.5806 C   0  0  0  0  0  0  0  0  0  0  0  0
   -4.1895    0.0603    0.0779 C   0  0  0  0  0  0  0  0  0  0  0  0
   -4.9621    1.1727   -0.1716 C   0  0  0  0  0  0  0  0  0  0  0  0
   -6.1696    1.2820    0.5105 C   0  0  0  0  0  0  0  0  0  0  0  0
   -6.5973    0.3601    1.3839 N   0  0  0  0  0  0  0  0  0  0  0  0
   -5.8357   -0.7203    1.6190 C   0  0  0  0  0  0  0  0  0  0  0  0
   -6.2148   -1.6026    2.4364 O   0  0  0  0  0  0  0  0  0  0  0  0
   -4.6367   -0.8707    0.9695 C   0  0  0  0  0  0  0  0  0  0  0  0
   -2.1039    0.9114   -0.9452 C   0  0  0  0  0  0  0  0  0  0  0  0
   -0.8803    0.7434   -1.5637 C   0  0  0  0  0  0  0  0  0  0  0  0
    3.6114    2.8072   -0.2985 H   0  0  0  0  0  0  0  0  0  0  0  0
    5.3687    2.7341   -0.5155 H   0  0  0  0  0  0  0  0  0  0  0  0
    4.3304    1.9152   -1.6834 H   0  0  0  0  0  0  0  0  0  0  0  0
    6.2205    1.7288    1.2577 H   0  0  0  0  0  0  0  0  0  0  0  0
    6.5189   -0.2237    2.6957 H   0  0  0  0  0  0  0  0  0  0  0  0
    4.9403   -2.1663    2.4506 H   0  0  0  0  0  0  0  0  0  0  0  0
    2.2486   -2.0569   -1.3877 H   0  0  0  0  0  0  0  0  0  0  0  0
    0.8362   -1.6706   -3.2017 H   0  0  0  0  0  0  0  0  0  0  0  0
    1.2065    0.0566   -3.1721 H   0  0  0  0  0  0  0  0  0  0  0  0
   -0.8492   -2.5820   -1.6938 H   0  0  0  0  0  0  0  0  0  0  0  0
   -3.0625   -2.2602   -0.5749 H   0  0  0  0  0  0  0  0  0  0  0  0
   -4.6500    1.9435   -0.8739 H   0  0  0  0  0  0  0  0  0  0  0  0
   -6.7723    2.1490    0.3167 H   0  0  0  0  0  0  0  0  0  0  0  0
   -7.5266    0.4820    1.8839 H   0  0  0  0  0  0  0  0  0  0  0  0
   -4.0581   -1.7712    1.1990 H   0  0  0  0  0  0  0  0  0  0  0  0
   -2.4849    1.9205   -0.7201 H   0  0  0  0  0  0  0  0  0  0  0  0
   -0.3226    1.6271   -1.8229 H   0  0  0  0  0  0  0  0  0  0  0  0
  1  2  1  0
  2  3  2  0
  3  4  1  0
  4  5  2  0
  5  6  1  0
  6  7  1  0
  6  8  2  0
  8  9  1  0
  9 10  2  0
  9 11  1  0
 11 12  1  0
 12 13  1  0
 13 14  2  0
 14 15  1  0
 15 16  2  0
 16 17  1  0
 17 18  1  0
 18 19  2  0
 19 20  1  0
 20 21  1  0
 21 22  2  0
 21 23  1  0
 16 24  1  0
 24 25  2  0
  8  2  1  0
 25 13  1  0
 23 17  2  0
  1 26  1  0
  1 27  1  0
  1 28  1  0
  3 29  1  0
  4 30  1  0
  5 31  1  0
 11 32  1  0
 12 33  1  0
 12 34  1  0
 14 35  1  0
 15 36  1  0
 18 37  1  0
 19 38  1  0
 20 39  1  0
 23 40  1  0
 24 41  1  0
 25 42  1  0
M  END
$$$$
