@<TRIPOS>MOLECULE
*****
 86 89 0 0 0
SMALL
GASTEIGER

@<TRIPOS>ATOM
      1 C          -9.0138    1.3430   -1.4825 C.3     1  UNL1        0.0820
      2 O          -7.9451    1.7165   -0.6593 O.3     1  UNL1       -0.4646
      3 C          -6.6559    1.2829   -0.9184 C.2     1  UNL1        0.3373
      4 O          -7.1586    0.6954   -1.8956 O.2     1  UNL1       -0.2452
      5 C          -5.5492    1.6716   -0.0571 C.2     1  UNL1        0.0651
      6 C          -5.7519    2.4378    0.9954 C.2     1  UNL1        0.0157
      7 C          -7.0708    2.9709    1.4099 C.3     1  UNL1       -0.0260
      8 N          -4.5417    2.7001    1.6839 N.pl3   1  UNL1       -0.3207
      9 C          -3.2556    2.2148    1.3138 C.2     1  UNL1        0.0157
     10 C          -2.1061    2.5938    2.1510 C.3     1  UNL1       -0.0260
     11 C          -3.1726    1.4512    0.2402 C.2     1  UNL1        0.0652
     12 C          -4.3403    1.0568   -0.6104 C.3     1  UNL1        0.0508
     13 C          -4.4592   -0.4294   -0.6781 C.ar    1  UNL1       -0.0287
     14 C          -4.6359   -0.9591    0.6079 C.ar    1  UNL1        0.0197
     15 C          -4.7784   -2.3165    0.7872 C.ar    1  UNL1        0.2734
     16 C          -4.7575   -3.2195   -0.2500 C.ar    1  UNL1        0.0156
     17 C          -4.5819   -2.6715   -1.5025 C.ar    1  UNL1       -0.0551
     18 C          -4.4366   -1.3266   -1.7238 C.ar    1  UNL1       -0.0572
     19 N          -4.9679   -2.9008    2.0672 N.pl3   1  UNL1        0.0796
     20 O          -5.0409   -2.4135    3.3647 O.co2   1  UNL1       -0.5760
     21 O          -5.0553   -2.6331    3.2739 O.2     1  UNL1        0.0414
     22 C          -1.8374    0.9521   -0.1879 C.2     1  UNL1        0.3381
     23 O          -1.8390    0.2265   -1.2441 O.2     1  UNL1       -0.2452
     24 O          -0.7332    1.2843    0.5369 O.3     1  UNL1       -0.4540
     25 C           0.5747    0.8026    0.0767 C.3     1  UNL1        0.1208
     26 C           0.8091    1.4112   -1.2765 C.3     1  UNL1       -0.0239
     27 C           0.3486   -0.7104   -0.0470 C.3     1  UNL1       -0.0239
     28 C           1.5938    1.0434    1.0904 C.3     1  UNL1        0.0381
     29 N           2.9553    0.6292    0.9000 N.3     1  UNL1       -0.3016
     30 C           3.6181    0.6959    2.2432 C.3     1  UNL1       -0.0126
     31 C           3.7504    1.4140    0.0007 C.3     1  UNL1       -0.0004
     32 C           5.1473    0.9912   -0.2595 C.3     1  UNL1       -0.0293
     33 C           5.3112   -0.3123   -0.9604 C.3     1  UNL1        0.0104
     34 C           6.7570   -0.6499   -1.1921 C.ar    1  UNL1       -0.0399
     35 C           7.6327   -0.5485   -0.1315 C.ar    1  UNL1       -0.0580
     36 C           8.9677   -0.8604   -0.3552 C.ar    1  UNL1       -0.0615
     37 C           9.4362   -1.2670   -1.6074 C.ar    1  UNL1       -0.0617
     38 C           8.5648   -1.3675   -2.6636 C.ar    1  UNL1       -0.0615
     39 C           7.2511   -1.0591   -2.4359 C.ar    1  UNL1       -0.0580
     40 C           4.5445   -1.4637   -0.5290 C.ar    1  UNL1       -0.0399
     41 C           4.8143   -2.2579    0.5805 C.ar    1  UNL1       -0.0580
     42 C           4.1184   -3.3659    1.0151 C.ar    1  UNL1       -0.0615
     43 C           3.0267   -3.7471    0.2788 C.ar    1  UNL1       -0.0617
     44 C           2.6850   -3.0185   -0.8366 C.ar    1  UNL1       -0.0615
     45 C           3.4150   -1.9180   -1.2266 C.ar    1  UNL1       -0.0580
     46 H          -9.9884    1.7743   -1.1219 H       1  UNL1        0.0661
     47 H          -8.8718    1.7937   -2.4838 H       1  UNL1        0.0661
     48 H          -9.2043    0.2476   -1.5141 H       1  UNL1        0.0661
     49 H          -6.9130    3.4938    2.3976 H       1  UNL1        0.0290
     50 H          -7.4510    3.7633    0.7154 H       1  UNL1        0.0290
     51 H          -7.7944    2.1690    1.6107 H       1  UNL1        0.0290
     52 H          -4.6276    3.3115    2.5434 H       1  UNL1        0.1516
     53 H          -1.6683    1.7007    2.5996 H       1  UNL1        0.0290
     54 H          -2.4466    3.2445    3.0088 H       1  UNL1        0.0290
     55 H          -1.3995    3.2258    1.5704 H       1  UNL1        0.0290
     56 H          -4.1968    1.4204   -1.6435 H       1  UNL1        0.0451
     57 H          -4.6765   -0.3952    1.5351 H       1  UNL1        0.0688
     58 H          -4.8605   -4.2927   -0.2065 H       1  UNL1        0.0685
     59 H          -4.5493   -3.2805   -2.3897 H       1  UNL1        0.0620
     60 H          -4.2953   -0.7974   -2.6579 H       1  UNL1        0.0621
     61 H           1.3497    0.7767   -1.9944 H       1  UNL1        0.0268
     62 H           1.2754    2.4199   -1.2500 H       1  UNL1        0.0268
     63 H          -0.2110    1.6521   -1.7201 H       1  UNL1        0.0268
     64 H           0.5738   -0.9845   -1.0782 H       1  UNL1        0.0268
     65 H          -0.6664   -1.0242    0.2341 H       1  UNL1        0.0268
     66 H           1.0375   -1.2097    0.6726 H       1  UNL1        0.0268
     67 H           1.2550    0.5440    2.0435 H       1  UNL1        0.0465
     68 H           1.6429    2.1396    1.3983 H       1  UNL1        0.0465
     69 H           3.9934    1.6802    2.4782 H       1  UNL1        0.0391
     70 H           4.4265   -0.0332    2.2147 H       1  UNL1        0.0391
     71 H           2.8227    0.4269    2.9563 H       1  UNL1        0.0391
     72 H           3.2425    1.4687   -0.9717 H       1  UNL1        0.0427
     73 H           3.7307    2.4519    0.4242 H       1  UNL1        0.0427
     74 H           5.5960    1.7612   -0.9654 H       1  UNL1        0.0287
     75 H           5.8140    1.0852    0.6339 H       1  UNL1        0.0287
     76 H           4.9428   -0.0979   -2.0351 H       1  UNL1        0.0398
     77 H           7.3674   -0.2449    0.8685 H       1  UNL1        0.0620
     78 H           9.7707   -0.8343    0.3634 H       1  UNL1        0.0618
     79 H          10.4629   -1.5187   -1.8277 H       1  UNL1        0.0618
     80 H           8.8998   -1.6826   -3.6593 H       1  UNL1        0.0618
     81 H           6.4936   -1.1122   -3.2199 H       1  UNL1        0.0620
     82 H           5.6753   -1.9686    1.1720 H       1  UNL1        0.0620
     83 H           4.4370   -3.8920    1.8952 H       1  UNL1        0.0618
     84 H           2.4946   -4.6110    0.6280 H       1  UNL1        0.0618
     85 H           1.8028   -3.3491   -1.4033 H       1  UNL1        0.0618
     86 H           3.0768   -1.3914   -2.1241 H       1  UNL1        0.0620
@<TRIPOS>UNITY_ATOM_ATTR
19 1
charge 1
20 1
charge -1
@<TRIPOS>BOND
     1     1     2    1
     2     2     3    1
     3     3     4    2
     4     3     5    1
     5     5     6    2
     6     6     7    1
     7     6     8    1
     8     8     9    1
     9     9    10    1
    10     9    11    2
    11    11    12    1
    12    12    13    1
    13    13    14   ar
    14    14    15   ar
    15    15    16   ar
    16    16    17   ar
    17    17    18   ar
    18    15    19    1
    19    19    20    1
    20    19    21    2
    21    11    22    1
    22    22    23    2
    23    22    24    1
    24    24    25    1
    25    25    26    1
    26    25    27    1
    27    25    28    1
    28    28    29    1
    29    29    30    1
    30    29    31    1
    31    31    32    1
    32    32    33    1
    33    33    34    1
    34    34    35   ar
    35    35    36   ar
    36    36    37   ar
    37    37    38   ar
    38    38    39   ar
    39    33    40    1
    40    40    41   ar
    41    41    42   ar
    42    42    43   ar
    43    43    44   ar
    44    44    45   ar
    45    12     5    1
    46    18    13   ar
    47    39    34   ar
    48    45    40   ar
    49     1    46    1
    50     1    47    1
    51     1    48    1
    52     7    49    1
    53     7    50    1
    54     7    51    1
    55     8    52    1
    56    10    53    1
    57    10    54    1
    58    10    55    1
    59    12    56    1
    60    14    57    1
    61    16    58    1
    62    17    59    1
    63    18    60    1
    64    26    61    1
    65    26    62    1
    66    26    63    1
    67    27    64    1
    68    27    65    1
    69    27    66    1
    70    28    67    1
    71    28    68    1
    72    30    69    1
    73    30    70    1
    74    30    71    1
    75    31    72    1
    76    31    73    1
    77    32    74    1
    78    32    75    1
    79    33    76    1
    80    35    77    1
    81    36    78    1
    82    37    79    1
    83    38    80    1
    84    39    81    1
    85    41    82    1
    86    42    83    1
    87    43    84    1
    88    44    85    1
    89    45    86    1
