
     RDKit          3D

 94 99  0  0  0  0  0  0  0  0999 V2000
   10.2778   -4.4673    1.6042 C   0  0  0  0  0  0  0  0  0  0  0  0
    9.6995   -3.5261    1.5860 C   0  0  0  0  0  0  0  0  0  0  0  0
    8.8748   -2.1835    1.5616 C   0  0  0  0  0  0  0  0  0  0  0  0
    7.5924   -2.1295    1.8377 C   0  0  0  0  0  0  0  0  0  0  0  0
    6.8938   -0.9383    1.5957 C   0  0  0  0  0  0  0  0  0  0  0  0
    5.4899   -0.8080    1.7286 N   0  0  0  0  0  0  0  0  0  0  0  0
    4.8073   -0.7453    0.4359 C   0  0  0  0  0  0  0  0  0  0  0  0
    5.5249   -1.1563   -0.6648 N   0  0  0  0  0  0  0  0  0  0  0  0
    5.0141   -1.0641   -1.9140 C   0  0  0  0  0  0  0  0  0  0  0  0
    3.7806   -0.5454   -2.0570 C   0  0  0  0  0  0  0  0  0  0  0  0
    3.0080   -0.1100   -0.9491 C   0  0  0  0  0  0  0  0  0  0  0  0
    1.8089    0.3569   -1.1577 O   0  0  0  0  0  0  0  0  0  0  0  0
    0.6316    0.7057   -0.6745 C   0  0  0  0  0  0  0  0  0  0  0  0
    0.0339    1.9321   -0.5787 C   0  0  0  0  0  0  0  0  0  0  0  0
   -1.1622    2.2442   -0.0965 C   0  0  0  0  0  0  0  0  0  0  0  0
   -1.9934    1.1582    0.3986 C   0  0  0  0  0  0  0  0  0  0  0  0
   -3.3141    1.4982    0.7600 N   0  0  0  0  0  0  0  0  0  0  0  0
   -4.5543    0.9429    0.4456 C   0  0  0  0  0  0  0  0  0  0  0  0
   -4.7234   -0.0474   -0.2735 O   0  0  0  0  0  0  0  0  0  0  0  0
   -5.7702    1.5335    0.9977 N   0  0  0  0  0  0  0  0  0  0  0  0
   -6.9995    0.8545    0.9229 C   0  0  0  0  0  0  0  0  0  0  0  0
   -7.4454    0.1440    2.0861 C   0  0  0  0  0  0  0  0  0  0  0  0
   -8.6350   -0.4198    1.7887 C   0  0  0  0  0  0  0  0  0  0  0  0
   -9.3708   -1.2928    2.8579 C   0  0  0  0  0  0  0  0  0  0  0  0
   -8.4063   -2.5117    2.9800 C   0  0  0  0  0  0  0  0  0  0  0  0
   -9.4648   -0.4963    4.0978 C   0  0  0  0  0  0  0  0  0  0  0  0
  -10.6601   -1.7537    2.3199 C   0  0  0  0  0  0  0  0  0  0  0  0
   -8.9387   -0.1196    0.5733 N   0  0  0  0  0  0  0  0  0  0  0  0
   -7.9395    0.6633    0.0101 N   0  0  0  0  0  0  0  0  0  0  0  0
   -8.1297    1.0882   -1.3063 C   0  0  0  0  0  0  0  0  0  0  0  0
   -8.2505    2.3729   -1.7166 C   0  0  0  0  0  0  0  0  0  0  0  0
   -8.5676    2.7059   -3.0582 C   0  0  0  0  0  0  0  0  0  0  0  0
   -8.7548    1.7038   -3.9692 C   0  0  0  0  0  0  0  0  0  0  0  0
   -9.0959    1.9650   -5.3070 O   0  0  0  0  0  0  0  0  0  0  0  0
   -9.3189    3.2963   -5.7080 C   0  0  0  0  0  0  0  0  0  0  0  0
   -8.6238    0.3733   -3.5809 C   0  0  0  0  0  0  0  0  0  0  0  0
   -8.3218    0.0938   -2.2976 C   0  0  0  0  0  0  0  0  0  0  0  0
   -1.4864   -0.1080    0.3583 C   0  0  0  0  0  0  0  0  0  0  0  0
   -2.2215   -1.1504    0.7924 C   0  0  0  0  0  0  0  0  0  0  0  0
   -1.6815   -2.4047    0.6833 C   0  0  0  0  0  0  0  0  0  0  0  0
   -0.4552   -2.6898    0.1719 C   0  0  0  0  0  0  0  0  0  0  0  0
    0.3700   -1.6027   -0.2858 C   0  0  0  0  0  0  0  0  0  0  0  0
   -0.1852   -0.3454   -0.1720 C   0  0  0  0  0  0  0  0  0  0  0  0
    3.6124   -0.2516    0.3040 N   0  0  0  0  0  0  0  0  0  0  0  0
    7.6021    0.1764    1.0751 C   0  0  0  0  0  0  0  0  0  0  0  0
    8.9704    0.0837    0.8045 C   0  0  0  0  0  0  0  0  0  0  0  0
    9.7620    1.1388    0.1789 C   0  0  0  0  0  0  0  0  0  0  0  0
    9.1222    2.0236   -0.5371 O   0  0  0  0  0  0  0  0  0  0  0  0
   11.1072    1.2232    0.3109 N   0  0  0  0  0  0  0  0  0  0  0  0
   12.2319    1.9258   -0.1174 C   0  0  0  0  0  0  0  0  0  0  0  0
   12.7089    1.3520   -1.4822 C   0  0  0  0  0  0  0  0  0  0  0  0
   13.9064    1.9731   -1.8968 O   0  0  0  0  0  0  0  0  0  0  0  0
   14.9709    1.5394   -1.1595 C   0  0  0  0  0  0  0  0  0  0  0  0
    9.5921   -1.1230    1.0591 C   0  0  0  0  0  0  0  0  0  0  0  0
   10.8380   -5.4129    1.6291 H   0  0  0  0  0  0  0  0  0  0  0  0
    7.0262   -2.9672    2.2474 H   0  0  0  0  0  0  0  0  0  0  0  0
    5.0467   -0.7610    2.6397 H   0  0  0  0  0  0  0  0  0  0  0  0
    5.5448   -1.3871   -2.8149 H   0  0  0  0  0  0  0  0  0  0  0  0
    3.2911   -0.4022   -3.0530 H   0  0  0  0  0  0  0  0  0  0  0  0
    0.6873    2.7515   -0.9941 H   0  0  0  0  0  0  0  0  0  0  0  0
   -1.6128    3.1987    0.0107 H   0  0  0  0  0  0  0  0  0  0  0  0
   -3.3486    2.3799    1.4234 H   0  0  0  0  0  0  0  0  0  0  0  0
   -5.6612    2.3718    1.5589 H   0  0  0  0  0  0  0  0  0  0  0  0
   -6.8687    0.1167    2.9869 H   0  0  0  0  0  0  0  0  0  0  0  0
   -8.9710   -3.3214    3.3905 H   0  0  0  0  0  0  0  0  0  0  0  0
   -7.6440   -2.1469    3.7440 H   0  0  0  0  0  0  0  0  0  0  0  0
   -7.8865   -2.6544    2.0415 H   0  0  0  0  0  0  0  0  0  0  0  0
   -8.6384   -0.6830    4.8430 H   0  0  0  0  0  0  0  0  0  0  0  0
  -10.4443   -0.6056    4.5472 H   0  0  0  0  0  0  0  0  0  0  0  0
   -9.3489    0.6015    3.8011 H   0  0  0  0  0  0  0  0  0  0  0  0
  -11.5363   -1.6075    3.0220 H   0  0  0  0  0  0  0  0  0  0  0  0
  -10.8918   -1.0485    1.4433 H   0  0  0  0  0  0  0  0  0  0  0  0
  -10.6244   -2.7762    1.8991 H   0  0  0  0  0  0  0  0  0  0  0  0
   -8.1041    3.2174   -1.0409 H   0  0  0  0  0  0  0  0  0  0  0  0
   -8.6312    3.7218   -3.3082 H   0  0  0  0  0  0  0  0  0  0  0  0
  -10.1299    3.2660   -6.5349 H   0  0  0  0  0  0  0  0  0  0  0  0
   -8.5176    3.9585   -5.8959 H   0  0  0  0  0  0  0  0  0  0  0  0
   -9.9659    3.7901   -4.8689 H   0  0  0  0  0  0  0  0  0  0  0  0
   -8.8179   -0.3434   -4.3557 H   0  0  0  0  0  0  0  0  0  0  0  0
   -8.2444   -0.9675   -1.9940 H   0  0  0  0  0  0  0  0  0  0  0  0
   -3.1685   -1.0081    1.2508 H   0  0  0  0  0  0  0  0  0  0  0  0
   -2.2832   -3.2744    1.0279 H   0  0  0  0  0  0  0  0  0  0  0  0
   -0.0146   -3.6580    0.0530 H   0  0  0  0  0  0  0  0  0  0  0  0
    1.3376   -1.8053   -0.7019 H   0  0  0  0  0  0  0  0  0  0  0  0
    7.0409    1.0668    0.9131 H   0  0  0  0  0  0  0  0  0  0  0  0
   11.4589    0.4234    1.0788 H   0  0  0  0  0  0  0  0  0  0  0  0
   13.0181    2.1394    0.5478 H   0  0  0  0  0  0  0  0  0  0  0  0
   11.8674    3.0151   -0.4715 H   0  0  0  0  0  0  0  0  0  0  0  0
   12.9581    0.2926   -1.3061 H   0  0  0  0  0  0  0  0  0  0  0  0
   11.9407    1.4821   -2.2731 H   0  0  0  0  0  0  0  0  0  0  0  0
   15.1811    0.4549   -1.3956 H   0  0  0  0  0  0  0  0  0  0  0  0
   15.9047    2.1067   -1.2681 H   0  0  0  0  0  0  0  0  0  0  0  0
   14.6616    1.4486   -0.0705 H   0  0  0  0  0  0  0  0  0  0  0  0
   10.6278   -1.2149    0.8816 H   0  0  0  0  0  0  0  0  0  0  0  0
  1  2  3  0
  2  3  1  0
  3  4  2  0
  4  5  1  0
  5  6  1  0
  6  7  1  0
  7  8  2  0
  8  9  1  0
  9 10  2  0
 10 11  1  0
 11 12  1  0
 12 13  1  0
 13 14  2  0
 14 15  1  0
 15 16  2  0
 16 17  1  0
 17 18  1  0
 18 19  2  0
 18 20  1  0
 20 21  1  0
 21 22  2  0
 22 23  1  0
 23 24  1  0
 24 25  1  0
 24 26  1  0
 24 27  1  0
 23 28  2  0
 28 29  1  0
 29 30  1  0
 30 31  2  0
 31 32  1  0
 32 33  2  0
 33 34  1  0
 34 35  1  0
 33 36  1  0
 36 37  2  0
 16 38  1  0
 38 39  2  0
 39 40  1  0
 40 41  2  0
 41 42  1  0
 42 43  2  0
 11 44  2  0
  5 45  2  0
 45 46  1  0
 46 47  1  0
 47 48  2  0
 47 49  1  0
 49 50  1  0
 50 51  1  0
 51 52  1  0
 52 53  1  0
 46 54  2  0
 54  3  1  0
 44  7  1  0
 43 13  1  0
 29 21  1  0
 37 30  1  0
 43 38  1  0
  1 55  1  0
  4 56  1  0
  6 57  1  0
  9 58  1  0
 10 59  1  0
 14 60  1  0
 15 61  1  0
 17 62  1  0
 20 63  1  0
 22 64  1  0
 25 65  1  0
 25 66  1  0
 25 67  1  0
 26 68  1  0
 26 69  1  0
 26 70  1  0
 27 71  1  0
 27 72  1  0
 27 73  1  0
 31 74  1  0
 32 75  1  0
 35 76  1  0
 35 77  1  0
 35 78  1  0
 36 79  1  0
 37 80  1  0
 39 81  1  0
 40 82  1  0
 41 83  1  0
 42 84  1  0
 45 85  1  0
 49 86  1  0
 50 87  1  0
 50 88  1  0
 51 89  1  0
 51 90  1  0
 53 91  1  0
 53 92  1  0
 53 93  1  0
 54 94  1  0
M  END
$$$$
