@<TRIPOS>MOLECULE
*****
 94 99 0 0 0
SMALL
GASTEIGER

@<TRIPOS>ATOM
      1 C          10.2778   -4.4673    1.6042 C.1     1  UNL1       -0.1139
      2 C           9.6995   -3.5261    1.5860 C.1     1  UNL1       -0.0696
      3 C           8.8748   -2.1835    1.5616 C.ar    1  UNL1        0.0271
      4 C           7.5924   -2.1295    1.8377 C.ar    1  UNL1       -0.0250
      5 C           6.8938   -0.9383    1.5957 C.ar    1  UNL1        0.0354
      6 N           5.4899   -0.8080    1.7286 N.pl3   1  UNL1       -0.2835
      7 C           4.8073   -0.7453    0.4359 C.ar    1  UNL1        0.2226
      8 N           5.5249   -1.1563   -0.6648 N.ar    1  UNL1       -0.2225
      9 C           5.0141   -1.0641   -1.9140 C.ar    1  UNL1        0.0362
     10 C           3.7806   -0.5454   -2.0570 C.ar    1  UNL1        0.0186
     11 C           3.0080   -0.1100   -0.9491 C.ar    1  UNL1        0.2249
     12 O           1.8089    0.3569   -1.1577 O.3     1  UNL1       -0.4373
     13 C           0.6316    0.7057   -0.6745 C.ar    1  UNL1        0.1381
     14 C           0.0339    1.9321   -0.5787 C.ar    1  UNL1       -0.0169
     15 C          -1.1622    2.2442   -0.0965 C.ar    1  UNL1       -0.0363
     16 C          -1.9934    1.1582    0.3986 C.ar    1  UNL1        0.0427
     17 N          -3.3141    1.4982    0.7600 N.am    1  UNL1       -0.2686
     18 C          -4.5543    0.9429    0.4456 C.2     1  UNL1        0.3092
     19 O          -4.7234   -0.0474   -0.2735 O.2     1  UNL1       -0.2521
     20 N          -5.7702    1.5335    0.9977 N.am    1  UNL1       -0.2538
     21 C          -6.9995    0.8545    0.9229 C.ar    1  UNL1        0.1299
     22 C          -7.4454    0.1440    2.0861 C.ar    1  UNL1        0.0021
     23 C          -8.6350   -0.4198    1.7887 C.ar    1  UNL1        0.0706
     24 C          -9.3708   -1.2928    2.8579 C.3     1  UNL1        0.0063
     25 C          -8.4063   -2.5117    2.9800 C.3     1  UNL1       -0.0546
     26 C          -9.4648   -0.4963    4.0978 C.3     1  UNL1       -0.0546
     27 C         -10.6601   -1.7537    2.3199 C.3     1  UNL1       -0.0546
     28 N          -8.9387   -0.1196    0.5733 N.ar    1  UNL1       -0.1691
     29 N          -7.9395    0.6633    0.0101 N.ar    1  UNL1       -0.2181
     30 C          -8.1297    1.0882   -1.3063 C.ar    1  UNL1        0.0677
     31 C          -8.2505    2.3729   -1.7166 C.ar    1  UNL1       -0.0327
     32 C          -8.5676    2.7059   -3.0582 C.ar    1  UNL1       -0.0179
     33 C          -8.7548    1.7038   -3.9692 C.ar    1  UNL1        0.1202
     34 O          -9.0959    1.9650   -5.3070 O.3     1  UNL1       -0.4951
     35 C          -9.3189    3.2963   -5.7080 C.3     1  UNL1        0.0788
     36 C          -8.6238    0.3733   -3.5809 C.ar    1  UNL1       -0.0179
     37 C          -8.3218    0.0938   -2.2976 C.ar    1  UNL1       -0.0327
     38 C          -1.4864   -0.1080    0.3583 C.ar    1  UNL1        0.0069
     39 C          -2.2215   -1.1504    0.7924 C.ar    1  UNL1       -0.0521
     40 C          -1.6815   -2.4047    0.6833 C.ar    1  UNL1       -0.0611
     41 C          -0.4552   -2.6898    0.1719 C.ar    1  UNL1       -0.0611
     42 C           0.3700   -1.6027   -0.2858 C.ar    1  UNL1       -0.0505
     43 C          -0.1852   -0.3454   -0.1720 C.ar    1  UNL1        0.0262
     44 N           3.6124   -0.2516    0.3040 N.ar    1  UNL1       -0.1789
     45 C           7.6021    0.1764    1.0751 C.ar    1  UNL1       -0.0283
     46 C           8.9704    0.0837    0.8045 C.ar    1  UNL1        0.0396
     47 C           9.7620    1.1388    0.1789 C.2     1  UNL1        0.2442
     48 O           9.1222    2.0236   -0.5371 O.2     1  UNL1       -0.2702
     49 N          11.1072    1.2232    0.3109 N.am    1  UNL1       -0.3092
     50 C          12.2319    1.9258   -0.1174 C.3     1  UNL1        0.0353
     51 C          12.7089    1.3520   -1.4822 C.3     1  UNL1        0.0628
     52 O          13.9064    1.9731   -1.8968 O.3     1  UNL1       -0.3814
     53 C          14.9709    1.5394   -1.1595 C.3     1  UNL1        0.0365
     54 C           9.5921   -1.1230    1.0591 C.ar    1  UNL1       -0.0341
     55 H          10.8380   -5.4129    1.6291 H       1  UNL1        0.1232
     56 H           7.0262   -2.9672    2.2474 H       1  UNL1        0.0648
     57 H           5.0467   -0.7610    2.6397 H       1  UNL1        0.1550
     58 H           5.5448   -1.3871   -2.8149 H       1  UNL1        0.0832
     59 H           3.2911   -0.4022   -3.0530 H       1  UNL1        0.0686
     60 H           0.6873    2.7515   -0.9941 H       1  UNL1        0.0655
     61 H          -1.6128    3.1987    0.0107 H       1  UNL1        0.0637
     62 H          -3.3486    2.3799    1.4234 H       1  UNL1        0.1564
     63 H          -5.6612    2.3718    1.5589 H       1  UNL1        0.1578
     64 H          -6.8687    0.1167    2.9869 H       1  UNL1        0.0671
     65 H          -8.9710   -3.3214    3.3905 H       1  UNL1        0.0239
     66 H          -7.6440   -2.1469    3.7440 H       1  UNL1        0.0239
     67 H          -7.8865   -2.6544    2.0415 H       1  UNL1        0.0239
     68 H          -8.6384   -0.6830    4.8430 H       1  UNL1        0.0239
     69 H         -10.4443   -0.6056    4.5472 H       1  UNL1        0.0239
     70 H          -9.3489    0.6015    3.8011 H       1  UNL1        0.0239
     71 H         -11.5363   -1.6075    3.0220 H       1  UNL1        0.0239
     72 H         -10.8918   -1.0485    1.4433 H       1  UNL1        0.0239
     73 H         -10.6244   -2.7762    1.8991 H       1  UNL1        0.0239
     74 H          -8.1041    3.2174   -1.0409 H       1  UNL1        0.0640
     75 H          -8.6312    3.7218   -3.3082 H       1  UNL1        0.0655
     76 H         -10.1299    3.2660   -6.5349 H       1  UNL1        0.0660
     77 H          -8.5176    3.9585   -5.8959 H       1  UNL1        0.0660
     78 H          -9.9659    3.7901   -4.8689 H       1  UNL1        0.0660
     79 H          -8.8179   -0.3434   -4.3557 H       1  UNL1        0.0655
     80 H          -8.2444   -0.9675   -1.9940 H       1  UNL1        0.0640
     81 H          -3.1685   -1.0081    1.2508 H       1  UNL1        0.0624
     82 H          -2.2832   -3.2744    1.0279 H       1  UNL1        0.0618
     83 H          -0.0146   -3.6580    0.0530 H       1  UNL1        0.0618
     84 H           1.3376   -1.8053   -0.7019 H       1  UNL1        0.0625
     85 H           7.0409    1.0668    0.9131 H       1  UNL1        0.0644
     86 H          11.4589    0.4234    1.0788 H       1  UNL1        0.1491
     87 H          13.0181    2.1394    0.5478 H       1  UNL1        0.0485
     88 H          11.8674    3.0151   -0.4715 H       1  UNL1        0.0485
     89 H          12.9581    0.2926   -1.3061 H       1  UNL1        0.0575
     90 H          11.9407    1.4821   -2.2731 H       1  UNL1        0.0575
     91 H          15.1811    0.4549   -1.3956 H       1  UNL1        0.0523
     92 H          15.9047    2.1067   -1.2681 H       1  UNL1        0.0523
     93 H          14.6616    1.4486   -0.0705 H       1  UNL1        0.0523
     94 H          10.6278   -1.2149    0.8816 H       1  UNL1        0.0637
@<TRIPOS>BOND
     1     1     2    3
     2     2     3    1
     3     3     4   ar
     4     4     5   ar
     5     5     6    1
     6     6     7    1
     7     7     8   ar
     8     8     9   ar
     9     9    10   ar
    10    10    11   ar
    11    11    12    1
    12    12    13    1
    13    13    14   ar
    14    14    15   ar
    15    15    16   ar
    16    16    17    1
    17    17    18   am
    18    18    19    2
    19    18    20   am
    20    20    21    1
    21    21    22   ar
    22    22    23   ar
    23    23    24    1
    24    24    25    1
    25    24    26    1
    26    24    27    1
    27    23    28   ar
    28    28    29   ar
    29    29    30    1
    30    30    31   ar
    31    31    32   ar
    32    32    33   ar
    33    33    34    1
    34    34    35    1
    35    33    36   ar
    36    36    37   ar
    37    16    38   ar
    38    38    39   ar
    39    39    40   ar
    40    40    41   ar
    41    41    42   ar
    42    42    43   ar
    43    11    44   ar
    44     5    45   ar
    45    45    46   ar
    46    46    47    1
    47    47    48    2
    48    47    49   am
    49    49    50    1
    50    50    51    1
    51    51    52    1
    52    52    53    1
    53    46    54   ar
    54    54     3   ar
    55    44     7   ar
    56    43    13   ar
    57    29    21   ar
    58    37    30   ar
    59    43    38   ar
    60     1    55    1
    61     4    56    1
    62     6    57    1
    63     9    58    1
    64    10    59    1
    65    14    60    1
    66    15    61    1
    67    17    62    1
    68    20    63    1
    69    22    64    1
    70    25    65    1
    71    25    66    1
    72    25    67    1
    73    26    68    1
    74    26    69    1
    75    26    70    1
    76    27    71    1
    77    27    72    1
    78    27    73    1
    79    31    74    1
    80    32    75    1
    81    35    76    1
    82    35    77    1
    83    35    78    1
    84    36    79    1
    85    37    80    1
    86    39    81    1
    87    40    82    1
    88    41    83    1
    89    42    84    1
    90    45    85    1
    91    49    86    1
    92    50    87    1
    93    50    88    1
    94    51    89    1
    95    51    90    1
    96    53    91    1
    97    53    92    1
    98    53    93    1
    99    54    94    1
