
     RDKit          3D

 30 32  0  0  0  0  0  0  0  0999 V2000
   -0.1999    0.9448   -1.4557 O   0  0  0  0  0  0  0  0  0  0  0  0
   -0.5092    0.2799   -0.4460 C   0  0  0  0  0  0  0  0  0  0  0  0
    0.4707   -0.2729    0.3486 C   0  0  0  0  0  0  0  0  0  0  0  0
    1.8838   -0.1321    0.0859 C   0  0  0  0  0  0  0  0  0  0  0  0
    2.7984    0.1798    1.0943 C   0  0  0  0  0  0  0  0  0  0  0  0
    4.1410    0.3075    0.8123 C   0  0  0  0  0  0  0  0  0  0  0  0
    4.6478    0.1376   -0.4585 C   0  0  0  0  0  0  0  0  0  0  0  0
    6.0140    0.2739   -0.7116 O   0  0  0  0  0  0  0  0  0  0  0  0
    3.7511   -0.1706   -1.4598 C   0  0  0  0  0  0  0  0  0  0  0  0
    2.4070   -0.2990   -1.1802 C   0  0  0  0  0  0  0  0  0  0  0  0
    0.0476   -0.9928    1.4449 C   0  0  0  0  0  0  0  0  0  0  0  0
   -1.2458   -1.1449    1.7203 O   0  0  0  0  0  0  0  0  0  0  0  0
   -2.1952   -0.6323    0.9849 C   0  0  0  0  0  0  0  0  0  0  0  0
   -3.5418   -0.8210    1.3171 C   0  0  0  0  0  0  0  0  0  0  0  0
   -4.5224   -0.2706    0.5263 C   0  0  0  0  0  0  0  0  0  0  0  0
   -5.8804   -0.4284    0.8125 O   0  0  0  0  0  0  0  0  0  0  0  0
   -4.1575    0.4605   -0.5848 C   0  0  0  0  0  0  0  0  0  0  0  0
   -2.8339    0.6433   -0.9073 C   0  0  0  0  0  0  0  0  0  0  0  0
   -2.4250    1.3765   -2.0231 O   0  0  0  0  0  0  0  0  0  0  0  0
   -1.8382    0.0976   -0.1240 C   0  0  0  0  0  0  0  0  0  0  0  0
    2.3974    0.3149    2.1034 H   0  0  0  0  0  0  0  0  0  0  0  0
    4.8441    0.5502    1.6028 H   0  0  0  0  0  0  0  0  0  0  0  0
    6.5351    1.1114   -0.4698 H   0  0  0  0  0  0  0  0  0  0  0  0
    4.0936   -0.3170   -2.4869 H   0  0  0  0  0  0  0  0  0  0  0  0
    1.6685   -0.5441   -1.9588 H   0  0  0  0  0  0  0  0  0  0  0  0
    0.8019   -1.4369    2.0844 H   0  0  0  0  0  0  0  0  0  0  0  0
   -3.8056   -1.3900    2.1812 H   0  0  0  0  0  0  0  0  0  0  0  0
   -6.3433    0.3731    1.2240 H   0  0  0  0  0  0  0  0  0  0  0  0
   -4.9221    0.9032   -1.2218 H   0  0  0  0  0  0  0  0  0  0  0  0
   -2.0816    0.8986   -2.8548 H   0  0  0  0  0  0  0  0  0  0  0  0
  1  2  2  0
  2  3  1  0
  3  4  1  0
  4  5  2  0
  5  6  1  0
  6  7  2  0
  7  8  1  0
  7  9  1  0
  9 10  2  0
  3 11  2  0
 11 12  1  0
 12 13  1  0
 13 14  2  0
 14 15  1  0
 15 16  1  0
 15 17  2  0
 17 18  1  0
 18 19  1  0
 18 20  2  0
 20  2  1  0
 10  4  1  0
 20 13  1  0
  5 21  1  0
  6 22  1  0
  8 23  1  0
  9 24  1  0
 10 25  1  0
 11 26  1  0
 14 27  1  0
 16 28  1  0
 17 29  1  0
 19 30  1  0
M  END
$$$$
