@<TRIPOS>MOLECULE
*****
 30 32 0 0 0
SMALL
GASTEIGER

@<TRIPOS>ATOM
      1 O          -0.1999    0.9448   -1.4557 O.2     1  UNL1       -0.2863
      2 C          -0.5092    0.2799   -0.4460 C.ar    1  UNL1        0.2037
      3 C           0.4707   -0.2729    0.3486 C.ar    1  UNL1        0.0644
      4 C           1.8838   -0.1321    0.0859 C.ar    1  UNL1       -0.0110
      5 C           2.7984    0.1798    1.0943 C.ar    1  UNL1       -0.0504
      6 C           4.1410    0.3075    0.8123 C.ar    1  UNL1       -0.0196
      7 C           4.6478    0.1376   -0.4585 C.ar    1  UNL1        0.1169
      8 O           6.0140    0.2739   -0.7116 O.3     1  UNL1       -0.5068
      9 C           3.7511   -0.1706   -1.4598 C.ar    1  UNL1       -0.0196
     10 C           2.4070   -0.2990   -1.1802 C.ar    1  UNL1       -0.0504
     11 C           0.0476   -0.9928    1.4449 C.ar    1  UNL1        0.1038
     12 O          -1.2458   -1.1449    1.7203 O.2     1  UNL1       -0.4618
     13 C          -2.1952   -0.6323    0.9849 C.ar    1  UNL1        0.1454
     14 C          -3.5418   -0.8210    1.3171 C.ar    1  UNL1        0.0231
     15 C          -4.5224   -0.2706    0.5263 C.ar    1  UNL1        0.1239
     16 O          -5.8804   -0.4284    0.8125 O.3     1  UNL1       -0.5065
     17 C          -4.1575    0.4605   -0.5848 C.ar    1  UNL1        0.0223
     18 C          -2.8339    0.6433   -0.9073 C.ar    1  UNL1        0.1347
     19 O          -2.4250    1.3765   -2.0231 O.3     1  UNL1       -0.5058
     20 C          -1.8382    0.0976   -0.1240 C.ar    1  UNL1        0.1060
     21 H           2.3974    0.3149    2.1034 H       1  UNL1        0.0625
     22 H           4.8441    0.5502    1.6028 H       1  UNL1        0.0654
     23 H           6.5351    1.1114   -0.4698 H       1  UNL1        0.2921
     24 H           4.0936   -0.3170   -2.4869 H       1  UNL1        0.0654
     25 H           1.6685   -0.5441   -1.9588 H       1  UNL1        0.0625
     26 H           0.8019   -1.4369    2.0844 H       1  UNL1        0.1037
     27 H          -3.8056   -1.3900    2.1812 H       1  UNL1        0.0691
     28 H          -6.3433    0.3731    1.2240 H       1  UNL1        0.2921
     29 H          -4.9221    0.9032   -1.2218 H       1  UNL1        0.0691
     30 H          -2.0816    0.8986   -2.8548 H       1  UNL1        0.2922
@<TRIPOS>BOND
     1     1     2    2
     2     2     3   ar
     3     3     4    1
     4     4     5   ar
     5     5     6   ar
     6     6     7   ar
     7     7     8    1
     8     7     9   ar
     9     9    10   ar
    10     3    11   ar
    11    11    12   ar
    12    12    13   ar
    13    13    14   ar
    14    14    15   ar
    15    15    16    1
    16    15    17   ar
    17    17    18   ar
    18    18    19    1
    19    18    20   ar
    20    20     2   ar
    21    10     4   ar
    22    20    13   ar
    23     5    21    1
    24     6    22    1
    25     8    23    1
    26     9    24    1
    27    10    25    1
    28    11    26    1
    29    14    27    1
    30    16    28    1
    31    17    29    1
    32    19    30    1
