@<TRIPOS>MOLECULE
*****
 24 24 0 0 0
SMALL
GASTEIGER

@<TRIPOS>ATOM
      1 C          -1.7606   -0.5220   -0.2907 C.3     1  UNL1        0.0959
      2 O          -2.4568   -0.0581    0.8431 O.3     1  UNL1       -0.3879
      3 C          -0.8117   -1.6435    0.0888 C.3     1  UNL1        0.0249
      4 N           0.1273   -1.0256    1.0163 N.3     1  UNL1       -0.3064
      5 CA          0.9871   -0.2100    0.1396 C.3     1  UNL1        0.0596
      6 C           2.3045    0.0340    0.8241 C.3     1  UNL1        0.0620
      7 O           3.1291    0.8002    0.0158 O.3     1  UNL1       -0.3934
      8 C           0.1817    1.0247   -0.0965 C.3     1  UNL1        0.1009
      9 O           0.8462    2.0763   -0.6674 O.3     1  UNL1       -0.3875
     10 C          -1.0212    0.5909   -0.9462 C.3     1  UNL1        0.1095
     11 O          -1.8762    1.6476   -1.2169 O.3     1  UNL1       -0.3866
     12 H          -2.4985   -0.9172   -1.0247 H       1  UNL1        0.0633
     13 H          -3.3304   -0.5214    0.9258 H       1  UNL1        0.2099
     14 H          -1.3292   -2.5046    0.5162 H       1  UNL1        0.0450
     15 H          -0.2809   -1.9004   -0.8662 H       1  UNL1        0.0450
     16 H           0.6441   -1.6846    1.5969 H       1  UNL1        0.1224
     17 HA          1.1783   -0.7028   -0.8296 H       1  UNL1        0.0509
     18 H1          2.7910   -0.9572    0.9461 H       1  UNL1        0.0573
     19 H2          2.1749    0.4615    1.8353 H       1  UNL1        0.0573
     20 H           3.9440    0.2969   -0.2957 H       1  UNL1        0.2095
     21 H          -0.2578    1.3311    0.8962 H       1  UNL1        0.0636
     22 H           0.7309    2.9136   -0.1136 H       1  UNL1        0.2100
     23 H          -0.6289    0.2187   -1.9133 H       1  UNL1        0.0646
     24 H          -2.7868    1.2518   -1.3834 H       1  UNL1        0.2100
@<TRIPOS>BOND
     1     1     2    1
     2     1     3    1
     3     3     4    1
     4     4     5    1
     5     5     6    1
     6     6     7    1
     7     5     8    1
     8     8     9    1
     9     8    10    1
    10    10    11    1
    11    10     1    1
    12     1    12    1
    13     2    13    1
    14     3    14    1
    15     3    15    1
    16     4    16    1
    17     5    17    1
    18     6    18    1
    19     6    19    1
    20     7    20    1
    21     8    21    1
    22     9    22    1
    23    10    23    1
    24    11    24    1
