
     RDKit          3D

 34 35  0  0  0  0  0  0  0  0999 V2000
   -1.3097    0.1521   -0.9966 C   0  0  0  0  0  0  0  0  0  0  0  0
   -0.9273   -0.1533    0.3826 C   0  0  0  0  0  0  0  0  0  0  0  0
    0.3962   -0.4684    0.8464 C   0  0  0  0  0  0  0  0  0  0  0  0
    1.4145   -0.6041    0.0426 C   0  0  0  0  0  0  0  0  0  0  0  0
    1.4481   -0.4479   -1.7639 S   0  0  0  0  0  0  0  0  0  0  0  0
    3.2148   -0.2450   -1.8877 C   0  0  0  0  0  0  0  0  0  0  0  0
    3.9898    0.3641   -3.1627 S   0  0  0  0  0  0  0  0  0  0  0  0
    3.7207   -0.7199   -0.6680 N   0  0  0  0  0  0  0  0  0  0  0  0
    5.1668   -0.9903   -0.4954 C   0  0  0  0  0  0  0  0  0  0  0  0
    5.8553    0.2441   -0.0093 C   0  0  0  0  0  0  0  0  0  0  0  0
    5.2599    1.3225    0.2045 O   0  0  0  0  0  0  0  0  0  0  0  0
    7.2197    0.1414    0.2006 O   0  0  0  0  0  0  0  0  0  0  0  0
    2.8072   -0.9172    0.3560 C   0  0  0  0  0  0  0  0  0  0  0  0
    3.0994   -1.3475    1.5326 O   0  0  0  0  0  0  0  0  0  0  0  0
   -1.8878   -0.1419    1.3218 C   0  0  0  0  0  0  0  0  0  0  0  0
   -3.2727    0.1472    1.0440 C   0  0  0  0  0  0  0  0  0  0  0  0
   -3.9978   -0.4491    0.0424 C   0  0  0  0  0  0  0  0  0  0  0  0
   -5.2995   -0.0865   -0.1341 C   0  0  0  0  0  0  0  0  0  0  0  0
   -5.9243    0.8492    0.6444 C   0  0  0  0  0  0  0  0  0  0  0  0
   -5.2054    1.4445    1.6433 C   0  0  0  0  0  0  0  0  0  0  0  0
   -3.8893    1.1003    1.8463 C   0  0  0  0  0  0  0  0  0  0  0  0
   -2.2866    0.7214   -1.0508 H   0  0  0  0  0  0  0  0  0  0  0  0
   -0.5658    0.8192   -1.5150 H   0  0  0  0  0  0  0  0  0  0  0  0
   -1.4267   -0.7425   -1.6096 H   0  0  0  0  0  0  0  0  0  0  0  0
    0.6141   -0.6092    1.9161 H   0  0  0  0  0  0  0  0  0  0  0  0
    5.6239   -1.2629   -1.4548 H   0  0  0  0  0  0  0  0  0  0  0  0
    5.3250   -1.7614    0.2785 H   0  0  0  0  0  0  0  0  0  0  0  0
    7.7958    0.9155    0.4938 H   0  0  0  0  0  0  0  0  0  0  0  0
   -1.6127   -0.3658    2.3740 H   0  0  0  0  0  0  0  0  0  0  0  0
   -3.5573   -1.2109   -0.6083 H   0  0  0  0  0  0  0  0  0  0  0  0
   -5.8453   -0.5849   -0.9455 H   0  0  0  0  0  0  0  0  0  0  0  0
   -6.9555    1.1195    0.4830 H   0  0  0  0  0  0  0  0  0  0  0  0
   -5.6531    2.1842    2.2817 H   0  0  0  0  0  0  0  0  0  0  0  0
   -3.3343    1.5836    2.6419 H   0  0  0  0  0  0  0  0  0  0  0  0
  1  2  1  0
  2  3  1  0
  3  4  2  0
  4  5  1  0
  5  6  1  0
  6  7  2  0
  6  8  1  0
  8  9  1  0
  9 10  1  0
 10 11  2  0
 10 12  1  0
  8 13  1  0
 13 14  2  0
  2 15  2  0
 15 16  1  0
 16 17  2  0
 17 18  1  0
 18 19  2  0
 19 20  1  0
 20 21  2  0
 13  4  1  0
 21 16  1  0
  1 22  1  0
  1 23  1  0
  1 24  1  0
  3 25  1  0
  9 26  1  0
  9 27  1  0
 12 28  1  0
 15 29  1  0
 17 30  1  0
 18 31  1  0
 19 32  1  0
 20 33  1  0
 21 34  1  0
M  END
$$$$
