@<TRIPOS>MOLECULE
*****
 34 35 0 0 0
SMALL
GASTEIGER

@<TRIPOS>ATOM
      1 C          -1.3097    0.1521   -0.9966 C.3     1  UNL1       -0.0397
      2 C          -0.9273   -0.1533    0.3826 C.2     1  UNL1       -0.0487
      3 C           0.3962   -0.4684    0.8464 C.2     1  UNL1       -0.0400
      4 C           1.4145   -0.6041    0.0426 C.2     1  UNL1        0.0769
      5 S           1.4481   -0.4479   -1.7639 S.3     1  UNL1       -0.0610
      6 C           3.2148   -0.2450   -1.8877 C.2     1  UNL1        0.1210
      7 S           3.9898    0.3641   -3.1627 S.2     1  UNL1       -0.0272
      8 N           3.7207   -0.7199   -0.6680 N.am    1  UNL1       -0.2445
      9 C           5.1668   -0.9903   -0.4954 C.3     1  UNL1        0.1180
     10 C           5.8553    0.2441   -0.0093 C.2     1  UNL1        0.3227
     11 O           5.2599    1.3225    0.2045 O.2     1  UNL1       -0.2492
     12 O           7.2197    0.1414    0.2006 O.3     1  UNL1       -0.4795
     13 C           2.8072   -0.9172    0.3560 C.2     1  UNL1        0.2588
     14 O           3.0994   -1.3475    1.5326 O.2     1  UNL1       -0.2690
     15 C          -1.8878   -0.1419    1.3218 C.2     1  UNL1       -0.0516
     16 C          -3.2727    0.1472    1.0440 C.ar    1  UNL1       -0.0248
     17 C          -3.9978   -0.4491    0.0424 C.ar    1  UNL1       -0.0546
     18 C          -5.2995   -0.0865   -0.1341 C.ar    1  UNL1       -0.0612
     19 C          -5.9243    0.8492    0.6444 C.ar    1  UNL1       -0.0617
     20 C          -5.2054    1.4445    1.6433 C.ar    1  UNL1       -0.0612
     21 C          -3.8893    1.1003    1.8463 C.ar    1  UNL1       -0.0546
     22 H          -2.2866    0.7214   -1.0508 H       1  UNL1        0.0278
     23 H          -0.5658    0.8192   -1.5150 H       1  UNL1        0.0278
     24 H          -1.4267   -0.7425   -1.6096 H       1  UNL1        0.0278
     25 H           0.6141   -0.6092    1.9161 H       1  UNL1        0.0633
     26 H           5.6239   -1.2629   -1.4548 H       1  UNL1        0.0584
     27 H           5.3250   -1.7614    0.2785 H       1  UNL1        0.0584
     28 H           7.7958    0.9155    0.4938 H       1  UNL1        0.2951
     29 H          -1.6127   -0.3658    2.3740 H       1  UNL1        0.0626
     30 H          -3.5573   -1.2109   -0.6083 H       1  UNL1        0.0623
     31 H          -5.8453   -0.5849   -0.9455 H       1  UNL1        0.0618
     32 H          -6.9555    1.1195    0.4830 H       1  UNL1        0.0618
     33 H          -5.6531    2.1842    2.2817 H       1  UNL1        0.0618
     34 H          -3.3343    1.5836    2.6419 H       1  UNL1        0.0623
@<TRIPOS>BOND
     1     1     2    1
     2     2     3    1
     3     3     4    2
     4     4     5    1
     5     5     6    1
     6     6     7    2
     7     6     8    1
     8     8     9    1
     9     9    10    1
    10    10    11    2
    11    10    12    1
    12     8    13   am
    13    13    14    2
    14     2    15    2
    15    15    16    1
    16    16    17   ar
    17    17    18   ar
    18    18    19   ar
    19    19    20   ar
    20    20    21   ar
    21    13     4    1
    22    21    16   ar
    23     1    22    1
    24     1    23    1
    25     1    24    1
    26     3    25    1
    27     9    26    1
    28     9    27    1
    29    12    28    1
    30    15    29    1
    31    17    30    1
    32    18    31    1
    33    19    32    1
    34    20    33    1
    35    21    34    1
