@<TRIPOS>MOLECULE
*****
 42 45 0 0 0
SMALL
GASTEIGER

@<TRIPOS>ATOM
      1 C           5.5448    2.7823   -0.4447 C.3     1  UNL1       -0.0206
      2 C           4.6577    1.6780   -0.0805 C.ar    1  UNL1        0.0616
      3 C           3.4288    1.6780    0.5477 C.ar    1  UNL1        0.0006
      4 C           3.0184    0.3687    0.6505 C.ar    1  UNL1        0.1196
      5 N           1.8171   -0.0859    1.2052 N.pl3   1  UNL1       -0.2829
      6 C           0.7064   -0.5350    0.4604 C.ar    1  UNL1        0.1525
      7 N          -0.1676    0.2448   -0.1813 N.ar    1  UNL1       -0.1520
      8 N          -1.2070   -0.2156   -0.8481 N.ar    1  UNL1       -0.2228
      9 C          -2.1338    0.6938   -1.4825 C.3     1  UNL1        0.0705
     10 C          -3.1426    1.2562   -0.5583 C.ar    1  UNL1       -0.0206
     11 C          -3.0193    2.6011   -0.1643 C.ar    1  UNL1       -0.0213
     12 C          -3.9193    3.1482    0.7148 C.ar    1  UNL1        0.1264
     13 F          -3.7944    4.4471    1.0881 F       1  UNL1       -0.2054
     14 C          -4.9717    2.4230    1.2491 C.ar    1  UNL1        0.0088
     15 C          -5.0881    1.1081    0.8608 C.ar    1  UNL1        0.1264
     16 F          -6.1037    0.3454    1.3628 F       1  UNL1       -0.2054
     17 C          -4.1768    0.5406   -0.0353 C.ar    1  UNL1       -0.0213
     18 C          -1.4751   -1.5362   -0.9382 C.ar    1  UNL1        0.2754
     19 O          -2.4523   -2.0205   -1.5616 O.2     1  UNL1       -0.2655
     20 C          -0.5951   -2.3816   -0.2898 C.ar    1  UNL1        0.0514
     21 C          -0.8278   -3.7482   -0.3531 C.ar    1  UNL1       -0.0487
     22 C           0.0530   -4.5734    0.2943 C.ar    1  UNL1       -0.0610
     23 C           1.1440   -4.1172    0.9960 C.ar    1  UNL1       -0.0611
     24 C           1.3742   -2.7628    1.0583 C.ar    1  UNL1       -0.0505
     25 C           0.5053   -1.9142    0.4180 C.ar    1  UNL1        0.0291
     26 N           3.9667   -0.4076    0.1025 N.ar    1  UNL1       -0.2637
     27 N           4.9274    0.3700   -0.3251 N.ar    1  UNL1       -0.1775
     28 H           6.5966    2.5198   -0.1531 H       1  UNL1        0.0293
     29 H           5.5707    2.9436   -1.5577 H       1  UNL1        0.0293
     30 H           5.2455    3.7099    0.0592 H       1  UNL1        0.0293
     31 H           2.9405    2.5959    0.8769 H       1  UNL1        0.0670
     32 H           1.7578   -0.0852    2.2687 H       1  UNL1        0.1550
     33 H          -2.6409    0.2057   -2.3630 H       1  UNL1        0.0560
     34 H          -1.5614    1.5397   -1.9520 H       1  UNL1        0.0560
     35 H          -2.1859    3.1732   -0.5908 H       1  UNL1        0.0649
     36 H          -5.6758    2.8630    1.9388 H       1  UNL1        0.0675
     37 H          -4.3033   -0.4935   -0.3131 H       1  UNL1        0.0649
     38 H          -1.6857   -4.0929   -0.9029 H       1  UNL1        0.0625
     39 H          -0.1203   -5.6444    0.2527 H       1  UNL1        0.0618
     40 H           1.8293   -4.8155    1.5025 H       1  UNL1        0.0618
     41 H           2.2061   -2.3352    1.5912 H       1  UNL1        0.0625
     42 H           3.9576   -1.4710    0.0206 H       1  UNL1        0.1903
@<TRIPOS>BOND
     1     1     2    1
     2     2     3   ar
     3     3     4   ar
     4     4     5    1
     5     5     6    1
     6     6     7   ar
     7     7     8   ar
     8     8     9    1
     9     9    10    1
    10    10    11   ar
    11    11    12   ar
    12    12    13    1
    13    12    14   ar
    14    14    15   ar
    15    15    16    1
    16    15    17   ar
    17     8    18   ar
    18    18    19    2
    19    18    20   ar
    20    20    21   ar
    21    21    22   ar
    22    22    23   ar
    23    23    24   ar
    24    24    25   ar
    25     4    26   ar
    26    26    27   ar
    27    27     2   ar
    28    25     6   ar
    29    17    10   ar
    30    25    20   ar
    31     1    28    1
    32     1    29    1
    33     1    30    1
    34     3    31    1
    35     5    32    1
    36     9    33    1
    37     9    34    1
    38    11    35    1
    39    14    36    1
    40    17    37    1
    41    21    38    1
    42    22    39    1
    43    23    40    1
    44    24    41    1
    45    26    42    1
