@<TRIPOS>MOLECULE
*****
 70 73 0 0 0
SMALL
GASTEIGER

@<TRIPOS>ATOM
      1 C           7.9413   -3.3377    0.2952 C.3     1  UNL1       -0.0128
      2 N           6.5609   -3.6367    0.5065 N.3     1  UNL1       -0.3052
      3 C           5.7450   -3.6020   -0.6519 C.3     1  UNL1        0.0003
      4 C           4.9608   -2.3230   -0.8099 C.3     1  UNL1       -0.0216
      5 C           4.1642   -2.0971    0.4842 C.3     1  UNL1        0.0257
      6 N           3.3496   -0.9132    0.2415 N.am    1  UNL1       -0.3083
      7 C           1.9393   -0.9723    0.2139 C.2     1  UNL1        0.2491
      8 O           1.4154   -2.1292    0.4119 O.2     1  UNL1       -0.2700
      9 C           1.1374    0.2086   -0.0261 C.ar    1  UNL1        0.0945
     10 C           1.8304    1.4332   -0.0969 C.ar    1  UNL1        0.0466
     11 N           1.1263    2.5518   -0.2910 N.ar    1  UNL1       -0.2218
     12 C          -0.1956    2.5762   -0.4214 C.ar    1  UNL1        0.2212
     13 N          -0.9670    3.7463   -0.6282 N.pl3   1  UNL1       -0.2835
     14 C          -0.4586    5.0600   -0.6973 C.ar    1  UNL1        0.0363
     15 C          -1.3069    6.1119   -1.0758 C.ar    1  UNL1       -0.0220
     16 C          -0.8978    7.4089   -1.1591 C.ar    1  UNL1        0.0441
     17 CL         -2.0372    8.6613   -1.6436 Cl      1  UNL1       -0.0834
     18 C           0.4032    7.7505   -0.8665 C.ar    1  UNL1       -0.0249
     19 C           1.2785    6.7571   -0.4893 C.ar    1  UNL1        0.0441
     20 CL          2.9297    7.1949   -0.1190 Cl      1  UNL1       -0.0834
     21 C           0.8321    5.4332   -0.4118 C.ar    1  UNL1       -0.0220
     22 N          -0.8691    1.3853   -0.3526 N.ar    1  UNL1       -0.1987
     23 C          -0.2281    0.1980   -0.1574 C.ar    1  UNL1        0.1363
     24 N          -0.9778   -0.9939   -0.1162 N.pl3   1  UNL1       -0.3255
     25 C          -2.4401   -0.9686   -0.2460 C.3     1  UNL1        0.0221
     26 C          -2.9658   -2.3693   -0.1814 C.3     1  UNL1       -0.0331
     27 C          -4.4406   -2.4075   -0.6000 C.3     1  UNL1       -0.0357
     28 C          -5.1346   -1.1624   -0.1499 C.3     1  UNL1        0.0100
     29 N          -6.5367   -1.3500    0.1088 N.3     1  UNL1       -0.3054
     30 C          -7.2776   -1.7943   -1.0335 C.3     1  UNL1       -0.0128
     31 C          -7.1560   -0.2101    0.7221 C.3     1  UNL1       -0.0128
     32 C          -4.5029   -0.6085    1.1123 C.3     1  UNL1       -0.0357
     33 C          -3.0690   -0.1908    0.8888 C.3     1  UNL1       -0.0331
     34 C           5.1635   -1.9096    1.5737 C.3     1  UNL1       -0.0216
     35 C           5.9911   -3.1439    1.7030 C.3     1  UNL1        0.0003
     36 H           8.4170   -4.2539   -0.1623 H       1  UNL1        0.0391
     37 H           8.4363   -3.2075    1.2748 H       1  UNL1        0.0391
     38 H           8.1276   -2.5227   -0.4182 H       1  UNL1        0.0391
     39 H           5.0397   -4.4577   -0.6568 H       1  UNL1        0.0427
     40 H           6.3806   -3.7171   -1.5537 H       1  UNL1        0.0427
     41 H           5.6472   -1.4639   -0.9094 H       1  UNL1        0.0295
     42 H           4.2940   -2.4462   -1.6683 H       1  UNL1        0.0295
     43 H           3.5392   -2.9748    0.6491 H       1  UNL1        0.0499
     44 H           3.8574   -0.0458    0.0891 H       1  UNL1        0.1493
     45 H           2.8970    1.5167    0.0008 H       1  UNL1        0.0839
     46 H          -2.0220    3.6651   -0.7423 H       1  UNL1        0.1550
     47 H          -2.3476    5.8660   -1.3144 H       1  UNL1        0.0651
     48 H           0.7068    8.7858   -0.9390 H       1  UNL1        0.0647
     49 H           1.5477    4.7100   -0.1101 H       1  UNL1        0.0651
     50 H          -0.5622   -1.9061   -0.0043 H       1  UNL1        0.1478
     51 H          -2.7415   -0.4355   -1.1883 H       1  UNL1        0.0498
     52 H          -2.8445   -2.7200    0.8688 H       1  UNL1        0.0284
     53 H          -2.3400   -2.9916   -0.8563 H       1  UNL1        0.0284
     54 H          -4.8713   -3.2955   -0.1097 H       1  UNL1        0.0281
     55 H          -4.4178   -2.5050   -1.7222 H       1  UNL1        0.0281
     56 H          -5.0443   -0.4058   -0.9541 H       1  UNL1        0.0462
     57 H          -8.1479   -1.1137   -1.2508 H       1  UNL1        0.0391
     58 H          -7.7376   -2.7760   -0.8038 H       1  UNL1        0.0391
     59 H          -6.7028   -1.8593   -1.9622 H       1  UNL1        0.0391
     60 H          -6.9979   -0.2254    1.8195 H       1  UNL1        0.0391
     61 H          -8.2570   -0.1713    0.4860 H       1  UNL1        0.0391
     62 H          -6.7511    0.7465    0.3192 H       1  UNL1        0.0391
     63 H          -5.0776    0.2958    1.3942 H       1  UNL1        0.0281
     64 H          -4.6169   -1.3677    1.9018 H       1  UNL1        0.0281
     65 H          -2.5249   -0.3696    1.8438 H       1  UNL1        0.0284
     66 H          -2.9687    0.8887    0.6615 H       1  UNL1        0.0284
     67 H           4.6992   -1.7119    2.5683 H       1  UNL1        0.0295
     68 H           5.8093   -1.0256    1.3697 H       1  UNL1        0.0295
     69 H           5.4298   -3.9580    2.2069 H       1  UNL1        0.0427
     70 H           6.8376   -2.9042    2.4119 H       1  UNL1        0.0427
@<TRIPOS>BOND
     1     1     2    1
     2     2     3    1
     3     3     4    1
     4     4     5    1
     5     5     6    1
     6     6     7   am
     7     7     8    2
     8     7     9    1
     9     9    10   ar
    10    10    11   ar
    11    11    12   ar
    12    12    13    1
    13    13    14    1
    14    14    15   ar
    15    15    16   ar
    16    16    17    1
    17    16    18   ar
    18    18    19   ar
    19    19    20    1
    20    19    21   ar
    21    12    22   ar
    22    22    23   ar
    23    23    24    1
    24    24    25    1
    25    25    26    1
    26    26    27    1
    27    27    28    1
    28    28    29    1
    29    29    30    1
    30    29    31    1
    31    28    32    1
    32    32    33    1
    33     5    34    1
    34    34    35    1
    35    35     2    1
    36    23     9   ar
    37    33    25    1
    38    21    14   ar
    39     1    36    1
    40     1    37    1
    41     1    38    1
    42     3    39    1
    43     3    40    1
    44     4    41    1
    45     4    42    1
    46     5    43    1
    47     6    44    1
    48    10    45    1
    49    13    46    1
    50    15    47    1
    51    18    48    1
    52    21    49    1
    53    24    50    1
    54    25    51    1
    55    26    52    1
    56    26    53    1
    57    27    54    1
    58    27    55    1
    59    28    56    1
    60    30    57    1
    61    30    58    1
    62    30    59    1
    63    31    60    1
    64    31    61    1
    65    31    62    1
    66    32    63    1
    67    32    64    1
    68    33    65    1
    69    33    66    1
    70    34    67    1
    71    34    68    1
    72    35    69    1
    73    35    70    1
