
     RDKit          3D

 70 73  0  0  0  0  0  0  0  0999 V2000
    7.9413   -3.3377    0.2952 C   0  0  0  0  0  0  0  0  0  0  0  0
    6.5609   -3.6367    0.5065 N   0  0  0  0  0  0  0  0  0  0  0  0
    5.7450   -3.6020   -0.6519 C   0  0  0  0  0  0  0  0  0  0  0  0
    4.9608   -2.3230   -0.8099 C   0  0  0  0  0  0  0  0  0  0  0  0
    4.1642   -2.0971    0.4842 C   0  0  0  0  0  0  0  0  0  0  0  0
    3.3496   -0.9132    0.2415 N   0  0  0  0  0  0  0  0  0  0  0  0
    1.9393   -0.9723    0.2139 C   0  0  0  0  0  0  0  0  0  0  0  0
    1.4154   -2.1292    0.4119 O   0  0  0  0  0  0  0  0  0  0  0  0
    1.1374    0.2086   -0.0261 C   0  0  0  0  0  0  0  0  0  0  0  0
    1.8304    1.4332   -0.0969 C   0  0  0  0  0  0  0  0  0  0  0  0
    1.1263    2.5518   -0.2910 N   0  0  0  0  0  0  0  0  0  0  0  0
   -0.1956    2.5762   -0.4214 C   0  0  0  0  0  0  0  0  0  0  0  0
   -0.9670    3.7463   -0.6282 N   0  0  0  0  0  0  0  0  0  0  0  0
   -0.4586    5.0600   -0.6973 C   0  0  0  0  0  0  0  0  0  0  0  0
   -1.3069    6.1119   -1.0758 C   0  0  0  0  0  0  0  0  0  0  0  0
   -0.8978    7.4089   -1.1591 C   0  0  0  0  0  0  0  0  0  0  0  0
   -2.0372    8.6613   -1.6436 Cl  0  0  0  0  0  0  0  0  0  0  0  0
    0.4032    7.7505   -0.8665 C   0  0  0  0  0  0  0  0  0  0  0  0
    1.2785    6.7571   -0.4893 C   0  0  0  0  0  0  0  0  0  0  0  0
    2.9297    7.1949   -0.1190 Cl  0  0  0  0  0  0  0  0  0  0  0  0
    0.8321    5.4332   -0.4118 C   0  0  0  0  0  0  0  0  0  0  0  0
   -0.8691    1.3853   -0.3526 N   0  0  0  0  0  0  0  0  0  0  0  0
   -0.2281    0.1980   -0.1574 C   0  0  0  0  0  0  0  0  0  0  0  0
   -0.9778   -0.9939   -0.1162 N   0  0  0  0  0  0  0  0  0  0  0  0
   -2.4401   -0.9686   -0.2460 C   0  0  0  0  0  0  0  0  0  0  0  0
   -2.9658   -2.3693   -0.1814 C   0  0  0  0  0  0  0  0  0  0  0  0
   -4.4406   -2.4075   -0.6000 C   0  0  0  0  0  0  0  0  0  0  0  0
   -5.1346   -1.1624   -0.1499 C   0  0  0  0  0  0  0  0  0  0  0  0
   -6.5367   -1.3500    0.1088 N   0  0  0  0  0  0  0  0  0  0  0  0
   -7.2776   -1.7943   -1.0335 C   0  0  0  0  0  0  0  0  0  0  0  0
   -7.1560   -0.2101    0.7221 C   0  0  0  0  0  0  0  0  0  0  0  0
   -4.5029   -0.6085    1.1123 C   0  0  0  0  0  0  0  0  0  0  0  0
   -3.0690   -0.1908    0.8888 C   0  0  0  0  0  0  0  0  0  0  0  0
    5.1635   -1.9096    1.5737 C   0  0  0  0  0  0  0  0  0  0  0  0
    5.9911   -3.1439    1.7030 C   0  0  0  0  0  0  0  0  0  0  0  0
    8.4170   -4.2539   -0.1623 H   0  0  0  0  0  0  0  0  0  0  0  0
    8.4363   -3.2075    1.2748 H   0  0  0  0  0  0  0  0  0  0  0  0
    8.1276   -2.5227   -0.4182 H   0  0  0  0  0  0  0  0  0  0  0  0
    5.0397   -4.4577   -0.6568 H   0  0  0  0  0  0  0  0  0  0  0  0
    6.3806   -3.7171   -1.5537 H   0  0  0  0  0  0  0  0  0  0  0  0
    5.6472   -1.4639   -0.9094 H   0  0  0  0  0  0  0  0  0  0  0  0
    4.2940   -2.4462   -1.6683 H   0  0  0  0  0  0  0  0  0  0  0  0
    3.5392   -2.9748    0.6491 H   0  0  0  0  0  0  0  0  0  0  0  0
    3.8574   -0.0458    0.0891 H   0  0  0  0  0  0  0  0  0  0  0  0
    2.8970    1.5167    0.0008 H   0  0  0  0  0  0  0  0  0  0  0  0
   -2.0220    3.6651   -0.7423 H   0  0  0  0  0  0  0  0  0  0  0  0
   -2.3476    5.8660   -1.3144 H   0  0  0  0  0  0  0  0  0  0  0  0
    0.7068    8.7858   -0.9390 H   0  0  0  0  0  0  0  0  0  0  0  0
    1.5477    4.7100   -0.1101 H   0  0  0  0  0  0  0  0  0  0  0  0
   -0.5622   -1.9061   -0.0043 H   0  0  0  0  0  0  0  0  0  0  0  0
   -2.7415   -0.4355   -1.1883 H   0  0  0  0  0  0  0  0  0  0  0  0
   -2.8445   -2.7200    0.8688 H   0  0  0  0  0  0  0  0  0  0  0  0
   -2.3400   -2.9916   -0.8563 H   0  0  0  0  0  0  0  0  0  0  0  0
   -4.8713   -3.2955   -0.1097 H   0  0  0  0  0  0  0  0  0  0  0  0
   -4.4178   -2.5050   -1.7222 H   0  0  0  0  0  0  0  0  0  0  0  0
   -5.0443   -0.4058   -0.9541 H   0  0  0  0  0  0  0  0  0  0  0  0
   -8.1479   -1.1137   -1.2508 H   0  0  0  0  0  0  0  0  0  0  0  0
   -7.7376   -2.7760   -0.8038 H   0  0  0  0  0  0  0  0  0  0  0  0
   -6.7028   -1.8593   -1.9622 H   0  0  0  0  0  0  0  0  0  0  0  0
   -6.9979   -0.2254    1.8195 H   0  0  0  0  0  0  0  0  0  0  0  0
   -8.2570   -0.1713    0.4860 H   0  0  0  0  0  0  0  0  0  0  0  0
   -6.7511    0.7465    0.3192 H   0  0  0  0  0  0  0  0  0  0  0  0
   -5.0776    0.2958    1.3942 H   0  0  0  0  0  0  0  0  0  0  0  0
   -4.6169   -1.3677    1.9018 H   0  0  0  0  0  0  0  0  0  0  0  0
   -2.5249   -0.3696    1.8438 H   0  0  0  0  0  0  0  0  0  0  0  0
   -2.9687    0.8887    0.6615 H   0  0  0  0  0  0  0  0  0  0  0  0
    4.6992   -1.7119    2.5683 H   0  0  0  0  0  0  0  0  0  0  0  0
    5.8093   -1.0256    1.3697 H   0  0  0  0  0  0  0  0  0  0  0  0
    5.4298   -3.9580    2.2069 H   0  0  0  0  0  0  0  0  0  0  0  0
    6.8376   -2.9042    2.4119 H   0  0  0  0  0  0  0  0  0  0  0  0
  1  2  1  0
  2  3  1  0
  3  4  1  0
  4  5  1  0
  5  6  1  0
  6  7  1  0
  7  8  2  0
  7  9  1  0
  9 10  2  0
 10 11  1  0
 11 12  2  0
 12 13  1  0
 13 14  1  0
 14 15  2  0
 15 16  1  0
 16 17  1  0
 16 18  2  0
 18 19  1  0
 19 20  1  0
 19 21  2  0
 12 22  1  0
 22 23  2  0
 23 24  1  0
 24 25  1  0
 25 26  1  0
 26 27  1  0
 27 28  1  0
 28 29  1  0
 29 30  1  0
 29 31  1  0
 28 32  1  0
 32 33  1  0
  5 34  1  0
 34 35  1  0
 35  2  1  0
 23  9  1  0
 33 25  1  0
 21 14  1  0
  1 36  1  0
  1 37  1  0
  1 38  1  0
  3 39  1  0
  3 40  1  0
  4 41  1  0
  4 42  1  0
  5 43  1  0
  6 44  1  0
 10 45  1  0
 13 46  1  0
 15 47  1  0
 18 48  1  0
 21 49  1  0
 24 50  1  0
 25 51  1  0
 26 52  1  0
 26 53  1  0
 27 54  1  0
 27 55  1  0
 28 56  1  0
 30 57  1  0
 30 58  1  0
 30 59  1  0
 31 60  1  0
 31 61  1  0
 31 62  1  0
 32 63  1  0
 32 64  1  0
 33 65  1  0
 33 66  1  0
 34 67  1  0
 34 68  1  0
 35 69  1  0
 35 70  1  0
M  END
$$$$
