
     RDKit          3D

 37 39  0  0  0  0  0  0  0  0999 V2000
   -4.3369    2.5010    0.4389 C   0  0  0  0  0  0  0  0  0  0  0  0
   -3.1720    1.6268    0.0909 C   0  0  0  0  0  0  0  0  0  0  0  0
   -1.9171    1.9851   -0.2100 N   0  0  0  0  0  0  0  0  0  0  0  0
   -1.1656    0.9257   -0.4627 N   0  0  0  0  0  0  0  0  0  0  0  0
    0.2229    0.9007   -0.8197 C   0  0  0  0  0  0  0  0  0  0  0  0
    0.6488    1.4053   -2.0297 C   0  0  0  0  0  0  0  0  0  0  0  0
    1.9318    1.4149   -2.4297 N   0  0  0  0  0  0  0  0  0  0  0  0
    2.8919    0.9081   -1.6249 C   0  0  0  0  0  0  0  0  0  0  0  0
    2.5188    0.3923   -0.4065 C   0  0  0  0  0  0  0  0  0  0  0  0
    3.5550   -0.1729    0.4982 C   0  0  2  0  0  0  0  0  0  0  0  0
    2.9163   -0.6649    1.7843 C   0  0  0  0  0  0  0  0  0  0  0  0
    4.6152    0.6708    0.7135 O   0  0  0  0  0  0  0  0  0  0  0  0
    4.0859   -1.4340   -0.1913 C   0  0  0  0  0  0  0  0  0  0  0  0
    2.9985   -2.2769   -0.3441 F   0  0  0  0  0  0  0  0  0  0  0  0
    4.7131   -1.1664   -1.3747 F   0  0  0  0  0  0  0  0  0  0  0  0
    5.0163   -2.0472    0.6340 F   0  0  0  0  0  0  0  0  0  0  0  0
    1.1923    0.3801    0.0121 C   0  0  0  0  0  0  0  0  0  0  0  0
   -1.9312   -0.1744   -0.3294 C   0  0  0  0  0  0  0  0  0  0  0  0
   -1.6670   -1.5336   -0.4745 C   0  0  0  0  0  0  0  0  0  0  0  0
   -2.6621   -2.4642   -0.2728 C   0  0  0  0  0  0  0  0  0  0  0  0
   -3.9301   -2.0507    0.0753 C   0  0  0  0  0  0  0  0  0  0  0  0
   -4.1938   -0.6990    0.2199 C   0  0  0  0  0  0  0  0  0  0  0  0
   -3.2005    0.2472    0.0195 C   0  0  0  0  0  0  0  0  0  0  0  0
   -4.2096    3.5190   -0.0055 H   0  0  0  0  0  0  0  0  0  0  0  0
   -5.2705    2.0883    0.0448 H   0  0  0  0  0  0  0  0  0  0  0  0
   -4.4072    2.6610    1.5345 H   0  0  0  0  0  0  0  0  0  0  0  0
   -0.0879    1.8189   -2.7003 H   0  0  0  0  0  0  0  0  0  0  0  0
    3.9269    0.9093   -1.9316 H   0  0  0  0  0  0  0  0  0  0  0  0
    2.4056    0.1761    2.3243 H   0  0  0  0  0  0  0  0  0  0  0  0
    3.7052   -1.1132    2.4215 H   0  0  0  0  0  0  0  0  0  0  0  0
    2.2127   -1.4808    1.5198 H   0  0  0  0  0  0  0  0  0  0  0  0
    4.7071    1.2617   -0.0801 H   0  0  0  0  0  0  0  0  0  0  0  0
    0.8905   -0.0258    0.9734 H   0  0  0  0  0  0  0  0  0  0  0  0
   -0.6634   -1.8305   -0.7484 H   0  0  0  0  0  0  0  0  0  0  0  0
   -2.4195   -3.5280   -0.3956 H   0  0  0  0  0  0  0  0  0  0  0  0
   -4.7257   -2.7620    0.2384 H   0  0  0  0  0  0  0  0  0  0  0  0
   -5.1944   -0.3679    0.4949 H   0  0  0  0  0  0  0  0  0  0  0  0
  1  2  1  0
  2  3  2  0
  3  4  1  0
  4  5  1  0
  5  6  2  0
  6  7  1  0
  7  8  2  0
  8  9  1  0
  9 10  1  0
 10 11  1  0
 10 12  1  1
 10 13  1  0
 13 14  1  0
 13 15  1  0
 13 16  1  0
  9 17  2  0
  4 18  1  0
 18 19  2  0
 19 20  1  0
 20 21  2  0
 21 22  1  0
 22 23  2  0
 23  2  1  0
 17  5  1  0
 23 18  1  0
  1 24  1  0
  1 25  1  0
  1 26  1  0
  6 27  1  0
  8 28  1  0
 11 29  1  0
 11 30  1  0
 11 31  1  0
 12 32  1  0
 17 33  1  0
 19 34  1  0
 20 35  1  0
 21 36  1  0
 22 37  1  0
M  END
$$$$
