@<TRIPOS>MOLECULE
*****
 37 39 0 0 0
SMALL
GASTEIGER

@<TRIPOS>ATOM
      1 C          -4.3369    2.5010    0.4389 C.3     1  UNL1       -0.0200
      2 C          -3.1720    1.6268    0.0909 C.ar    1  UNL1        0.0681
      3 N          -1.9171    1.9851   -0.2100 N.ar    1  UNL1       -0.1705
      4 N          -1.1656    0.9257   -0.4627 N.ar    1  UNL1       -0.2304
      5 C           0.2229    0.9007   -0.8197 C.ar    1  UNL1        0.0844
      6 C           0.6488    1.4053   -2.0297 C.ar    1  UNL1        0.0530
      7 N           1.9318    1.4149   -2.4297 N.ar    1  UNL1       -0.2608
      8 C           2.8919    0.9081   -1.6249 C.ar    1  UNL1        0.0339
      9 C           2.5188    0.3923   -0.4065 C.ar    1  UNL1        0.0123
     10 C           3.5550   -0.1729    0.4982 C.3     1  UNL1        0.1843
     11 C           2.9163   -0.6649    1.7843 C.3     1  UNL1       -0.0232
     12 O           4.6152    0.6708    0.7135 O.3     1  UNL1       -0.3757
     13 C           4.0859   -1.4340   -0.1913 C.3     1  UNL1        0.4222
     14 F           2.9985   -2.2769   -0.3441 F       1  UNL1       -0.1673
     15 F           4.7131   -1.1664   -1.3747 F       1  UNL1       -0.1673
     16 F           5.0163   -2.0472    0.6340 F       1  UNL1       -0.1673
     17 C           1.1923    0.3801    0.0121 C.ar    1  UNL1       -0.0271
     18 C          -1.9312   -0.1744   -0.3294 C.ar    1  UNL1        0.0749
     19 C          -1.6670   -1.5336   -0.4745 C.ar    1  UNL1       -0.0356
     20 C          -2.6621   -2.4642   -0.2728 C.ar    1  UNL1       -0.0597
     21 C          -3.9301   -2.0507    0.0753 C.ar    1  UNL1       -0.0610
     22 C          -4.1938   -0.6990    0.2199 C.ar    1  UNL1       -0.0508
     23 C          -3.2005    0.2472    0.0195 C.ar    1  UNL1        0.0231
     24 H          -4.2096    3.5190   -0.0055 H       1  UNL1        0.0293
     25 H          -5.2705    2.0883    0.0448 H       1  UNL1        0.0293
     26 H          -4.4072    2.6610    1.5345 H       1  UNL1        0.0293
     27 H          -0.0879    1.8189   -2.7003 H       1  UNL1        0.0851
     28 H           3.9269    0.9093   -1.9316 H       1  UNL1        0.0833
     29 H           2.4056    0.1761    2.3243 H       1  UNL1        0.0263
     30 H           3.7052   -1.1132    2.4215 H       1  UNL1        0.0263
     31 H           2.2127   -1.4808    1.5198 H       1  UNL1        0.0263
     32 H           4.7071    1.2617   -0.0801 H       1  UNL1        0.2110
     33 H           0.8905   -0.0258    0.9734 H       1  UNL1        0.0643
     34 H          -0.6634   -1.8305   -0.7484 H       1  UNL1        0.0639
     35 H          -2.4195   -3.5280   -0.3956 H       1  UNL1        0.0618
     36 H          -4.7257   -2.7620    0.2384 H       1  UNL1        0.0618
     37 H          -5.1944   -0.3679    0.4949 H       1  UNL1        0.0625
@<TRIPOS>BOND
     1     1     2    1
     2     2     3   ar
     3     3     4   ar
     4     4     5    1
     5     5     6   ar
     6     6     7   ar
     7     7     8   ar
     8     8     9   ar
     9     9    10    1
    10    10    11    1
    11    10    12    1
    12    10    13    1
    13    13    14    1
    14    13    15    1
    15    13    16    1
    16     9    17   ar
    17     4    18   ar
    18    18    19   ar
    19    19    20   ar
    20    20    21   ar
    21    21    22   ar
    22    22    23   ar
    23    23     2   ar
    24    17     5   ar
    25    23    18   ar
    26     1    24    1
    27     1    25    1
    28     1    26    1
    29     6    27    1
    30     8    28    1
    31    11    29    1
    32    11    30    1
    33    11    31    1
    34    12    32    1
    35    17    33    1
    36    19    34    1
    37    20    35    1
    38    21    36    1
    39    22    37    1
