
     RDKit          3D

 66 70  0  0  0  0  0  0  0  0999 V2000
   -6.0588   -0.7845   -2.1025 C   0  0  0  0  0  0  0  0  0  0  0  0
   -5.4950   -1.0670   -0.8742 O   0  0  0  0  0  0  0  0  0  0  0  0
   -5.4710   -0.0048   -0.0077 C   0  0  0  0  0  0  0  0  0  0  0  0
   -6.3342   -0.3076    1.2300 C   0  0  0  0  0  0  0  0  0  0  0  0
   -6.1684   -1.6384    1.6020 O   0  0  0  0  0  0  0  0  0  0  0  0
   -4.8715   -2.0488    1.4359 C   0  0  0  0  0  0  0  0  0  0  0  0
   -3.8549   -0.9136    1.5388 C   0  0  0  0  0  0  0  0  0  0  0  0
   -4.0515    0.1567    0.5360 C   0  0  0  0  0  0  0  0  0  0  0  0
   -3.1012    0.3195   -0.4840 N   0  0  0  0  0  0  0  0  0  0  0  0
   -3.2977    1.4508   -1.3373 C   0  0  0  0  0  0  0  0  0  0  0  0
   -1.7615    0.0239   -0.1519 C   0  0  2  0  0  0  0  0  0  0  0  0
   -1.2354    0.8466    1.0321 C   0  0  0  0  0  0  0  0  0  0  0  0
    0.1903    0.2530    1.0430 C   0  0  1  0  0  0  0  0  0  0  0  0
    0.0183   -1.0601    1.4572 O   0  0  0  0  0  0  0  0  0  0  0  0
    0.6762   -1.9095    0.6181 C   0  0  0  0  0  0  0  0  0  0  0  0
    1.0366   -1.2004   -0.6545 C   0  0  0  0  0  0  0  0  0  0  0  0
    0.5659    0.1948   -0.4186 C   0  0  2  0  0  0  0  0  0  0  0  0
    1.5192    1.2482   -0.8294 C   0  0  0  0  0  0  0  0  0  0  0  0
    1.1436    2.0341   -1.7764 O   0  0  0  0  0  0  0  0  0  0  0  0
    2.7872    1.4437   -0.2618 N   0  0  0  0  0  0  0  0  0  0  0  0
    3.5913    2.5532   -0.8176 C   0  0  0  0  0  0  0  0  0  0  0  0
    4.8487    2.7663   -0.0070 C   0  0  0  0  0  0  0  0  0  0  0  0
    5.5543    1.4356   -0.0168 C   0  0  0  0  0  0  0  0  0  0  0  0
    6.8107    1.2571   -0.3881 N   0  0  0  0  0  0  0  0  0  0  0  0
    7.3106   -0.0034   -0.3470 C   0  0  0  0  0  0  0  0  0  0  0  0
    6.5857   -1.1002    0.0578 C   0  0  0  0  0  0  0  0  0  0  0  0
    7.1733   -2.4738    0.0888 C   0  0  0  0  0  0  0  0  0  0  0  0
    7.4246   -2.8917    1.3639 F   0  0  0  0  0  0  0  0  0  0  0  0
    8.3514   -2.5195   -0.6304 F   0  0  0  0  0  0  0  0  0  0  0  0
    6.3033   -3.3605   -0.5585 F   0  0  0  0  0  0  0  0  0  0  0  0
    5.2690   -0.9256    0.4490 C   0  0  0  0  0  0  0  0  0  0  0  0
    4.7911    0.3645    0.3962 C   0  0  0  0  0  0  0  0  0  0  0  0
    3.3789    0.6892    0.7972 C   0  0  0  0  0  0  0  0  0  0  0  0
   -0.7559    0.3576   -1.1945 C   0  0  0  0  0  0  0  0  0  0  0  0
   -5.4741    0.0230   -2.5832 H   0  0  0  0  0  0  0  0  0  0  0  0
   -7.1178   -0.4335   -1.9663 H   0  0  0  0  0  0  0  0  0  0  0  0
   -6.0946   -1.6808   -2.7539 H   0  0  0  0  0  0  0  0  0  0  0  0
   -5.8921    0.9363   -0.4021 H   0  0  0  0  0  0  0  0  0  0  0  0
   -6.0145    0.3591    2.0405 H   0  0  0  0  0  0  0  0  0  0  0  0
   -7.4009   -0.1824    0.9385 H   0  0  0  0  0  0  0  0  0  0  0  0
   -4.6376   -2.7021    2.3302 H   0  0  0  0  0  0  0  0  0  0  0  0
   -4.6853   -2.7049    0.5691 H   0  0  0  0  0  0  0  0  0  0  0  0
   -3.9664   -0.5309    2.6025 H   0  0  0  0  0  0  0  0  0  0  0  0
   -2.8780   -1.4226    1.5481 H   0  0  0  0  0  0  0  0  0  0  0  0
   -4.1074    1.1329    1.1154 H   0  0  0  0  0  0  0  0  0  0  0  0
   -2.5794    2.2745   -1.1854 H   0  0  0  0  0  0  0  0  0  0  0  0
   -4.3077    1.8992   -1.2522 H   0  0  0  0  0  0  0  0  0  0  0  0
   -3.1840    1.1142   -2.3887 H   0  0  0  0  0  0  0  0  0  0  0  0
   -1.5887   -1.0330    0.1163 H   0  0  0  0  0  0  0  0  0  0  0  0
   -1.1286    1.9037    0.7603 H   0  0  0  0  0  0  0  0  0  0  0  0
   -1.7582    0.6477    1.9641 H   0  0  0  0  0  0  0  0  0  0  0  0
    0.8695    0.8514    1.6559 H   0  0  0  0  0  0  0  0  0  0  0  0
    1.5681   -2.3600    1.1171 H   0  0  0  0  0  0  0  0  0  0  0  0
    0.0118   -2.7584    0.3596 H   0  0  0  0  0  0  0  0  0  0  0  0
    0.5132   -1.6711   -1.5407 H   0  0  0  0  0  0  0  0  0  0  0  0
    2.1160   -1.2801   -0.9252 H   0  0  0  0  0  0  0  0  0  0  0  0
    2.9902    3.4590   -0.9134 H   0  0  0  0  0  0  0  0  0  0  0  0
    3.9218    2.1836   -1.8214 H   0  0  0  0  0  0  0  0  0  0  0  0
    4.6176    3.0783    1.0334 H   0  0  0  0  0  0  0  0  0  0  0  0
    5.4990    3.4574   -0.5454 H   0  0  0  0  0  0  0  0  0  0  0  0
    8.3489   -0.2091   -0.6447 H   0  0  0  0  0  0  0  0  0  0  0  0
    4.6423   -1.7614    0.7811 H   0  0  0  0  0  0  0  0  0  0  0  0
    2.9039   -0.2413    1.0736 H   0  0  0  0  0  0  0  0  0  0  0  0
    3.4507    1.3706    1.6918 H   0  0  0  0  0  0  0  0  0  0  0  0
   -0.7488   -0.3504   -2.0479 H   0  0  0  0  0  0  0  0  0  0  0  0
   -0.7620    1.4131   -1.5147 H   0  0  0  0  0  0  0  0  0  0  0  0
  1  2  1  0
  2  3  1  0
  3  4  1  0
  4  5  1  0
  5  6  1  0
  6  7  1  0
  7  8  1  0
  8  9  1  0
  9 10  1  0
  9 11  1  0
 11 12  1  0
 12 13  1  0
 13 14  1  0
 14 15  1  0
 15 16  1  0
 16 17  1  0
 17 18  1  6
 18 19  2  0
 18 20  1  0
 20 21  1  0
 21 22  1  0
 22 23  1  0
 23 24  2  0
 24 25  1  0
 25 26  2  0
 26 27  1  0
 27 28  1  0
 27 29  1  0
 27 30  1  0
 26 31  1  0
 31 32  2  0
 32 33  1  0
 17 34  1  0
  8  3  1  0
 34 11  1  0
 17 13  1  0
 33 20  1  0
 32 23  1  0
  1 35  1  0
  1 36  1  0
  1 37  1  0
  3 38  1  0
  4 39  1  0
  4 40  1  0
  6 41  1  0
  6 42  1  0
  7 43  1  0
  7 44  1  0
  8 45  1  0
 10 46  1  0
 10 47  1  0
 10 48  1  0
 11 49  1  1
 12 50  1  0
 12 51  1  0
 13 52  1  1
 15 53  1  0
 15 54  1  0
 16 55  1  0
 16 56  1  0
 21 57  1  0
 21 58  1  0
 22 59  1  0
 22 60  1  0
 25 61  1  0
 31 62  1  0
 33 63  1  0
 33 64  1  0
 34 65  1  0
 34 66  1  0
M  END
$$$$
