@<TRIPOS>MOLECULE
*****
 66 70 0 0 0
SMALL
GASTEIGER

@<TRIPOS>ATOM
      1 C          -6.0588   -0.7845   -2.1025 C.3     1  UNL1        0.0370
      2 O          -5.4950   -1.0670   -0.8742 O.3     1  UNL1       -0.3759
      3 C          -5.4710   -0.0048   -0.0077 C.3     1  UNL1        0.0971
      4 C          -6.3342   -0.3076    1.2300 C.3     1  UNL1        0.0753
      5 O          -6.1684   -1.6384    1.6020 O.3     1  UNL1       -0.3771
      6 C          -4.8715   -2.0488    1.4359 C.3     1  UNL1        0.0493
      7 C          -3.8549   -0.9136    1.5388 C.3     1  UNL1       -0.0113
      8 C          -4.0515    0.1567    0.5360 C.3     1  UNL1        0.0408
      9 N          -3.1012    0.3195   -0.4840 N.3     1  UNL1       -0.2968
     10 C          -3.2977    1.4508   -1.3373 C.3     1  UNL1       -0.0121
     11 C          -1.7615    0.0239   -0.1519 C.3     1  UNL1        0.0139
     12 C          -1.2354    0.8466    1.0321 C.3     1  UNL1       -0.0099
     13 C           0.1903    0.2530    1.0430 C.3     1  UNL1        0.0741
     14 O           0.0183   -1.0601    1.4572 O.3     1  UNL1       -0.3754
     15 C           0.6762   -1.9095    0.6181 C.3     1  UNL1        0.0491
     16 C           1.0366   -1.2004   -0.6545 C.3     1  UNL1       -0.0130
     17 C           0.5659    0.1948   -0.4186 C.3     1  UNL1        0.0767
     18 C           1.5192    1.2482   -0.8294 C.2     1  UNL1        0.2246
     19 O           1.1436    2.0341   -1.7764 O.2     1  UNL1       -0.2749
     20 N           2.7872    1.4437   -0.2618 N.am    1  UNL1       -0.2962
     21 C           3.5913    2.5532   -0.8176 C.3     1  UNL1        0.0204
     22 C           4.8487    2.7663   -0.0070 C.3     1  UNL1        0.0058
     23 C           5.5543    1.4356   -0.0168 C.ar    1  UNL1        0.0474
     24 N           6.8107    1.2571   -0.3881 N.ar    1  UNL1       -0.2590
     25 C           7.3106   -0.0034   -0.3470 C.ar    1  UNL1        0.0395
     26 C           6.5857   -1.1002    0.0578 C.ar    1  UNL1        0.0732
     27 C           7.1733   -2.4738    0.0888 C.3     1  UNL1        0.4188
     28 F           7.4246   -2.8917    1.3639 F       1  UNL1       -0.1658
     29 F           8.3514   -2.5195   -0.6304 F       1  UNL1       -0.1658
     30 F           6.3033   -3.3605   -0.5585 F       1  UNL1       -0.1658
     31 C           5.2690   -0.9256    0.4490 C.ar    1  UNL1       -0.0423
     32 C           4.7911    0.3645    0.3962 C.ar    1  UNL1       -0.0083
     33 C           3.3789    0.6892    0.7972 C.3     1  UNL1        0.0414
     34 C          -0.7559    0.3576   -1.1945 C.3     1  UNL1       -0.0208
     35 H          -5.4741    0.0230   -2.5832 H       1  UNL1        0.0524
     36 H          -7.1178   -0.4335   -1.9663 H       1  UNL1        0.0524
     37 H          -6.0946   -1.6808   -2.7539 H       1  UNL1        0.0524
     38 H          -5.8921    0.9363   -0.4021 H       1  UNL1        0.0634
     39 H          -6.0145    0.3591    2.0405 H       1  UNL1        0.0586
     40 H          -7.4009   -0.1824    0.9385 H       1  UNL1        0.0586
     41 H          -4.6376   -2.7021    2.3302 H       1  UNL1        0.0560
     42 H          -4.6853   -2.7049    0.5691 H       1  UNL1        0.0560
     43 H          -3.9664   -0.5309    2.6025 H       1  UNL1        0.0303
     44 H          -2.8780   -1.4226    1.5481 H       1  UNL1        0.0303
     45 H          -4.1074    1.1329    1.1154 H       1  UNL1        0.0489
     46 H          -2.5794    2.2745   -1.1854 H       1  UNL1        0.0391
     47 H          -4.3077    1.8992   -1.2522 H       1  UNL1        0.0391
     48 H          -3.1840    1.1142   -2.3887 H       1  UNL1        0.0391
     49 H          -1.5887   -1.0330    0.1163 H       1  UNL1        0.0464
     50 H          -1.1286    1.9037    0.7603 H       1  UNL1        0.0306
     51 H          -1.7582    0.6477    1.9641 H       1  UNL1        0.0306
     52 H           0.8695    0.8514    1.6559 H       1  UNL1        0.0607
     53 H           1.5681   -2.3600    1.1171 H       1  UNL1        0.0560
     54 H           0.0118   -2.7584    0.3596 H       1  UNL1        0.0560
     55 H           0.5132   -1.6711   -1.5407 H       1  UNL1        0.0298
     56 H           2.1160   -1.2801   -0.9252 H       1  UNL1        0.0298
     57 H           2.9902    3.4590   -0.9134 H       1  UNL1        0.0468
     58 H           3.9218    2.1836   -1.8214 H       1  UNL1        0.0468
     59 H           4.6176    3.0783    1.0334 H       1  UNL1        0.0344
     60 H           5.4990    3.4574   -0.5454 H       1  UNL1        0.0344
     61 H           8.3489   -0.2091   -0.6447 H       1  UNL1        0.0835
     62 H           4.6423   -1.7614    0.7811 H       1  UNL1        0.0627
     63 H           2.9039   -0.2413    1.0736 H       1  UNL1        0.0514
     64 H           3.4507    1.3706    1.6918 H       1  UNL1        0.0514
     65 H          -0.7488   -0.3504   -2.0479 H       1  UNL1        0.0291
     66 H          -0.7620    1.4131   -1.5147 H       1  UNL1        0.0291
@<TRIPOS>BOND
     1     1     2    1
     2     2     3    1
     3     3     4    1
     4     4     5    1
     5     5     6    1
     6     6     7    1
     7     7     8    1
     8     8     9    1
     9     9    10    1
    10     9    11    1
    11    11    12    1
    12    12    13    1
    13    13    14    1
    14    14    15    1
    15    15    16    1
    16    16    17    1
    17    17    18    1
    18    18    19    2
    19    18    20   am
    20    20    21    1
    21    21    22    1
    22    22    23    1
    23    23    24   ar
    24    24    25   ar
    25    25    26   ar
    26    26    27    1
    27    27    28    1
    28    27    29    1
    29    27    30    1
    30    26    31   ar
    31    31    32   ar
    32    32    33    1
    33    17    34    1
    34     8     3    1
    35    34    11    1
    36    17    13    1
    37    33    20    1
    38    32    23   ar
    39     1    35    1
    40     1    36    1
    41     1    37    1
    42     3    38    1
    43     4    39    1
    44     4    40    1
    45     6    41    1
    46     6    42    1
    47     7    43    1
    48     7    44    1
    49     8    45    1
    50    10    46    1
    51    10    47    1
    52    10    48    1
    53    11    49    1
    54    12    50    1
    55    12    51    1
    56    13    52    1
    57    15    53    1
    58    15    54    1
    59    16    55    1
    60    16    56    1
    61    21    57    1
    62    21    58    1
    63    22    59    1
    64    22    60    1
    65    25    61    1
    66    31    62    1
    67    33    63    1
    68    33    64    1
    69    34    65    1
    70    34    66    1
