
     RDKit          3D

 52 55  0  0  0  0  0  0  0  0999 V2000
    8.2440    1.6523    0.8669 C   0  0  0  0  0  0  0  0  0  0  0  0
    7.0094    1.0677    0.2825 C   0  0  0  0  0  0  0  0  0  0  0  0
    5.7530    1.5059    0.6353 C   0  0  0  0  0  0  0  0  0  0  0  0
    4.6393    0.9156    0.0502 C   0  0  0  0  0  0  0  0  0  0  0  0
    3.3349    1.1908    0.2515 N   0  0  0  0  0  0  0  0  0  0  0  0
    2.6046    0.3944   -0.5088 N   0  0  0  0  0  0  0  0  0  0  0  0
    1.1926    0.3775   -0.6182 C   0  0  0  0  0  0  0  0  0  0  0  0
    0.4488   -0.5231    0.2698 C   0  0  0  0  0  0  0  0  0  0  0  0
   -0.9507   -0.4536    0.1429 C   0  0  0  0  0  0  0  0  0  0  0  0
   -1.8088   -1.2111    0.8828 C   0  0  0  0  0  0  0  0  0  0  0  0
   -3.2953   -1.1092    0.7192 C   0  0  2  0  0  0  0  0  0  0  0  0
   -3.5387   -1.0975   -0.6344 O   0  0  0  0  0  0  0  0  0  0  0  0
   -4.8035   -0.6769   -0.9908 C   0  0  2  0  0  0  0  0  0  0  0  0
   -5.0136   -0.8568   -2.4621 C   0  0  0  0  0  0  0  0  0  0  0  0
   -6.3124   -0.4203   -2.8035 O   0  0  0  0  0  0  0  0  0  0  0  0
   -4.9389    0.7660   -0.5581 C   0  0  1  0  0  0  0  0  0  0  0  0
   -6.0178    1.4101   -1.1071 O   0  0  0  0  0  0  0  0  0  0  0  0
   -4.9919    0.7370    0.9743 C   0  0  2  0  0  0  0  0  0  0  0  0
   -5.0344    2.0580    1.4529 O   0  0  0  0  0  0  0  0  0  0  0  0
   -3.7194    0.1281    1.4474 C   0  0  1  0  0  0  0  0  0  0  0  0
   -3.7227   -0.1649    2.8095 O   0  0  0  0  0  0  0  0  0  0  0  0
   -1.2808   -2.0915    1.8034 C   0  0  0  0  0  0  0  0  0  0  0  0
    0.1000   -2.1745    1.9431 C   0  0  0  0  0  0  0  0  0  0  0  0
    0.9534   -1.3947    1.1804 C   0  0  0  0  0  0  0  0  0  0  0  0
    2.6672   -1.5495    1.4037 Cl  0  0  0  0  0  0  0  0  0  0  0  0
    3.4586   -0.3853   -1.1900 C   0  0  0  0  0  0  0  0  0  0  0  0
    3.1600   -1.2901   -2.0318 O   0  0  0  0  0  0  0  0  0  0  0  0
    4.7187   -0.0685   -0.8495 N   0  0  0  0  0  0  0  0  0  0  0  0
    5.9414   -0.5075   -1.2044 C   0  0  0  0  0  0  0  0  0  0  0  0
    7.0737    0.0496   -0.6489 C   0  0  0  0  0  0  0  0  0  0  0  0
    8.6671   -0.5269   -1.1154 Cl  0  0  0  0  0  0  0  0  0  0  0  0
    7.9966    2.6695    1.2372 H   0  0  0  0  0  0  0  0  0  0  0  0
    8.6481    1.0385    1.6930 H   0  0  0  0  0  0  0  0  0  0  0  0
    9.0253    1.7889    0.0845 H   0  0  0  0  0  0  0  0  0  0  0  0
    5.6508    2.3054    1.3644 H   0  0  0  0  0  0  0  0  0  0  0  0
    0.7490    1.4173   -0.4717 H   0  0  0  0  0  0  0  0  0  0  0  0
    0.8857    0.1525   -1.6842 H   0  0  0  0  0  0  0  0  0  0  0  0
   -1.3847    0.2251   -0.5680 H   0  0  0  0  0  0  0  0  0  0  0  0
   -3.7561   -1.9921    1.2091 H   0  0  0  0  0  0  0  0  0  0  0  0
   -5.6091   -1.2405   -0.4378 H   0  0  0  0  0  0  0  0  0  0  0  0
   -4.2573   -0.2826   -3.0277 H   0  0  0  0  0  0  0  0  0  0  0  0
   -4.9379   -1.9503   -2.6716 H   0  0  0  0  0  0  0  0  0  0  0  0
   -6.2224    0.4646   -3.2738 H   0  0  0  0  0  0  0  0  0  0  0  0
   -3.9735    1.2783   -0.7988 H   0  0  0  0  0  0  0  0  0  0  0  0
   -5.7455    2.3746   -1.2328 H   0  0  0  0  0  0  0  0  0  0  0  0
   -5.8842    0.1993    1.3231 H   0  0  0  0  0  0  0  0  0  0  0  0
   -4.5325    2.0772    2.3239 H   0  0  0  0  0  0  0  0  0  0  0  0
   -2.9069    0.8941    1.3033 H   0  0  0  0  0  0  0  0  0  0  0  0
   -2.8143   -0.2787    3.1558 H   0  0  0  0  0  0  0  0  0  0  0  0
   -1.9349   -2.7085    2.4078 H   0  0  0  0  0  0  0  0  0  0  0  0
    0.4696   -2.8809    2.6796 H   0  0  0  0  0  0  0  0  0  0  0  0
    5.9965   -1.3024   -1.9314 H   0  0  0  0  0  0  0  0  0  0  0  0
  1  2  1  0
  2  3  2  0
  3  4  1  0
  4  5  2  0
  5  6  1  0
  6  7  1  0
  7  8  1  0
  8  9  2  0
  9 10  1  0
 10 11  1  0
 11 12  1  0
 12 13  1  0
 13 14  1  0
 14 15  1  0
 13 16  1  0
 16 17  1  0
 16 18  1  0
 18 19  1  0
 18 20  1  0
 20 21  1  0
 10 22  2  0
 22 23  1  0
 23 24  2  0
 24 25  1  0
  6 26  1  0
 26 27  2  0
 26 28  1  0
 28 29  1  0
 29 30  2  0
 30 31  1  0
 30  2  1  0
 28  4  1  0
 24  8  1  0
 20 11  1  0
  1 32  1  0
  1 33  1  0
  1 34  1  0
  3 35  1  0
  7 36  1  0
  7 37  1  0
  9 38  1  0
 11 39  1  1
 13 40  1  1
 14 41  1  0
 14 42  1  0
 15 43  1  0
 16 44  1  1
 17 45  1  0
 18 46  1  6
 19 47  1  0
 20 48  1  1
 21 49  1  0
 22 50  1  0
 23 51  1  0
 29 52  1  0
M  END
$$$$
