@<TRIPOS>MOLECULE
*****
 52 55 0 0 0
SMALL
GASTEIGER

@<TRIPOS>ATOM
      1 C           8.2440    1.6523    0.8669 C.3     1  UNL1       -0.0382
      2 C           7.0094    1.0677    0.2825 C.ar    1  UNL1       -0.0272
      3 C           5.7530    1.5059    0.6353 C.ar    1  UNL1       -0.0127
      4 C           4.6393    0.9156    0.0502 C.ar    1  UNL1        0.1621
      5 N           3.3349    1.1908    0.2515 N.ar    1  UNL1       -0.1485
      6 N           2.6046    0.3944   -0.5088 N.ar    1  UNL1       -0.2079
      7 C           1.1926    0.3775   -0.6182 C.3     1  UNL1        0.0731
      8 C           0.4488   -0.5231    0.2698 C.ar    1  UNL1       -0.0073
      9 C          -0.9507   -0.4536    0.1429 C.ar    1  UNL1       -0.0497
     10 C          -1.8088   -1.2111    0.8828 C.ar    1  UNL1       -0.0159
     11 C          -3.2953   -1.1092    0.7192 C.3     1  UNL1        0.1125
     12 O          -3.5387   -1.0975   -0.6344 O.3     1  UNL1       -0.3612
     13 C          -4.8035   -0.6769   -0.9908 C.3     1  UNL1        0.1108
     14 C          -5.0136   -0.8568   -2.4621 C.3     1  UNL1        0.0729
     15 O          -6.3124   -0.4203   -2.8035 O.3     1  UNL1       -0.3924
     16 C          -4.9389    0.7660   -0.5581 C.3     1  UNL1        0.1117
     17 O          -6.0178    1.4101   -1.1071 O.3     1  UNL1       -0.3865
     18 C          -4.9919    0.7370    0.9743 C.3     1  UNL1        0.1121
     19 O          -5.0344    2.0580    1.4529 O.3     1  UNL1       -0.3865
     20 C          -3.7194    0.1281    1.4474 C.3     1  UNL1        0.1137
     21 O          -3.7227   -0.1649    2.8095 O.3     1  UNL1       -0.3862
     22 C          -1.2808   -2.0915    1.8034 C.ar    1  UNL1       -0.0546
     23 C           0.1000   -2.1745    1.9431 C.ar    1  UNL1       -0.0427
     24 C           0.9534   -1.3947    1.1804 C.ar    1  UNL1        0.0459
     25 CL          2.6672   -1.5495    1.4037 Cl      1  UNL1       -0.0832
     26 C           3.4586   -0.3853   -1.1900 C.ar    1  UNL1        0.3514
     27 O           3.1600   -1.2901   -2.0318 O.2     1  UNL1       -0.2444
     28 N           4.7187   -0.0685   -0.8495 N.ar    1  UNL1       -0.2494
     29 C           5.9414   -0.5075   -1.2044 C.ar    1  UNL1        0.0347
     30 C           7.0737    0.0496   -0.6489 C.ar    1  UNL1        0.0606
     31 CL          8.6671   -0.5269   -1.1154 Cl      1  UNL1       -0.0818
     32 H           7.9966    2.6695    1.2372 H       1  UNL1        0.0278
     33 H           8.6481    1.0385    1.6930 H       1  UNL1        0.0278
     34 H           9.0253    1.7889    0.0845 H       1  UNL1        0.0278
     35 H           5.6508    2.3054    1.3644 H       1  UNL1        0.0658
     36 H           0.7490    1.4173   -0.4717 H       1  UNL1        0.0561
     37 H           0.8857    0.1525   -1.6842 H       1  UNL1        0.0561
     38 H          -1.3847    0.2251   -0.5680 H       1  UNL1        0.0625
     39 H          -3.7561   -1.9921    1.2091 H       1  UNL1        0.0673
     40 H          -5.6091   -1.2405   -0.4378 H       1  UNL1        0.0646
     41 H          -4.2573   -0.2826   -3.0277 H       1  UNL1        0.0584
     42 H          -4.9379   -1.9503   -2.6716 H       1  UNL1        0.0584
     43 H          -6.2224    0.4646   -3.2738 H       1  UNL1        0.2095
     44 H          -3.9735    1.2783   -0.7988 H       1  UNL1        0.0647
     45 H          -5.7455    2.3746   -1.2328 H       1  UNL1        0.2100
     46 H          -5.8842    0.1993    1.3231 H       1  UNL1        0.0647
     47 H          -4.5325    2.0772    2.3239 H       1  UNL1        0.2100
     48 H          -2.9069    0.8941    1.3033 H       1  UNL1        0.0649
     49 H          -2.8143   -0.2787    3.1558 H       1  UNL1        0.2100
     50 H          -1.9349   -2.7085    2.4078 H       1  UNL1        0.0622
     51 H           0.4696   -2.8809    2.6796 H       1  UNL1        0.0632
     52 H           5.9965   -1.3024   -1.9314 H       1  UNL1        0.0830
@<TRIPOS>BOND
     1     1     2    1
     2     2     3   ar
     3     3     4   ar
     4     4     5   ar
     5     5     6   ar
     6     6     7    1
     7     7     8    1
     8     8     9   ar
     9     9    10   ar
    10    10    11    1
    11    11    12    1
    12    12    13    1
    13    13    14    1
    14    14    15    1
    15    13    16    1
    16    16    17    1
    17    16    18    1
    18    18    19    1
    19    18    20    1
    20    20    21    1
    21    10    22   ar
    22    22    23   ar
    23    23    24   ar
    24    24    25    1
    25     6    26   ar
    26    26    27    2
    27    26    28   ar
    28    28    29   ar
    29    29    30   ar
    30    30    31    1
    31    30     2   ar
    32    28     4   ar
    33    24     8   ar
    34    20    11    1
    35     1    32    1
    36     1    33    1
    37     1    34    1
    38     3    35    1
    39     7    36    1
    40     7    37    1
    41     9    38    1
    42    11    39    1
    43    13    40    1
    44    14    41    1
    45    14    42    1
    46    15    43    1
    47    16    44    1
    48    17    45    1
    49    18    46    1
    50    19    47    1
    51    20    48    1
    52    21    49    1
    53    22    50    1
    54    23    51    1
    55    29    52    1
