@<TRIPOS>MOLECULE
*****
 50 53 0 0 0
SMALL
GASTEIGER

@<TRIPOS>ATOM
      1 C          -4.7162    0.5991    1.1672 C.3     1  UNL1        0.1140
      2 C          -5.5577    0.8758    2.3905 C.3     1  UNL1        0.0731
      3 O          -6.2219    2.0956    2.2202 O.3     1  UNL1       -0.3924
      4 O          -4.0159   -0.6245    1.2758 O.3     1  UNL1       -0.3313
      5 C          -3.1607   -0.6657    0.1584 C.3     1  UNL1        0.2308
      6 O          -2.1008   -1.5659    0.3784 O.3     1  UNL1       -0.4607
      7 C          -0.8000   -1.1928    0.2319 C.ar    1  UNL1        0.1275
      8 C           0.0308   -2.2853    0.5134 C.ar    1  UNL1       -0.0189
      9 C           1.4266   -2.1876    0.4415 C.ar    1  UNL1       -0.0439
     10 C           2.0140   -0.9883    0.0847 C.ar    1  UNL1        0.0648
     11 C           3.3883   -0.8589    0.0046 C.ar    1  UNL1        0.2001
     12 O           4.1040   -1.8779    0.2691 O.2     1  UNL1       -0.2864
     13 C           3.8755    0.3789   -0.3598 C.ar    1  UNL1        0.0643
     14 C           3.0053    1.4192   -0.6254 C.ar    1  UNL1        0.1038
     15 O           1.6984    1.2353   -0.5320 O.2     1  UNL1       -0.4620
     16 C           1.1867    0.0810   -0.1903 C.ar    1  UNL1        0.1419
     17 C          -0.1785   -0.0152   -0.1198 C.ar    1  UNL1        0.0232
     18 C           5.3346    0.4858   -0.4362 C.ar    1  UNL1       -0.0110
     19 C           5.8768    1.1299   -1.5368 C.ar    1  UNL1       -0.0504
     20 C           7.2686    1.2387   -1.6215 C.ar    1  UNL1       -0.0196
     21 C           8.0605    0.7100   -0.6217 C.ar    1  UNL1        0.1169
     22 O           9.4441    0.8401   -0.7449 O.3     1  UNL1       -0.5068
     23 C           7.5026    0.0709    0.4688 C.ar    1  UNL1       -0.0196
     24 C           6.1315   -0.0519    0.5799 C.ar    1  UNL1       -0.0504
     25 C          -3.9954   -1.2479   -0.9899 C.3     1  UNL1        0.1454
     26 O          -3.4807   -0.7368   -2.1811 O.3     1  UNL1       -0.3829
     27 C          -5.4156   -0.8125   -0.7709 C.3     1  UNL1        0.1152
     28 O          -6.0489   -1.8398   -0.0699 O.3     1  UNL1       -0.3864
     29 C          -5.5474    0.5119   -0.0750 C.3     1  UNL1        0.1120
     30 O          -5.1765    1.5100   -0.9747 O.3     1  UNL1       -0.3865
     31 H          -3.9351    1.3851    1.1062 H       1  UNL1        0.0647
     32 H          -6.2949    0.0868    2.5890 H       1  UNL1        0.0584
     33 H          -4.8816    0.9842    3.2644 H       1  UNL1        0.0584
     34 H          -5.6100    2.8499    2.1652 H       1  UNL1        0.2095
     35 H          -2.8388    0.3496   -0.1379 H       1  UNL1        0.1084
     36 H          -0.2652   -3.3042    0.8100 H       1  UNL1        0.0654
     37 H           2.1057   -2.9854    0.6447 H       1  UNL1        0.0627
     38 H           3.4462    2.3693   -0.9072 H       1  UNL1        0.1037
     39 H          -0.8739    0.7618   -0.3167 H       1  UNL1        0.0691
     40 H           5.2030    1.5348   -2.3076 H       1  UNL1        0.0625
     41 H           7.6913    1.7509   -2.4975 H       1  UNL1        0.0654
     42 H           9.8979    1.5856   -0.1994 H       1  UNL1        0.2921
     43 H           8.1101   -0.3494    1.2618 H       1  UNL1        0.0654
     44 H           5.6504   -0.5523    1.4304 H       1  UNL1        0.0625
     45 H          -3.9065   -2.3527   -1.0273 H       1  UNL1        0.0683
     46 H          -4.1573   -0.7706   -2.9045 H       1  UNL1        0.2102
     47 H          -5.9383   -0.7175   -1.7553 H       1  UNL1        0.0648
     48 H          -6.2308   -1.5824    0.8658 H       1  UNL1        0.2100
     49 H          -6.6298    0.6083    0.1955 H       1  UNL1        0.0647
     50 H          -4.4745    2.1171   -0.6140 H       1  UNL1        0.2100
@<TRIPOS>BOND
     1     1     2    1
     2     2     3    1
     3     1     4    1
     4     4     5    1
     5     5     6    1
     6     6     7    1
     7     7     8   ar
     8     8     9   ar
     9     9    10   ar
    10    10    11   ar
    11    11    12    2
    12    11    13   ar
    13    13    14   ar
    14    14    15   ar
    15    15    16   ar
    16    16    17   ar
    17    13    18    1
    18    18    19   ar
    19    19    20   ar
    20    20    21   ar
    21    21    22    1
    22    21    23   ar
    23    23    24   ar
    24     5    25    1
    25    25    26    1
    26    25    27    1
    27    27    28    1
    28    27    29    1
    29    29    30    1
    30    29     1    1
    31    17     7   ar
    32    24    18   ar
    33    16    10   ar
    34     1    31    1
    35     2    32    1
    36     2    33    1
    37     3    34    1
    38     5    35    1
    39     8    36    1
    40     9    37    1
    41    14    38    1
    42    17    39    1
    43    19    40    1
    44    20    41    1
    45    22    42    1
    46    23    43    1
    47    24    44    1
    48    25    45    1
    49    26    46    1
    50    27    47    1
    51    28    48    1
    52    29    49    1
    53    30    50    1
