@<TRIPOS>MOLECULE
*****
 57 59 0 0 0
SMALL
GASTEIGER

@<TRIPOS>ATOM
      1 C           2.9560   -2.2343   -0.0188 C.3     1  UNL1        0.0011
      2 N           2.1367   -1.3365   -0.8401 N.pl3   1  UNL1       -0.3271
      3 C           2.7882   -0.4329   -1.7295 C.3     1  UNL1        0.0555
      4 C           3.6552    0.4701   -0.8989 C.ar    1  UNL1        0.0774
      5 C           3.1809    1.6581   -0.3873 C.ar    1  UNL1        0.0528
      6 N           4.0209    2.4041    0.3436 N.ar    1  UNL1       -0.2324
      7 C           5.2971    2.0285    0.5873 C.ar    1  UNL1        0.1851
      8 N           6.1431    2.7741    1.3201 N.ar    1  UNL1       -0.1932
      9 C           7.4144    2.4350    1.5830 C.ar    1  UNL1        0.2163
     10 N           8.2867    3.2398    2.3593 N.pl3   1  UNL1       -0.3274
     11 N           7.8472    1.2523    1.0595 N.ar    1  UNL1       -0.1978
     12 C           7.0733    0.4558    0.3235 C.ar    1  UNL1        0.1491
     13 N           7.5567   -0.7714   -0.2074 N.pl3   1  UNL1       -0.3413
     14 C           5.7699    0.8266    0.0672 C.ar    1  UNL1        0.1477
     15 N           4.9212    0.0787   -0.6679 N.ar    1  UNL1       -0.2419
     16 C           0.7457   -1.4111   -0.7093 C.ar    1  UNL1        0.0298
     17 C           0.1854   -2.3173    0.1731 C.ar    1  UNL1       -0.0399
     18 C          -1.1689   -2.4373    0.3473 C.ar    1  UNL1       -0.0479
     19 C          -2.0178   -1.6239   -0.3842 C.ar    1  UNL1        0.0368
     20 C          -3.4421   -1.7406   -0.2100 C.2     1  UNL1        0.2447
     21 O          -3.9054   -2.5722    0.5977 O.2     1  UNL1       -0.2702
     22 N          -4.3343   -0.9233   -0.9434 N.am    1  UNL1       -0.2983
     23 CA         -5.7852   -1.0763   -0.7337 C.3     1  UNL1        0.1209
     24 C          -6.2672    0.2681   -0.2265 C.3     1  UNL1       -0.0158
     25 C          -5.5273    0.5557    1.0625 C.3     1  UNL1        0.0281
     26 C          -5.9396    1.8667    1.6383 C.2     1  UNL1        0.2355
     27 O          -6.7941    2.5333    1.0280 O.2     1  UNL1       -0.2737
     28 N          -5.3513    2.2975    2.8407 N.am    1  UNL1       -0.1975
     29 O          -5.7247    3.4869    3.3638 O.3     1  UNL1       -0.2952
     30 C          -6.3754   -1.4087   -2.0447 C.2     1  UNL1        0.3253
     31 O          -7.6111   -1.5883   -2.1211 O.2     1  UNL1       -0.2489
     32 OXT        -5.6097   -1.5272   -3.1853 O.3     1  UNL1       -0.4793
     33 C          -1.4769   -0.7280   -1.2560 C.ar    1  UNL1       -0.0479
     34 C          -0.1052   -0.6203   -1.4193 C.ar    1  UNL1       -0.0399
     35 H           2.6429   -3.2763   -0.2607 H       1  UNL1        0.0428
     36 H           4.0199   -2.1274   -0.2658 H       1  UNL1        0.0428
     37 H           2.7341   -1.9935    1.0390 H       1  UNL1        0.0428
     38 H           2.1717    0.1709   -2.3761 H       1  UNL1        0.0529
     39 H           3.4686   -1.0237   -2.4219 H       1  UNL1        0.0529
     40 H           2.1556    1.9212   -0.6053 H       1  UNL1        0.0849
     41 H           8.1907    4.2732    2.4069 H       1  UNL1        0.1452
     42 H           9.0536    2.8009    2.9059 H       1  UNL1        0.1452
     43 H           8.4372   -1.2260    0.1614 H       1  UNL1        0.1438
     44 H           7.0604   -1.2673   -0.9794 H       1  UNL1        0.1438
     45 H           0.8350   -2.9805    0.7714 H       1  UNL1        0.0636
     46 H          -1.5626   -3.1707    1.0587 H       1  UNL1        0.0626
     47 H          -4.0537   -0.2092   -1.6318 H       1  UNL1        0.1498
     48 HA         -5.9749   -1.8583    0.0147 H       1  UNL1        0.0614
     49 H          -7.3556    0.2910   -0.0403 H       1  UNL1        0.0293
     50 H          -6.0150    1.0473   -0.9675 H       1  UNL1        0.0293
     51 H          -4.4421    0.5698    0.8550 H       1  UNL1        0.0360
     52 H          -5.7211   -0.2572    1.7932 H       1  UNL1        0.0360
     53 H          -4.6320    1.7317    3.3503 H       1  UNL1        0.1822
     54 H          -5.7153    4.1509    2.6201 H       1  UNL1        0.2414
     55 HXT        -6.0216   -1.5227   -4.1308 H       1  UNL1        0.2951
     56 H          -2.0763   -0.0504   -1.8701 H       1  UNL1        0.0626
     57 H           0.2581    0.1245   -2.1387 H       1  UNL1        0.0636
@<TRIPOS>BOND
     1     1     2    1
     2     2     3    1
     3     3     4    1
     4     4     5   ar
     5     5     6   ar
     6     6     7   ar
     7     7     8   ar
     8     8     9   ar
     9     9    10    1
    10     9    11   ar
    11    11    12   ar
    12    12    13    1
    13    12    14   ar
    14    14    15   ar
    15     2    16    1
    16    16    17   ar
    17    17    18   ar
    18    18    19   ar
    19    19    20    1
    20    20    21    2
    21    20    22   am
    22    22    23    1
    23    23    24    1
    24    24    25    1
    25    25    26    1
    26    26    27    2
    27    26    28   am
    28    28    29    1
    29    23    30    1
    30    30    31    2
    31    30    32    1
    32    19    33   ar
    33    33    34   ar
    34    15     4   ar
    35    34    16   ar
    36    14     7   ar
    37     1    35    1
    38     1    36    1
    39     1    37    1
    40     3    38    1
    41     3    39    1
    42     5    40    1
    43    10    41    1
    44    10    42    1
    45    13    43    1
    46    13    44    1
    47    17    45    1
    48    18    46    1
    49    22    47    1
    50    23    48    1
    51    24    49    1
    52    24    50    1
    53    25    51    1
    54    25    52    1
    55    28    53    1
    56    29    54    1
    57    32    55    1
    58    33    56    1
    59    34    57    1
