
     RDKit          3D

 57 59  0  0  0  0  0  0  0  0999 V2000
    2.9560   -2.2343   -0.0188 C   0  0  0  0  0  0  0  0  0  0  0  0
    2.1367   -1.3365   -0.8401 N   0  0  0  0  0  0  0  0  0  0  0  0
    2.7882   -0.4329   -1.7295 C   0  0  0  0  0  0  0  0  0  0  0  0
    3.6552    0.4701   -0.8989 C   0  0  0  0  0  0  0  0  0  0  0  0
    3.1809    1.6581   -0.3873 C   0  0  0  0  0  0  0  0  0  0  0  0
    4.0209    2.4041    0.3436 N   0  0  0  0  0  0  0  0  0  0  0  0
    5.2971    2.0285    0.5873 C   0  0  0  0  0  0  0  0  0  0  0  0
    6.1431    2.7741    1.3201 N   0  0  0  0  0  0  0  0  0  0  0  0
    7.4144    2.4350    1.5830 C   0  0  0  0  0  0  0  0  0  0  0  0
    8.2867    3.2398    2.3593 N   0  0  0  0  0  0  0  0  0  0  0  0
    7.8472    1.2523    1.0595 N   0  0  0  0  0  0  0  0  0  0  0  0
    7.0733    0.4558    0.3235 C   0  0  0  0  0  0  0  0  0  0  0  0
    7.5567   -0.7714   -0.2074 N   0  0  0  0  0  0  0  0  0  0  0  0
    5.7699    0.8266    0.0672 C   0  0  0  0  0  0  0  0  0  0  0  0
    4.9212    0.0787   -0.6679 N   0  0  0  0  0  0  0  0  0  0  0  0
    0.7457   -1.4111   -0.7093 C   0  0  0  0  0  0  0  0  0  0  0  0
    0.1854   -2.3173    0.1731 C   0  0  0  0  0  0  0  0  0  0  0  0
   -1.1689   -2.4373    0.3473 C   0  0  0  0  0  0  0  0  0  0  0  0
   -2.0178   -1.6239   -0.3842 C   0  0  0  0  0  0  0  0  0  0  0  0
   -3.4421   -1.7406   -0.2100 C   0  0  0  0  0  0  0  0  0  0  0  0
   -3.9054   -2.5722    0.5977 O   0  0  0  0  0  0  0  0  0  0  0  0
   -4.3343   -0.9233   -0.9434 N   0  0  0  0  0  0  0  0  0  0  0  0
   -5.7852   -1.0763   -0.7337 C   0  0  1  0  0  0  0  0  0  0  0  0
   -6.2672    0.2681   -0.2265 C   0  0  0  0  0  0  0  0  0  0  0  0
   -5.5273    0.5557    1.0625 C   0  0  0  0  0  0  0  0  0  0  0  0
   -5.9396    1.8667    1.6383 C   0  0  0  0  0  0  0  0  0  0  0  0
   -6.7941    2.5333    1.0280 O   0  0  0  0  0  0  0  0  0  0  0  0
   -5.3513    2.2975    2.8407 N   0  0  0  0  0  0  0  0  0  0  0  0
   -5.7247    3.4869    3.3638 O   0  0  0  0  0  0  0  0  0  0  0  0
   -6.3754   -1.4087   -2.0447 C   0  0  0  0  0  0  0  0  0  0  0  0
   -7.6111   -1.5883   -2.1211 O   0  0  0  0  0  0  0  0  0  0  0  0
   -5.6097   -1.5272   -3.1853 O   0  0  0  0  0  0  0  0  0  0  0  0
   -1.4769   -0.7280   -1.2560 C   0  0  0  0  0  0  0  0  0  0  0  0
   -0.1052   -0.6203   -1.4193 C   0  0  0  0  0  0  0  0  0  0  0  0
    2.6429   -3.2763   -0.2607 H   0  0  0  0  0  0  0  0  0  0  0  0
    4.0199   -2.1274   -0.2658 H   0  0  0  0  0  0  0  0  0  0  0  0
    2.7341   -1.9935    1.0390 H   0  0  0  0  0  0  0  0  0  0  0  0
    2.1717    0.1709   -2.3761 H   0  0  0  0  0  0  0  0  0  0  0  0
    3.4686   -1.0237   -2.4219 H   0  0  0  0  0  0  0  0  0  0  0  0
    2.1556    1.9212   -0.6053 H   0  0  0  0  0  0  0  0  0  0  0  0
    8.1907    4.2732    2.4069 H   0  0  0  0  0  0  0  0  0  0  0  0
    9.0536    2.8009    2.9059 H   0  0  0  0  0  0  0  0  0  0  0  0
    8.4372   -1.2260    0.1614 H   0  0  0  0  0  0  0  0  0  0  0  0
    7.0604   -1.2673   -0.9794 H   0  0  0  0  0  0  0  0  0  0  0  0
    0.8350   -2.9805    0.7714 H   0  0  0  0  0  0  0  0  0  0  0  0
   -1.5626   -3.1707    1.0587 H   0  0  0  0  0  0  0  0  0  0  0  0
   -4.0537   -0.2092   -1.6318 H   0  0  0  0  0  0  0  0  0  0  0  0
   -5.9749   -1.8583    0.0147 H   0  0  0  0  0  0  0  0  0  0  0  0
   -7.3556    0.2910   -0.0403 H   0  0  0  0  0  0  0  0  0  0  0  0
   -6.0150    1.0473   -0.9675 H   0  0  0  0  0  0  0  0  0  0  0  0
   -4.4421    0.5698    0.8550 H   0  0  0  0  0  0  0  0  0  0  0  0
   -5.7211   -0.2572    1.7932 H   0  0  0  0  0  0  0  0  0  0  0  0
   -4.6320    1.7317    3.3503 H   0  0  0  0  0  0  0  0  0  0  0  0
   -5.7153    4.1509    2.6201 H   0  0  0  0  0  0  0  0  0  0  0  0
   -6.0216   -1.5227   -4.1308 H   0  0  0  0  0  0  0  0  0  0  0  0
   -2.0763   -0.0504   -1.8701 H   0  0  0  0  0  0  0  0  0  0  0  0
    0.2581    0.1245   -2.1387 H   0  0  0  0  0  0  0  0  0  0  0  0
  1  2  1  0
  2  3  1  0
  3  4  1  0
  4  5  2  0
  5  6  1  0
  6  7  2  0
  7  8  1  0
  8  9  2  0
  9 10  1  0
  9 11  1  0
 11 12  2  0
 12 13  1  0
 12 14  1  0
 14 15  2  0
  2 16  1  0
 16 17  2  0
 17 18  1  0
 18 19  2  0
 19 20  1  0
 20 21  2  0
 20 22  1  0
 22 23  1  0
 23 24  1  0
 24 25  1  0
 25 26  1  0
 26 27  2  0
 26 28  1  0
 28 29  1  0
 23 30  1  0
 30 31  2  0
 30 32  1  0
 19 33  1  0
 33 34  2  0
 15  4  1  0
 34 16  1  0
 14  7  1  0
  1 35  1  0
  1 36  1  0
  1 37  1  0
  3 38  1  0
  3 39  1  0
  5 40  1  0
 10 41  1  0
 10 42  1  0
 13 43  1  0
 13 44  1  0
 17 45  1  0
 18 46  1  0
 22 47  1  0
 23 48  1  1
 24 49  1  0
 24 50  1  0
 25 51  1  0
 25 52  1  0
 28 53  1  0
 29 54  1  0
 32 55  1  0
 33 56  1  0
 34 57  1  0
M  END
$$$$
