@<TRIPOS>MOLECULE
*****
 55 57 0 0 0
SMALL
GASTEIGER

@<TRIPOS>ATOM
      1 C           1.2714   -3.4095   -2.8504 C.3     1  UNL1       -0.0585
      2 C           0.4337   -2.1328   -2.8221 C.3     1  UNL1       -0.0183
      3 C           0.5712   -1.5332   -4.2277 C.3     1  UNL1       -0.0585
      4 C           1.0559   -1.1855   -1.8773 C.ar    1  UNL1       -0.0056
      5 C           1.9506   -0.2414   -2.3755 C.ar    1  UNL1        0.0334
      6 N           2.5197    0.6289   -1.5466 N.ar    1  UNL1       -0.2545
      7 C           2.2579    0.6352   -0.2001 C.ar    1  UNL1        0.0755
      8 C           2.9512    1.6416    0.5824 C.ar    1  UNL1        0.0369
      9 C           3.8226    2.5280   -0.0380 C.ar    1  UNL1       -0.0314
     10 C           4.5158    3.5038    0.6157 C.ar    1  UNL1        0.0418
     11 CL          5.5998    4.5923   -0.2166 Cl      1  UNL1       -0.0835
     12 C           4.3543    3.6334    1.9754 C.ar    1  UNL1       -0.0406
     13 C           3.5108    2.7892    2.6349 C.ar    1  UNL1       -0.0244
     14 C           2.8087    1.7914    1.9330 C.ar    1  UNL1        0.1326
     15 F           1.9995    1.0087    2.6799 F       1  UNL1       -0.2048
     16 C           1.3794   -0.2942    0.2804 C.ar    1  UNL1       -0.0141
     17 C           0.7491   -1.2361   -0.5429 C.ar    1  UNL1        0.0383
     18 N          -0.1498   -2.1969   -0.0583 N.pl3   1  UNL1       -0.3135
     19 C          -0.5840   -2.3110    1.2771 C.ar    1  UNL1        0.0465
     20 C          -0.2082   -3.4261    2.0442 C.ar    1  UNL1       -0.0217
     21 C          -0.6088   -3.5704    3.3545 C.ar    1  UNL1        0.0293
     22 N          -1.3783   -2.6022    3.8833 N.ar    1  UNL1       -0.2624
     23 C          -1.7660   -1.5215    3.1974 C.ar    1  UNL1        0.0415
     24 C          -1.3642   -1.3636    1.8565 C.ar    1  UNL1        0.0758
     25 C          -1.8614   -0.2482    1.0713 C.2     1  UNL1        0.2474
     26 O          -1.7039   -0.2213   -0.1689 O.2     1  UNL1       -0.2701
     27 N          -2.5500    0.8784    1.6258 N.am    1  UNL1       -0.3088
     28 C          -3.0514    1.9917    0.8486 C.3     1  UNL1        0.0377
     29 C          -4.0824    1.5795   -0.1824 C.3     1  UNL1        0.0679
     30 C          -4.4979    2.7569   -1.0407 C.3     1  UNL1       -0.0375
     31 O          -5.1843    0.9840    0.3811 O.3     1  UNL1       -0.3905
     32 H           2.1783   -3.1781   -3.4538 H       1  UNL1        0.0235
     33 H           0.6494   -4.1815   -3.3269 H       1  UNL1        0.0235
     34 H           1.5761   -3.6624   -1.8227 H       1  UNL1        0.0235
     35 H          -0.6393   -2.3413   -2.6103 H       1  UNL1        0.0344
     36 H           0.3713   -0.4599   -4.2472 H       1  UNL1        0.0235
     37 H           1.6065   -1.7499   -4.5549 H       1  UNL1        0.0235
     38 H          -0.1089   -2.1167   -4.8824 H       1  UNL1        0.0235
     39 H           2.2116   -0.1777   -3.4204 H       1  UNL1        0.0833
     40 H           3.9786    2.4595   -1.1112 H       1  UNL1        0.0639
     41 H           4.9096    4.4097    2.4763 H       1  UNL1        0.0633
     42 H           3.3956    2.9035    3.6978 H       1  UNL1        0.0647
     43 H           1.1427   -0.3329    1.3097 H       1  UNL1        0.0658
     44 H          -0.5680   -2.9301   -0.7097 H       1  UNL1        0.1522
     45 H           0.4036   -4.1695    1.5818 H       1  UNL1        0.0651
     46 H          -0.3499   -4.3970    3.9763 H       1  UNL1        0.0830
     47 H          -2.3792   -0.7934    3.6838 H       1  UNL1        0.0838
     48 H          -2.6859    0.8764    2.6590 H       1  UNL1        0.1491
     49 H          -3.5448    2.7104    1.5195 H       1  UNL1        0.0487
     50 H          -2.2011    2.5303    0.3773 H       1  UNL1        0.0487
     51 H          -3.6061    0.8593   -0.8723 H       1  UNL1        0.0606
     52 H          -5.4992    2.5988   -1.4907 H       1  UNL1        0.0255
     53 H          -3.7759    2.8853   -1.8456 H       1  UNL1        0.0255
     54 H          -4.5874    3.6529   -0.3805 H       1  UNL1        0.0255
     55 H          -5.2383    1.1555    1.3531 H       1  UNL1        0.2098
@<TRIPOS>BOND
     1     1     2    1
     2     2     3    1
     3     2     4    1
     4     4     5   ar
     5     5     6   ar
     6     6     7   ar
     7     7     8    1
     8     8     9   ar
     9     9    10   ar
    10    10    11    1
    11    10    12   ar
    12    12    13   ar
    13    13    14   ar
    14    14    15    1
    15     7    16   ar
    16    16    17   ar
    17    17    18    1
    18    18    19    1
    19    19    20   ar
    20    20    21   ar
    21    21    22   ar
    22    22    23   ar
    23    23    24   ar
    24    24    25    1
    25    25    26    2
    26    25    27   am
    27    27    28    1
    28    28    29    1
    29    29    30    1
    30    29    31    1
    31    17     4   ar
    32    24    19   ar
    33    14     8   ar
    34     1    32    1
    35     1    33    1
    36     1    34    1
    37     2    35    1
    38     3    36    1
    39     3    37    1
    40     3    38    1
    41     5    39    1
    42     9    40    1
    43    12    41    1
    44    13    42    1
    45    16    43    1
    46    18    44    1
    47    20    45    1
    48    21    46    1
    49    23    47    1
    50    27    48    1
    51    28    49    1
    52    28    50    1
    53    29    51    1
    54    30    52    1
    55    30    53    1
    56    30    54    1
    57    31    55    1
