
     RDKit          3D

 55 57  0  0  0  0  0  0  0  0999 V2000
    1.2714   -3.4095   -2.8504 C   0  0  0  0  0  0  0  0  0  0  0  0
    0.4337   -2.1328   -2.8221 C   0  0  0  0  0  0  0  0  0  0  0  0
    0.5712   -1.5332   -4.2277 C   0  0  0  0  0  0  0  0  0  0  0  0
    1.0559   -1.1855   -1.8773 C   0  0  0  0  0  0  0  0  0  0  0  0
    1.9506   -0.2414   -2.3755 C   0  0  0  0  0  0  0  0  0  0  0  0
    2.5197    0.6289   -1.5466 N   0  0  0  0  0  0  0  0  0  0  0  0
    2.2579    0.6352   -0.2001 C   0  0  0  0  0  0  0  0  0  0  0  0
    2.9512    1.6416    0.5824 C   0  0  0  0  0  0  0  0  0  0  0  0
    3.8226    2.5280   -0.0380 C   0  0  0  0  0  0  0  0  0  0  0  0
    4.5158    3.5038    0.6157 C   0  0  0  0  0  0  0  0  0  0  0  0
    5.5998    4.5923   -0.2166 Cl  0  0  0  0  0  0  0  0  0  0  0  0
    4.3543    3.6334    1.9754 C   0  0  0  0  0  0  0  0  0  0  0  0
    3.5108    2.7892    2.6349 C   0  0  0  0  0  0  0  0  0  0  0  0
    2.8087    1.7914    1.9330 C   0  0  0  0  0  0  0  0  0  0  0  0
    1.9995    1.0087    2.6799 F   0  0  0  0  0  0  0  0  0  0  0  0
    1.3794   -0.2942    0.2804 C   0  0  0  0  0  0  0  0  0  0  0  0
    0.7491   -1.2361   -0.5429 C   0  0  0  0  0  0  0  0  0  0  0  0
   -0.1498   -2.1969   -0.0583 N   0  0  0  0  0  0  0  0  0  0  0  0
   -0.5840   -2.3110    1.2771 C   0  0  0  0  0  0  0  0  0  0  0  0
   -0.2082   -3.4261    2.0442 C   0  0  0  0  0  0  0  0  0  0  0  0
   -0.6088   -3.5704    3.3545 C   0  0  0  0  0  0  0  0  0  0  0  0
   -1.3783   -2.6022    3.8833 N   0  0  0  0  0  0  0  0  0  0  0  0
   -1.7660   -1.5215    3.1974 C   0  0  0  0  0  0  0  0  0  0  0  0
   -1.3642   -1.3636    1.8565 C   0  0  0  0  0  0  0  0  0  0  0  0
   -1.8614   -0.2482    1.0713 C   0  0  0  0  0  0  0  0  0  0  0  0
   -1.7039   -0.2213   -0.1689 O   0  0  0  0  0  0  0  0  0  0  0  0
   -2.5500    0.8784    1.6258 N   0  0  0  0  0  0  0  0  0  0  0  0
   -3.0514    1.9917    0.8486 C   0  0  0  0  0  0  0  0  0  0  0  0
   -4.0824    1.5795   -0.1824 C   0  0  2  0  0  0  0  0  0  0  0  0
   -4.4979    2.7569   -1.0407 C   0  0  0  0  0  0  0  0  0  0  0  0
   -5.1843    0.9840    0.3811 O   0  0  0  0  0  0  0  0  0  0  0  0
    2.1783   -3.1781   -3.4538 H   0  0  0  0  0  0  0  0  0  0  0  0
    0.6494   -4.1815   -3.3269 H   0  0  0  0  0  0  0  0  0  0  0  0
    1.5761   -3.6624   -1.8227 H   0  0  0  0  0  0  0  0  0  0  0  0
   -0.6393   -2.3413   -2.6103 H   0  0  0  0  0  0  0  0  0  0  0  0
    0.3713   -0.4599   -4.2472 H   0  0  0  0  0  0  0  0  0  0  0  0
    1.6065   -1.7499   -4.5549 H   0  0  0  0  0  0  0  0  0  0  0  0
   -0.1089   -2.1167   -4.8824 H   0  0  0  0  0  0  0  0  0  0  0  0
    2.2116   -0.1777   -3.4204 H   0  0  0  0  0  0  0  0  0  0  0  0
    3.9786    2.4595   -1.1112 H   0  0  0  0  0  0  0  0  0  0  0  0
    4.9096    4.4097    2.4763 H   0  0  0  0  0  0  0  0  0  0  0  0
    3.3956    2.9035    3.6978 H   0  0  0  0  0  0  0  0  0  0  0  0
    1.1427   -0.3329    1.3097 H   0  0  0  0  0  0  0  0  0  0  0  0
   -0.5680   -2.9301   -0.7097 H   0  0  0  0  0  0  0  0  0  0  0  0
    0.4036   -4.1695    1.5818 H   0  0  0  0  0  0  0  0  0  0  0  0
   -0.3499   -4.3970    3.9763 H   0  0  0  0  0  0  0  0  0  0  0  0
   -2.3792   -0.7934    3.6838 H   0  0  0  0  0  0  0  0  0  0  0  0
   -2.6859    0.8764    2.6590 H   0  0  0  0  0  0  0  0  0  0  0  0
   -3.5448    2.7104    1.5195 H   0  0  0  0  0  0  0  0  0  0  0  0
   -2.2011    2.5303    0.3773 H   0  0  0  0  0  0  0  0  0  0  0  0
   -3.6061    0.8593   -0.8723 H   0  0  0  0  0  0  0  0  0  0  0  0
   -5.4992    2.5988   -1.4907 H   0  0  0  0  0  0  0  0  0  0  0  0
   -3.7759    2.8853   -1.8456 H   0  0  0  0  0  0  0  0  0  0  0  0
   -4.5874    3.6529   -0.3805 H   0  0  0  0  0  0  0  0  0  0  0  0
   -5.2383    1.1555    1.3531 H   0  0  0  0  0  0  0  0  0  0  0  0
  1  2  1  0
  2  3  1  0
  2  4  1  0
  4  5  2  0
  5  6  1  0
  6  7  2  0
  7  8  1  0
  8  9  2  0
  9 10  1  0
 10 11  1  0
 10 12  2  0
 12 13  1  0
 13 14  2  0
 14 15  1  0
  7 16  1  0
 16 17  2  0
 17 18  1  0
 18 19  1  0
 19 20  2  0
 20 21  1  0
 21 22  2  0
 22 23  1  0
 23 24  2  0
 24 25  1  0
 25 26  2  0
 25 27  1  0
 27 28  1  0
 28 29  1  0
 29 30  1  0
 29 31  1  0
 17  4  1  0
 24 19  1  0
 14  8  1  0
  1 32  1  0
  1 33  1  0
  1 34  1  0
  2 35  1  0
  3 36  1  0
  3 37  1  0
  3 38  1  0
  5 39  1  0
  9 40  1  0
 12 41  1  0
 13 42  1  0
 16 43  1  0
 18 44  1  0
 20 45  1  0
 21 46  1  0
 23 47  1  0
 27 48  1  0
 28 49  1  0
 28 50  1  0
 29 51  1  6
 30 52  1  0
 30 53  1  0
 30 54  1  0
 31 55  1  0
M  END
$$$$
