
     RDKit          3D

 57 59  0  0  0  0  0  0  0  0999 V2000
   -5.0346    0.7236   -2.7772 C   0  0  0  0  0  0  0  0  0  0  0  0
   -4.9221    1.8573   -1.7929 C   0  0  0  0  0  0  0  0  0  0  0  0
   -4.6130    1.3928   -0.3910 C   0  0  2  0  0  0  0  0  0  0  0  0
   -5.7196    0.4915    0.0468 C   0  0  0  0  0  0  0  0  0  0  0  0
   -5.4797   -0.7135    0.3520 O   0  0  0  0  0  0  0  0  0  0  0  0
   -7.0035    0.9871    0.1143 O   0  0  0  0  0  0  0  0  0  0  0  0
   -4.5052    2.5935    0.4871 C   0  0  0  0  0  0  0  0  0  0  0  0
   -3.9324    2.3445    1.8369 C   0  0  0  0  0  0  0  0  0  0  0  0
   -3.0501    1.1560    1.8991 C   0  0  0  0  0  0  0  0  0  0  0  0
   -2.4546    0.8267    3.0929 C   0  0  0  0  0  0  0  0  0  0  0  0
   -1.6325   -0.2558    3.2123 C   0  0  0  0  0  0  0  0  0  0  0  0
   -1.3355   -1.1146    2.1176 C   0  0  0  0  0  0  0  0  0  0  0  0
   -0.5293   -2.1585    2.3010 O   0  0  0  0  0  0  0  0  0  0  0  0
    0.0695   -3.1812    1.7070 C   0  0  0  0  0  0  0  0  0  0  0  0
    1.1483   -3.0124    0.6894 C   0  0  0  0  0  0  0  0  0  0  0  0
    0.7739   -2.2494   -0.5225 C   0  0  0  0  0  0  0  0  0  0  0  0
    1.8507   -2.1542   -1.4012 O   0  0  0  0  0  0  0  0  0  0  0  0
    2.9804   -1.4155   -1.1159 C   0  0  0  0  0  0  0  0  0  0  0  0
    3.1733   -0.6524    0.0085 C   0  0  0  0  0  0  0  0  0  0  0  0
    4.3539    0.0707    0.2136 C   0  0  0  0  0  0  0  0  0  0  0  0
    5.3865    0.0626   -0.6947 C   0  0  0  0  0  0  0  0  0  0  0  0
    6.5426    0.7906   -0.4601 O   0  0  0  0  0  0  0  0  0  0  0  0
    7.5607    0.7308   -1.4428 C   0  0  0  0  0  0  0  0  0  0  0  0
    8.7405    1.5826   -1.0194 C   0  0  0  0  0  0  0  0  0  0  0  0
    8.2607    2.8787   -0.8869 F   0  0  0  0  0  0  0  0  0  0  0  0
    9.7049    1.5573   -1.9849 F   0  0  0  0  0  0  0  0  0  0  0  0
    9.2479    1.1307    0.1639 F   0  0  0  0  0  0  0  0  0  0  0  0
    5.1833   -0.7051   -1.8220 C   0  0  0  0  0  0  0  0  0  0  0  0
    4.0418   -1.4198   -2.0447 C   0  0  0  0  0  0  0  0  0  0  0  0
    3.8116   -2.3846   -3.4828 Cl  0  0  0  0  0  0  0  0  0  0  0  0
   -1.9526   -0.7513    0.9382 C   0  0  0  0  0  0  0  0  0  0  0  0
   -2.7875    0.3512    0.8223 C   0  0  0  0  0  0  0  0  0  0  0  0
   -3.3844    0.6762   -0.3866 O   0  0  0  0  0  0  0  0  0  0  0  0
   -5.5169   -0.1603   -2.3506 H   0  0  0  0  0  0  0  0  0  0  0  0
   -4.0428    0.4738   -3.2028 H   0  0  0  0  0  0  0  0  0  0  0  0
   -5.6828    1.0777   -3.6091 H   0  0  0  0  0  0  0  0  0  0  0  0
   -4.0755    2.5172   -2.1010 H   0  0  0  0  0  0  0  0  0  0  0  0
   -5.8481    2.4360   -1.7930 H   0  0  0  0  0  0  0  0  0  0  0  0
   -7.7530    0.3923    0.4795 H   0  0  0  0  0  0  0  0  0  0  0  0
   -5.5482    3.0103    0.6000 H   0  0  0  0  0  0  0  0  0  0  0  0
   -3.9446    3.3811   -0.0755 H   0  0  0  0  0  0  0  0  0  0  0  0
   -4.7439    2.2530    2.5935 H   0  0  0  0  0  0  0  0  0  0  0  0
   -3.3733    3.2795    2.1366 H   0  0  0  0  0  0  0  0  0  0  0  0
   -2.6717    1.4812    3.9580 H   0  0  0  0  0  0  0  0  0  0  0  0
   -1.1605   -0.5233    4.1427 H   0  0  0  0  0  0  0  0  0  0  0  0
   -0.7103   -3.8449    1.1455 H   0  0  0  0  0  0  0  0  0  0  0  0
    0.4518   -3.9579    2.4592 H   0  0  0  0  0  0  0  0  0  0  0  0
    2.0531   -2.6499    1.1964 H   0  0  0  0  0  0  0  0  0  0  0  0
    1.4335   -4.0797    0.2974 H   0  0  0  0  0  0  0  0  0  0  0  0
    0.5765   -1.1912   -0.1966 H   0  0  0  0  0  0  0  0  0  0  0  0
   -0.1026   -2.6675   -1.0628 H   0  0  0  0  0  0  0  0  0  0  0  0
    2.3783   -0.5736    0.7401 H   0  0  0  0  0  0  0  0  0  0  0  0
    4.4595    0.6649    1.1308 H   0  0  0  0  0  0  0  0  0  0  0  0
    7.1773    1.0622   -2.4248 H   0  0  0  0  0  0  0  0  0  0  0  0
    7.9357   -0.3134   -1.5241 H   0  0  0  0  0  0  0  0  0  0  0  0
    5.9980   -0.7151   -2.5463 H   0  0  0  0  0  0  0  0  0  0  0  0
   -1.7836   -1.3887    0.0549 H   0  0  0  0  0  0  0  0  0  0  0  0
  1  2  1  0
  3  2  1  6
  3  4  1  0
  4  5  2  0
  4  6  1  0
  3  7  1  0
  7  8  1  0
  8  9  1  0
  9 10  2  0
 10 11  1  0
 11 12  2  0
 12 13  1  0
 13 14  1  0
 14 15  1  0
 15 16  1  0
 16 17  1  0
 17 18  1  0
 18 19  2  0
 19 20  1  0
 20 21  2  0
 21 22  1  0
 22 23  1  0
 23 24  1  0
 24 25  1  0
 24 26  1  0
 24 27  1  0
 21 28  1  0
 28 29  2  0
 29 30  1  0
 12 31  1  0
 31 32  2  0
 32 33  1  0
 33  3  1  0
 32  9  1  0
 29 18  1  0
  1 34  1  0
  1 35  1  0
  1 36  1  0
  2 37  1  0
  2 38  1  0
  6 39  1  0
  7 40  1  0
  7 41  1  0
  8 42  1  0
  8 43  1  0
 10 44  1  0
 11 45  1  0
 14 46  1  0
 14 47  1  0
 15 48  1  0
 15 49  1  0
 16 50  1  0
 16 51  1  0
 19 52  1  0
 20 53  1  0
 23 54  1  0
 23 55  1  0
 28 56  1  0
 31 57  1  0
M  END
$$$$
