@<TRIPOS>MOLECULE
*****
 57 59 0 0 0
SMALL
GASTEIGER

@<TRIPOS>ATOM
      1 C          -5.0346    0.7236   -2.7772 C.3     1  UNL1       -0.0611
      2 C          -4.9221    1.8573   -1.7929 C.3     1  UNL1       -0.0051
      3 C          -4.6130    1.3928   -0.3910 C.3     1  UNL1        0.2059
      4 C          -5.7196    0.4915    0.0468 C.2     1  UNL1        0.3490
      5 O          -5.4797   -0.7135    0.3520 O.2     1  UNL1       -0.2465
      6 O          -7.0035    0.9871    0.1143 O.3     1  UNL1       -0.4778
      7 C          -4.5052    2.5935    0.4871 C.3     1  UNL1        0.0018
      8 C          -3.9324    2.3445    1.8369 C.3     1  UNL1       -0.0201
      9 C          -3.0501    1.1560    1.8991 C.ar    1  UNL1       -0.0053
     10 C          -2.4546    0.8267    3.0929 C.ar    1  UNL1       -0.0517
     11 C          -1.6325   -0.2558    3.2123 C.ar    1  UNL1       -0.0195
     12 C          -1.3355   -1.1146    2.1176 C.ar    1  UNL1        0.1240
     13 O          -0.5293   -2.1585    2.3010 O.3     1  UNL1       -0.4917
     14 C           0.0695   -3.1812    1.7070 C.3     1  UNL1        0.0927
     15 C           1.1483   -3.0124    0.6894 C.3     1  UNL1        0.0157
     16 C           0.7739   -2.2494   -0.5225 C.3     1  UNL1        0.0927
     17 O           1.8507   -2.1542   -1.4012 O.3     1  UNL1       -0.4904
     18 C           2.9804   -1.4155   -1.1159 C.ar    1  UNL1        0.1390
     19 C           3.1733   -0.6524    0.0085 C.ar    1  UNL1       -0.0150
     20 C           4.3539    0.0707    0.2136 C.ar    1  UNL1       -0.0164
     21 C           5.3865    0.0626   -0.6947 C.ar    1  UNL1        0.1225
     22 O           6.5426    0.7906   -0.4601 O.3     1  UNL1       -0.4830
     23 C           7.5607    0.7308   -1.4428 C.3     1  UNL1        0.1842
     24 C           8.7405    1.5826   -1.0194 C.3     1  UNL1        0.4236
     25 F           8.2607    2.8787   -0.8869 F       1  UNL1       -0.1671
     26 F           9.7049    1.5573   -1.9849 F       1  UNL1       -0.1671
     27 F           9.2479    1.1307    0.1639 F       1  UNL1       -0.1671
     28 C           5.1833   -0.7051   -1.8220 C.ar    1  UNL1        0.0019
     29 C           4.0418   -1.4198   -2.0447 C.ar    1  UNL1        0.0860
     30 CL          3.8116   -2.3846   -3.4828 Cl      1  UNL1       -0.0796
     31 C          -1.9526   -0.7513    0.9382 C.ar    1  UNL1        0.0221
     32 C          -2.7875    0.3512    0.8223 C.ar    1  UNL1        0.1287
     33 O          -3.3844    0.6762   -0.3866 O.3     1  UNL1       -0.4741
     34 H          -5.5169   -0.1603   -2.3506 H       1  UNL1        0.0231
     35 H          -4.0428    0.4738   -3.2028 H       1  UNL1        0.0231
     36 H          -5.6828    1.0777   -3.6091 H       1  UNL1        0.0231
     37 H          -4.0755    2.5172   -2.1010 H       1  UNL1        0.0307
     38 H          -5.8481    2.4360   -1.7930 H       1  UNL1        0.0307
     39 H          -7.7530    0.3923    0.4795 H       1  UNL1        0.2952
     40 H          -5.5482    3.0103    0.6000 H       1  UNL1        0.0312
     41 H          -3.9446    3.3811   -0.0755 H       1  UNL1        0.0312
     42 H          -4.7439    2.2530    2.5935 H       1  UNL1        0.0316
     43 H          -3.3733    3.2795    2.1366 H       1  UNL1        0.0316
     44 H          -2.6717    1.4812    3.9580 H       1  UNL1        0.0623
     45 H          -1.1605   -0.5233    4.1427 H       1  UNL1        0.0654
     46 H          -0.7103   -3.8449    1.1455 H       1  UNL1        0.0697
     47 H           0.4518   -3.9579    2.4592 H       1  UNL1        0.0697
     48 H           2.0531   -2.6499    1.1964 H       1  UNL1        0.0331
     49 H           1.4335   -4.0797    0.2974 H       1  UNL1        0.0331
     50 H           0.5765   -1.1912   -0.1966 H       1  UNL1        0.0697
     51 H          -0.1026   -2.6675   -1.0628 H       1  UNL1        0.0697
     52 H           2.3783   -0.5736    0.7401 H       1  UNL1        0.0656
     53 H           4.4595    0.6649    1.1308 H       1  UNL1        0.0655
     54 H           7.1773    1.0622   -2.4248 H       1  UNL1        0.0788
     55 H           7.9357   -0.3134   -1.5241 H       1  UNL1        0.0788
     56 H           5.9980   -0.7151   -2.5463 H       1  UNL1        0.0670
     57 H          -1.7836   -1.3887    0.0549 H       1  UNL1        0.0691
@<TRIPOS>BOND
     1     1     2    1
     2     3     2    1
     3     3     4    1
     4     4     5    2
     5     4     6    1
     6     3     7    1
     7     7     8    1
     8     8     9    1
     9     9    10   ar
    10    10    11   ar
    11    11    12   ar
    12    12    13    1
    13    13    14    1
    14    14    15    1
    15    15    16    1
    16    16    17    1
    17    17    18    1
    18    18    19   ar
    19    19    20   ar
    20    20    21   ar
    21    21    22    1
    22    22    23    1
    23    23    24    1
    24    24    25    1
    25    24    26    1
    26    24    27    1
    27    21    28   ar
    28    28    29   ar
    29    29    30    1
    30    12    31   ar
    31    31    32   ar
    32    32    33    1
    33    33     3    1
    34    32     9   ar
    35    29    18   ar
    36     1    34    1
    37     1    35    1
    38     1    36    1
    39     2    37    1
    40     2    38    1
    41     6    39    1
    42     7    40    1
    43     7    41    1
    44     8    42    1
    45     8    43    1
    46    10    44    1
    47    11    45    1
    48    14    46    1
    49    14    47    1
    50    15    48    1
    51    15    49    1
    52    16    50    1
    53    16    51    1
    54    19    52    1
    55    20    53    1
    56    23    54    1
    57    23    55    1
    58    28    56    1
    59    31    57    1
