@<TRIPOS>MOLECULE
*****
 55 57 0 0 0
SMALL
GASTEIGER

@<TRIPOS>ATOM
      1 C          -6.2358   -1.7957    1.8391 C.3     1  UNL1        0.0788
      2 O          -6.0258   -0.5625    1.2014 O.3     1  UNL1       -0.4951
      3 C          -4.8335   -0.1902    0.5754 C.ar    1  UNL1        0.1201
      4 C          -3.6620   -0.9235    0.4587 C.ar    1  UNL1       -0.0197
      5 C          -2.6022   -0.3520   -0.2079 C.ar    1  UNL1       -0.0539
      6 C          -2.6505    0.9090   -0.7621 C.ar    1  UNL1       -0.0299
      7 C          -3.8270    1.6169   -0.6316 C.ar    1  UNL1       -0.0539
      8 C          -4.9083    1.0921    0.0220 C.ar    1  UNL1       -0.0197
      9 C          -1.4115    1.4010   -1.4646 C.3     1  UNL1        0.0805
     10 S          -1.1318    0.3225   -2.8354 S.3     1  UNL1       -0.1111
     11 C           0.2033   -0.8123   -2.6898 C.ar    1  UNL1        0.0300
     12 C           1.0565   -1.0922   -1.6439 C.ar    1  UNL1        0.0498
     13 C           2.0060   -2.0596   -1.8875 C.ar    1  UNL1       -0.0392
     14 C           2.1435   -2.7413   -3.0850 C.ar    1  UNL1       -0.0599
     15 C           1.2809   -2.4487   -4.1211 C.ar    1  UNL1       -0.0606
     16 C           0.3183   -1.4788   -3.8977 C.ar    1  UNL1       -0.0465
     17 N           1.1305   -0.5438   -0.3210 N.am    1  UNL1       -0.2661
     18 C           2.0904   -1.1445    0.5856 C.3     1  UNL1        0.0327
     19 C           3.4530   -0.5075    0.5436 C.3     1  UNL1        0.0145
     20 N           4.4282   -1.0607    1.4073 N.3     1  UNL1       -0.3068
     21 C           4.2302   -0.8720    2.8046 C.3     1  UNL1       -0.0130
     22 C           5.7650   -1.1253    0.9422 C.3     1  UNL1       -0.0130
     23 C           0.3189    0.5575    0.1567 C.2     1  UNL1        0.2622
     24 O           0.1605    0.4554    1.4273 O.2     1  UNL1       -0.2711
     25 C          -0.3041    1.6880   -0.5326 C.3     1  UNL1        0.1947
     26 O          -0.8193    2.5505    0.4832 O.3     1  UNL1       -0.4506
     27 C          -0.3894    3.8383    0.6550 C.2     1  UNL1        0.3047
     28 C          -0.8952    4.7712    1.6971 C.3     1  UNL1        0.0333
     29 O           0.5108    4.2940   -0.1232 O.2     1  UNL1       -0.2511
     30 H          -6.6841   -2.5552    1.1375 H       1  UNL1        0.0660
     31 H          -5.3062   -2.2722    2.2231 H       1  UNL1        0.0660
     32 H          -6.9154   -1.6904    2.7005 H       1  UNL1        0.0660
     33 H          -3.7110   -1.8946    0.9182 H       1  UNL1        0.0654
     34 H          -1.7082   -0.9452   -0.2825 H       1  UNL1        0.0622
     35 H          -3.8441    2.6180   -1.0797 H       1  UNL1        0.0622
     36 H          -5.7837    1.7436    0.0623 H       1  UNL1        0.0654
     37 H          -1.7519    2.3950   -1.8884 H       1  UNL1        0.0506
     38 H           2.7150   -2.3396   -1.1248 H       1  UNL1        0.0636
     39 H           2.9158   -3.4970   -3.2181 H       1  UNL1        0.0618
     40 H           1.3757   -2.9700   -5.0559 H       1  UNL1        0.0618
     41 H          -0.3303   -1.2865   -4.7411 H       1  UNL1        0.0629
     42 H           1.6838   -0.8073    1.6014 H       1  UNL1        0.0481
     43 H           2.0448   -2.2194    0.7008 H       1  UNL1        0.0481
     44 H           3.3531    0.5747    0.8758 H       1  UNL1        0.0442
     45 H           3.8818   -0.3947   -0.4711 H       1  UNL1        0.0442
     46 H           3.9087   -1.7504    3.3616 H       1  UNL1        0.0391
     47 H           3.5750    0.0336    2.9584 H       1  UNL1        0.0391
     48 H           5.2167   -0.5563    3.2224 H       1  UNL1        0.0391
     49 H           5.9828   -0.2074    0.3415 H       1  UNL1        0.0391
     50 H           5.9922   -2.0510    0.3700 H       1  UNL1        0.0391
     51 H           6.4518   -1.0441    1.8259 H       1  UNL1        0.0391
     52 H           0.4537    2.3413   -1.0566 H       1  UNL1        0.0848
     53 H          -1.9456    4.5788    1.9914 H       1  UNL1        0.0342
     54 H          -0.7004    5.8215    1.4215 H       1  UNL1        0.0342
     55 H          -0.2692    4.5890    2.6106 H       1  UNL1        0.0342
@<TRIPOS>BOND
     1     1     2    1
     2     2     3    1
     3     3     4   ar
     4     4     5   ar
     5     5     6   ar
     6     6     7   ar
     7     7     8   ar
     8     6     9    1
     9     9    10    1
    10    10    11    1
    11    11    12   ar
    12    12    13   ar
    13    13    14   ar
    14    14    15   ar
    15    15    16   ar
    16    12    17    1
    17    17    18    1
    18    18    19    1
    19    19    20    1
    20    20    21    1
    21    20    22    1
    22    17    23   am
    23    23    24    2
    24    23    25    1
    25    25    26    1
    26    26    27    1
    27    27    28    1
    28    27    29    2
    29     8     3   ar
    30    25     9    1
    31    16    11   ar
    32     1    30    1
    33     1    31    1
    34     1    32    1
    35     4    33    1
    36     5    34    1
    37     7    35    1
    38     8    36    1
    39     9    37    1
    40    13    38    1
    41    14    39    1
    42    15    40    1
    43    16    41    1
    44    18    42    1
    45    18    43    1
    46    19    44    1
    47    19    45    1
    48    21    46    1
    49    21    47    1
    50    21    48    1
    51    22    49    1
    52    22    50    1
    53    22    51    1
    54    25    52    1
    55    28    53    1
    56    28    54    1
    57    28    55    1
