
     RDKit          3D

 64 66  0  0  0  0  0  0  0  0999 V2000
   -4.5020   -1.2596    1.9458 C   0  0  0  0  0  0  0  0  0  0  0  0
   -3.5509   -0.0971    1.6018 C   0  0  0  0  0  0  0  0  0  0  0  0
   -2.9686   -0.3654    0.3042 N   0  0  0  0  0  0  0  0  0  0  0  0
   -1.7968   -1.1468    0.1992 C   0  0  0  0  0  0  0  0  0  0  0  0
   -0.4795   -0.4249    0.0049 C   0  0  0  0  0  0  0  0  0  0  0  0
   -0.5845    0.2743   -1.2359 O   0  0  0  0  0  0  0  0  0  0  0  0
    0.5249   -1.5161   -0.1719 C   0  0  0  0  0  0  0  0  0  0  0  0
    1.8655   -1.2564   -0.4688 N   0  0  0  0  0  0  0  0  0  0  0  0
    2.8758   -0.7080    0.3607 C   0  0  0  0  0  0  0  0  0  0  0  0
    2.6327   -0.4111    1.5529 O   0  0  0  0  0  0  0  0  0  0  0  0
    4.2355   -0.4666   -0.1345 C   0  0  0  0  0  0  0  0  0  0  0  0
    4.6908   -0.7229   -1.4012 C   0  0  0  0  0  0  0  0  0  0  0  0
    5.9814   -0.3532   -1.4134 N   0  0  0  0  0  0  0  0  0  0  0  0
    6.3800    0.1171   -0.2551 N   0  0  0  0  0  0  0  0  0  0  0  0
    7.6968    0.5792    0.0095 C   0  0  0  0  0  0  0  0  0  0  0  0
    7.9788    1.5645    0.9370 C   0  0  0  0  0  0  0  0  0  0  0  0
    9.2682    1.9924    1.1720 C   0  0  0  0  0  0  0  0  0  0  0  0
   10.3339    1.4527    0.4886 C   0  0  0  0  0  0  0  0  0  0  0  0
   11.6139    1.8606    0.7055 F   0  0  0  0  0  0  0  0  0  0  0  0
   10.0720    0.4672   -0.4418 C   0  0  0  0  0  0  0  0  0  0  0  0
    8.7791    0.0448   -0.6710 C   0  0  0  0  0  0  0  0  0  0  0  0
    5.3007    0.0571    0.5685 C   0  0  0  0  0  0  0  0  0  0  0  0
    5.3419    0.4824    1.9185 N   0  0  0  0  0  0  0  0  0  0  0  0
   -0.2822    0.5943    1.0509 C   0  0  0  0  0  0  0  0  0  0  0  0
   -0.2291    0.0828    2.3038 F   0  0  0  0  0  0  0  0  0  0  0  0
   -1.4073    1.5036    0.9832 F   0  0  0  0  0  0  0  0  0  0  0  0
    0.7741    1.4688    0.8298 F   0  0  0  0  0  0  0  0  0  0  0  0
   -3.6401    0.1098   -0.8878 C   0  0  0  0  0  0  0  0  0  0  0  0
   -3.0762   -0.1172   -1.9818 O   0  0  0  0  0  0  0  0  0  0  0  0
   -4.9038    0.8164   -0.7610 C   0  0  0  0  0  0  0  0  0  0  0  0
   -4.9279    2.1544   -0.3292 C   0  0  0  0  0  0  0  0  0  0  0  0
   -6.1535    2.7531   -0.1564 C   0  0  0  0  0  0  0  0  0  0  0  0
   -7.3478    2.1058   -0.3857 C   0  0  0  0  0  0  0  0  0  0  0  0
   -7.2891    0.7985   -0.8085 C   0  0  0  0  0  0  0  0  0  0  0  0
   -6.0719    0.1296   -1.0054 C   0  0  0  0  0  0  0  0  0  0  0  0
   -6.0391   -1.4878   -1.6224 S   0  0  0  0  0  6  0  0  0  0  0  0
   -7.7381   -2.0502   -1.7878 C   0  0  0  0  0  0  0  0  0  0  0  0
   -5.3140   -2.4814   -0.8230 O   0  0  0  0  0  0  0  0  0  0  0  0
   -5.4736   -1.5300   -3.0296 O   0  0  0  0  0  0  0  0  0  0  0  0
   -5.5023   -1.0253    1.5793 H   0  0  0  0  0  0  0  0  0  0  0  0
   -4.0385   -2.1761    1.5860 H   0  0  0  0  0  0  0  0  0  0  0  0
   -4.5755   -1.3052    3.0725 H   0  0  0  0  0  0  0  0  0  0  0  0
   -2.8535    0.0065    2.4298 H   0  0  0  0  0  0  0  0  0  0  0  0
   -4.1917    0.8067    1.5972 H   0  0  0  0  0  0  0  0  0  0  0  0
   -1.9210   -1.8260   -0.6942 H   0  0  0  0  0  0  0  0  0  0  0  0
   -1.6334   -1.8472    1.0458 H   0  0  0  0  0  0  0  0  0  0  0  0
   -0.8493    1.2143   -1.0715 H   0  0  0  0  0  0  0  0  0  0  0  0
    0.4298   -2.2531    0.6980 H   0  0  0  0  0  0  0  0  0  0  0  0
    0.1094   -2.1509   -1.0283 H   0  0  0  0  0  0  0  0  0  0  0  0
    2.2440   -1.4862   -1.4625 H   0  0  0  0  0  0  0  0  0  0  0  0
    4.1764   -1.1338   -2.2566 H   0  0  0  0  0  0  0  0  0  0  0  0
    7.1270    1.9936    1.4808 H   0  0  0  0  0  0  0  0  0  0  0  0
    9.4691    2.7638    1.9010 H   0  0  0  0  0  0  0  0  0  0  0  0
   10.9186    0.0383   -0.9849 H   0  0  0  0  0  0  0  0  0  0  0  0
    8.6267   -0.7297   -1.4100 H   0  0  0  0  0  0  0  0  0  0  0  0
    4.9253    1.3741    2.2408 H   0  0  0  0  0  0  0  0  0  0  0  0
    5.8098   -0.1266    2.6130 H   0  0  0  0  0  0  0  0  0  0  0  0
   -3.9907    2.6615   -0.1495 H   0  0  0  0  0  0  0  0  0  0  0  0
   -6.2205    3.7873    0.1765 H   0  0  0  0  0  0  0  0  0  0  0  0
   -8.3106    2.5959   -0.2426 H   0  0  0  0  0  0  0  0  0  0  0  0
   -8.2003    0.2340   -1.0064 H   0  0  0  0  0  0  0  0  0  0  0  0
   -8.2845   -1.7996   -0.8663 H   0  0  0  0  0  0  0  0  0  0  0  0
   -7.6828   -3.1310   -2.0042 H   0  0  0  0  0  0  0  0  0  0  0  0
   -8.1515   -1.5001   -2.6582 H   0  0  0  0  0  0  0  0  0  0  0  0
  1  2  1  0
  2  3  1  0
  3  4  1  0
  4  5  1  0
  5  6  1  0
  5  7  1  0
  7  8  1  0
  8  9  1  0
  9 10  2  0
  9 11  1  0
 11 12  1  0
 12 13  2  0
 13 14  1  0
 14 15  1  0
 15 16  2  0
 16 17  1  0
 17 18  2  0
 18 19  1  0
 18 20  1  0
 20 21  2  0
 14 22  1  0
 22 23  1  0
  5 24  1  0
 24 25  1  0
 24 26  1  0
 24 27  1  0
  3 28  1  0
 28 29  2  0
 28 30  1  0
 30 31  2  0
 31 32  1  0
 32 33  2  0
 33 34  1  0
 34 35  2  0
 35 36  1  0
 36 37  1  0
 36 38  2  0
 36 39  2  0
 22 11  2  0
 35 30  1  0
 21 15  1  0
  1 40  1  0
  1 41  1  0
  1 42  1  0
  2 43  1  0
  2 44  1  0
  4 45  1  0
  4 46  1  0
  6 47  1  0
  7 48  1  0
  7 49  1  0
  8 50  1  0
 12 51  1  0
 16 52  1  0
 17 53  1  0
 20 54  1  0
 21 55  1  0
 23 56  1  0
 23 57  1  0
 31 58  1  0
 32 59  1  0
 33 60  1  0
 34 61  1  0
 37 62  1  0
 37 63  1  0
 37 64  1  0
M  END
$$$$
