@<TRIPOS>MOLECULE
*****
 64 66 0 0 0
SMALL
GASTEIGER

@<TRIPOS>ATOM
      1 C          -4.5020   -1.2596    1.9458 C.3     1  UNL1       -0.0493
      2 C          -3.5509   -0.0971    1.6018 C.3     1  UNL1        0.0123
      3 N          -2.9686   -0.3654    0.3042 N.am    1  UNL1       -0.2946
      4 C          -1.7968   -1.1468    0.1992 C.3     1  UNL1        0.0539
      5 C          -0.4795   -0.4249    0.0049 C.3     1  UNL1        0.1917
      6 O          -0.5845    0.2743   -1.2359 O.3     1  UNL1       -0.3774
      7 C           0.5249   -1.5161   -0.1719 C.3     1  UNL1        0.0508
      8 N           1.8655   -1.2564   -0.4688 N.am    1  UNL1       -0.3081
      9 C           2.8758   -0.7080    0.3607 C.2     1  UNL1        0.2490
     10 O           2.6327   -0.4111    1.5529 O.2     1  UNL1       -0.2700
     11 C           4.2355   -0.4666   -0.1345 C.ar    1  UNL1        0.0958
     12 C           4.6908   -0.7229   -1.4012 C.ar    1  UNL1        0.0638
     13 N           5.9814   -0.3532   -1.4134 N.ar    1  UNL1       -0.1723
     14 N           6.3800    0.1171   -0.2551 N.ar    1  UNL1       -0.2182
     15 C           7.6968    0.5792    0.0095 C.ar    1  UNL1        0.0676
     16 C           7.9788    1.5645    0.9370 C.ar    1  UNL1       -0.0335
     17 C           9.2682    1.9924    1.1720 C.ar    1  UNL1       -0.0244
     18 C          10.3339    1.4527    0.4886 C.ar    1  UNL1        0.1235
     19 F          11.6139    1.8606    0.7055 F       1  UNL1       -0.2055
     20 C          10.0720    0.4672   -0.4418 C.ar    1  UNL1       -0.0244
     21 C           8.7791    0.0448   -0.6710 C.ar    1  UNL1       -0.0335
     22 C           5.3007    0.0571    0.5685 C.ar    1  UNL1        0.1320
     23 N           5.3419    0.4824    1.9185 N.pl3   1  UNL1       -0.3424
     24 C          -0.2822    0.5943    1.0509 C.3     1  UNL1        0.4212
     25 F          -0.2291    0.0828    2.3038 F       1  UNL1       -0.1675
     26 F          -1.4073    1.5036    0.9832 F       1  UNL1       -0.1675
     27 F           0.7741    1.4688    0.8298 F       1  UNL1       -0.1675
     28 C          -3.6401    0.1098   -0.8878 C.2     1  UNL1        0.2485
     29 O          -3.0762   -0.1172   -1.9818 O.2     1  UNL1       -0.2699
     30 C          -4.9038    0.8164   -0.7610 C.ar    1  UNL1        0.0616
     31 C          -4.9279    2.1544   -0.3292 C.ar    1  UNL1       -0.0478
     32 C          -6.1535    2.7531   -0.1564 C.ar    1  UNL1       -0.0609
     33 C          -7.3478    2.1058   -0.3857 C.ar    1  UNL1       -0.0599
     34 C          -7.2891    0.7985   -0.8085 C.ar    1  UNL1       -0.0361
     35 C          -6.0719    0.1296   -1.0054 C.ar    1  UNL1        0.0999
     36 S          -6.0391   -1.4878   -1.6224 S.O2    1  UNL1       -0.0052
     37 C          -7.7381   -2.0502   -1.7878 C.3     1  UNL1        0.0596
     38 O          -5.3140   -2.4814   -0.8230 O.2     1  UNL1       -0.1696
     39 O          -5.4736   -1.5300   -3.0296 O.2     1  UNL1       -0.1696
     40 H          -5.5023   -1.0253    1.5793 H       1  UNL1        0.0245
     41 H          -4.0385   -2.1761    1.5860 H       1  UNL1        0.0245
     42 H          -4.5755   -1.3052    3.0725 H       1  UNL1        0.0245
     43 H          -2.8535    0.0065    2.4298 H       1  UNL1        0.0462
     44 H          -4.1917    0.8067    1.5972 H       1  UNL1        0.0462
     45 H          -1.9210   -1.8260   -0.6942 H       1  UNL1        0.0496
     46 H          -1.6334   -1.8472    1.0458 H       1  UNL1        0.0496
     47 H          -0.8493    1.2143   -1.0715 H       1  UNL1        0.2106
     48 H           0.4298   -2.2531    0.6980 H       1  UNL1        0.0494
     49 H           0.1094   -2.1509   -1.0283 H       1  UNL1        0.0494
     50 H           2.2440   -1.4862   -1.4625 H       1  UNL1        0.1491
     51 H           4.1764   -1.1338   -2.2566 H       1  UNL1        0.0856
     52 H           7.1270    1.9936    1.4808 H       1  UNL1        0.0640
     53 H           9.4691    2.7638    1.9010 H       1  UNL1        0.0647
     54 H          10.9186    0.0383   -0.9849 H       1  UNL1        0.0647
     55 H           8.6267   -0.7297   -1.4100 H       1  UNL1        0.0640
     56 H           4.9253    1.3741    2.2408 H       1  UNL1        0.1437
     57 H           5.8098   -0.1266    2.6130 H       1  UNL1        0.1437
     58 H          -3.9907    2.6615   -0.1495 H       1  UNL1        0.0626
     59 H          -6.2205    3.7873    0.1765 H       1  UNL1        0.0618
     60 H          -8.3106    2.5959   -0.2426 H       1  UNL1        0.0618
     61 H          -8.2003    0.2340   -1.0064 H       1  UNL1        0.0637
     62 H          -8.2845   -1.7996   -0.8663 H       1  UNL1        0.0468
     63 H          -7.6828   -3.1310   -2.0042 H       1  UNL1        0.0468
     64 H          -8.1515   -1.5001   -2.6582 H       1  UNL1        0.0468
@<TRIPOS>BOND
     1     1     2    1
     2     2     3    1
     3     3     4    1
     4     4     5    1
     5     5     6    1
     6     5     7    1
     7     7     8    1
     8     8     9   am
     9     9    10    2
    10     9    11    1
    11    11    12   ar
    12    12    13   ar
    13    13    14   ar
    14    14    15    1
    15    15    16   ar
    16    16    17   ar
    17    17    18   ar
    18    18    19    1
    19    18    20   ar
    20    20    21   ar
    21    14    22   ar
    22    22    23    1
    23     5    24    1
    24    24    25    1
    25    24    26    1
    26    24    27    1
    27     3    28   am
    28    28    29    2
    29    28    30    1
    30    30    31   ar
    31    31    32   ar
    32    32    33   ar
    33    33    34   ar
    34    34    35   ar
    35    35    36    1
    36    36    37    1
    37    36    38    2
    38    36    39    2
    39    22    11   ar
    40    35    30   ar
    41    21    15   ar
    42     1    40    1
    43     1    41    1
    44     1    42    1
    45     2    43    1
    46     2    44    1
    47     4    45    1
    48     4    46    1
    49     6    47    1
    50     7    48    1
    51     7    49    1
    52     8    50    1
    53    12    51    1
    54    16    52    1
    55    17    53    1
    56    20    54    1
    57    21    55    1
    58    23    56    1
    59    23    57    1
    60    31    58    1
    61    32    59    1
    62    33    60    1
    63    34    61    1
    64    37    62    1
    65    37    63    1
    66    37    64    1
