
     RDKit          3D

 34 37  0  0  0  0  0  0  0  0999 V2000
   -3.6307    2.4151   -0.9366 C   0  0  0  0  0  0  0  0  0  0  0  0
   -3.6687    0.9757   -0.6500 C   0  0  0  0  0  0  0  0  0  0  0  0
   -4.8584    0.2714   -0.6366 N   0  0  0  0  0  0  0  0  0  0  0  0
   -4.6414   -0.9681   -0.3603 N   0  0  0  0  0  0  0  0  0  0  0  0
   -3.3125   -1.1303   -0.1820 C   0  0  0  0  0  0  0  0  0  0  0  0
   -2.7340    0.0776   -0.3648 N   0  0  0  0  0  0  0  0  0  0  0  0
   -1.3056    0.1843   -0.2242 C   0  0  0  0  0  0  0  0  0  0  0  0
   -0.6834    1.3893   -0.4088 C   0  0  0  0  0  0  0  0  0  0  0  0
   -1.2626    2.5386   -0.7170 F   0  0  0  0  0  0  0  0  0  0  0  0
    0.7192    1.4155   -0.2604 C   0  0  0  0  0  0  0  0  0  0  0  0
    1.4106    0.2981    0.0498 C   0  0  0  0  0  0  0  0  0  0  0  0
    2.8546    0.3548    0.1966 C   0  0  0  0  0  0  0  0  0  0  0  0
    3.5175    1.4708    0.6646 C   0  0  0  0  0  0  0  0  0  0  0  0
    4.8581    1.4608    0.7772 N   0  0  0  0  0  0  0  0  0  0  0  0
    5.5999    0.4051    0.4533 C   0  0  0  0  0  0  0  0  0  0  0  0
    4.9953   -0.7269   -0.0155 C   0  0  0  0  0  0  0  0  0  0  0  0
    5.6926   -1.8349   -0.3629 F   0  0  0  0  0  0  0  0  0  0  0  0
    3.6233   -0.7405   -0.1396 C   0  0  0  0  0  0  0  0  0  0  0  0
    0.7805   -0.9032    0.2327 C   0  0  0  0  0  0  0  0  0  0  0  0
   -0.5969   -0.9630    0.0942 C   0  0  0  0  0  0  0  0  0  0  0  0
   -1.1766   -2.3078    0.3177 C   0  0  0  0  0  0  0  0  0  0  0  0
   -2.6335   -2.3836    0.1448 C   0  0  0  0  0  0  0  0  0  0  0  0
   -4.7333    2.7623   -1.1080 H   0  0  0  0  0  0  0  0  0  0  0  0
   -3.2202    2.7021   -1.9172 H   0  0  0  0  0  0  0  0  0  0  0  0
   -3.4040    3.0678   -0.0675 H   0  0  0  0  0  0  0  0  0  0  0  0
    1.1666    2.3932   -0.4163 H   0  0  0  0  0  0  0  0  0  0  0  0
    2.9226    2.3227    0.9263 H   0  0  0  0  0  0  0  0  0  0  0  0
    6.6740    0.4656    0.5690 H   0  0  0  0  0  0  0  0  0  0  0  0
    3.1572   -1.6547   -0.5163 H   0  0  0  0  0  0  0  0  0  0  0  0
    1.3648   -1.7793    0.4807 H   0  0  0  0  0  0  0  0  0  0  0  0
   -0.9227   -2.6048    1.3836 H   0  0  0  0  0  0  0  0  0  0  0  0
   -0.6010   -3.0025   -0.3373 H   0  0  0  0  0  0  0  0  0  0  0  0
   -3.1096   -2.8592    1.0595 H   0  0  0  0  0  0  0  0  0  0  0  0
   -2.8419   -3.1120   -0.6824 H   0  0  0  0  0  0  0  0  0  0  0  0
  1  2  1  0
  2  3  2  0
  3  4  1  0
  4  5  2  0
  5  6  1  0
  6  7  1  0
  7  8  2  0
  8  9  1  0
  8 10  1  0
 10 11  2  0
 11 12  1  0
 12 13  2  0
 13 14  1  0
 14 15  2  0
 15 16  1  0
 16 17  1  0
 16 18  2  0
 11 19  1  0
 19 20  2  0
 20 21  1  0
 21 22  1  0
  6  2  1  0
 20  7  1  0
 22  5  1  0
 18 12  1  0
  1 23  1  0
  1 24  1  0
  1 25  1  0
 10 26  1  0
 13 27  1  0
 15 28  1  0
 18 29  1  0
 19 30  1  0
 21 31  1  0
 21 32  1  0
 22 33  1  0
 22 34  1  0
M  END
$$$$
