@<TRIPOS>MOLECULE
*****
 34 37 0 0 0
SMALL
GASTEIGER

@<TRIPOS>ATOM
      1 C          -3.6307    2.4151   -0.9366 C.3     1  UNL1       -0.0041
      2 C          -3.6687    0.9757   -0.6500 C.ar    1  UNL1        0.1349
      3 N          -4.8584    0.2714   -0.6366 N.ar    1  UNL1       -0.1343
      4 N          -4.6414   -0.9681   -0.3603 N.ar    1  UNL1       -0.1340
      5 C          -3.3125   -1.1303   -0.1820 C.ar    1  UNL1        0.1383
      6 N          -2.7340    0.0776   -0.3648 N.ar    1  UNL1       -0.2801
      7 C          -1.3056    0.1843   -0.2242 C.ar    1  UNL1        0.0877
      8 C          -0.6834    1.3893   -0.4088 C.ar    1  UNL1        0.1480
      9 F          -1.2626    2.5386   -0.7170 F       1  UNL1       -0.2033
     10 C           0.7192    1.4155   -0.2604 C.ar    1  UNL1       -0.0166
     11 C           1.4106    0.2981    0.0498 C.ar    1  UNL1       -0.0133
     12 C           2.8546    0.3548    0.1966 C.ar    1  UNL1        0.0030
     13 C           3.5175    1.4708    0.6646 C.ar    1  UNL1        0.0354
     14 N           4.8581    1.4608    0.7772 N.ar    1  UNL1       -0.2598
     15 C           5.5999    0.4051    0.4533 C.ar    1  UNL1        0.0628
     16 C           4.9953   -0.7269   -0.0155 C.ar    1  UNL1        0.1420
     17 F           5.6926   -1.8349   -0.3629 F       1  UNL1       -0.2039
     18 C           3.6233   -0.7405   -0.1396 C.ar    1  UNL1       -0.0158
     19 C           0.7805   -0.9032    0.2327 C.ar    1  UNL1       -0.0486
     20 C          -0.5969   -0.9630    0.0942 C.ar    1  UNL1       -0.0197
     21 C          -1.1766   -2.3078    0.3177 C.3     1  UNL1       -0.0187
     22 C          -2.6335   -2.3836    0.1448 C.3     1  UNL1        0.0118
     23 H          -4.7333    2.7623   -1.1080 H       1  UNL1        0.0308
     24 H          -3.2202    2.7021   -1.9172 H       1  UNL1        0.0308
     25 H          -3.4040    3.0678   -0.0675 H       1  UNL1        0.0308
     26 H           1.1666    2.3932   -0.4163 H       1  UNL1        0.0653
     27 H           2.9226    2.3227    0.9263 H       1  UNL1        0.0836
     28 H           6.6740    0.4656    0.5690 H       1  UNL1        0.0859
     29 H           3.1572   -1.6547   -0.5163 H       1  UNL1        0.0653
     30 H           1.3648   -1.7793    0.4807 H       1  UNL1        0.0627
     31 H          -0.9227   -2.6048    1.3836 H       1  UNL1        0.0318
     32 H          -0.6010   -3.0025   -0.3373 H       1  UNL1        0.0318
     33 H          -3.1096   -2.8592    1.0595 H       1  UNL1        0.0347
     34 H          -2.8419   -3.1120   -0.6824 H       1  UNL1        0.0347
@<TRIPOS>BOND
     1     1     2    1
     2     2     3   ar
     3     3     4   ar
     4     4     5   ar
     5     5     6   ar
     6     6     7    1
     7     7     8   ar
     8     8     9    1
     9     8    10   ar
    10    10    11   ar
    11    11    12    1
    12    12    13   ar
    13    13    14   ar
    14    14    15   ar
    15    15    16   ar
    16    16    17    1
    17    16    18   ar
    18    11    19   ar
    19    19    20   ar
    20    20    21    1
    21    21    22    1
    22     6     2   ar
    23    20     7   ar
    24    22     5    1
    25    18    12   ar
    26     1    23    1
    27     1    24    1
    28     1    25    1
    29    10    26    1
    30    13    27    1
    31    15    28    1
    32    18    29    1
    33    19    30    1
    34    21    31    1
    35    21    32    1
    36    22    33    1
    37    22    34    1
