@<TRIPOS>MOLECULE
*****
 57 61 0 0 0
SMALL
GASTEIGER

@<TRIPOS>ATOM
      1 O          -2.8213   -4.4666    0.5352 O.2     1  UNL1       -0.2817
      2 C          -3.3282   -3.3373    0.7138 C.2     1  UNL1        0.2496
      3 C          -4.7314   -2.9741    0.6253 C.2     1  UNL1        0.2916
      4 O          -5.6954   -3.7646    0.3452 O.2     1  UNL1       -0.2661
      5 N          -4.8288   -1.5844    0.9070 N.am    1  UNL1       -0.2583
      6 C          -6.0712   -0.8623    0.9132 C.3     1  UNL1        0.0624
      7 C          -6.4528   -0.2865   -0.3574 C.ar    1  UNL1        0.0620
      8 C          -7.2154   -0.9866   -1.2600 C.ar    1  UNL1       -0.0386
      9 C          -7.5794   -0.4192   -2.4880 C.ar    1  UNL1       -0.0558
     10 C          -7.1634    0.8582   -2.7873 C.ar    1  UNL1       -0.0072
     11 C          -6.4009    1.5289   -1.8591 C.ar    1  UNL1        0.2135
     12 F          -5.9802    2.7969   -2.1408 F       1  UNL1       -0.1839
     13 N          -6.0731    0.9522   -0.6951 N.ar    1  UNL1       -0.2226
     14 C          -3.4957   -1.1189    1.1621 C.ar    1  UNL1        0.0482
     15 C          -3.0460    0.1438    1.4814 C.ar    1  UNL1       -0.0377
     16 C          -1.6907    0.3858    1.6920 C.ar    1  UNL1       -0.0335
     17 C          -0.7615   -0.6236    1.5882 C.ar    1  UNL1        0.1063
     18 S           0.9637   -0.3059    1.8552 S.O2    1  UNL1        0.0612
     19 O           1.5566   -1.5259    2.5501 O.2     1  UNL1       -0.1528
     20 O           1.0357    0.8024    2.8694 O.2     1  UNL1       -0.1528
     21 N           1.7462    0.0755    0.4033 N.3     1  UNL1       -0.1703
     22 C           1.1549    1.2824   -0.1487 C.3     1  UNL1        0.0210
     23 C           1.8903    2.4276    0.5283 C.3     1  UNL1       -0.0370
     24 C           3.0895    1.7748    1.1696 C.3     1  UNL1       -0.0313
     25 C           3.1150    0.4344    0.4524 C.3     1  UNL1        0.0659
     26 C           4.0476   -0.5347    1.0825 C.3     1  UNL1        0.1067
     27 O           5.3484   -0.0950    1.0637 O.3     1  UNL1       -0.4904
     28 C           6.2500    0.1691    0.0868 C.ar    1  UNL1        0.1206
     29 C           6.0395    0.0067   -1.2637 C.ar    1  UNL1       -0.0199
     30 C           7.0247    0.3094   -2.1912 C.ar    1  UNL1       -0.0583
     31 C           8.2452    0.7823   -1.7721 C.ar    1  UNL1       -0.0615
     32 C           8.4933    0.9566   -0.4344 C.ar    1  UNL1       -0.0583
     33 C           7.5172    0.6561    0.4671 C.ar    1  UNL1       -0.0199
     34 C          -1.2253   -1.8791    1.2688 C.ar    1  UNL1       -0.0226
     35 C          -2.5890   -2.1330    1.0549 C.ar    1  UNL1        0.0502
     36 H          -5.9671   -0.0917    1.7352 H       1  UNL1        0.0533
     37 H          -6.8619   -1.5566    1.3281 H       1  UNL1        0.0533
     38 H          -7.5591   -1.9898   -1.0586 H       1  UNL1        0.0636
     39 H          -8.1781   -0.9444   -3.2181 H       1  UNL1        0.0619
     40 H          -7.4372    1.3279   -3.7491 H       1  UNL1        0.0662
     41 H          -3.7838    0.9267    1.5598 H       1  UNL1        0.0637
     42 H          -1.3781    1.3813    1.9407 H       1  UNL1        0.0638
     43 H           0.0959    1.3984    0.0608 H       1  UNL1        0.0444
     44 H           1.4077    1.3164   -1.2295 H       1  UNL1        0.0444
     45 H           2.2170    3.1802   -0.2148 H       1  UNL1        0.0279
     46 H           1.2460    2.9445    1.2677 H       1  UNL1        0.0279
     47 H           3.0538    1.7036    2.2520 H       1  UNL1        0.0282
     48 H           3.9916    2.3789    0.9197 H       1  UNL1        0.0282
     49 H           3.4247    0.6806   -0.5823 H       1  UNL1        0.0513
     50 H           4.0100   -1.4652    0.4342 H       1  UNL1        0.0713
     51 H           3.7104   -0.9089    2.0709 H       1  UNL1        0.0713
     52 H           5.0964   -0.3852   -1.6270 H       1  UNL1        0.0654
     53 H           6.8589    0.1824   -3.2551 H       1  UNL1        0.0619
     54 H           9.0273    1.0250   -2.4710 H       1  UNL1        0.0618
     55 H           9.4790    1.3372   -0.1093 H       1  UNL1        0.0619
     56 H           7.6912    0.7870    1.5436 H       1  UNL1        0.0654
     57 H          -0.5125   -2.6736    1.1851 H       1  UNL1        0.0645
@<TRIPOS>BOND
     1     1     2    2
     2     2     3    1
     3     3     4    2
     4     3     5   am
     5     5     6    1
     6     6     7    1
     7     7     8   ar
     8     8     9   ar
     9     9    10   ar
    10    10    11   ar
    11    11    12    1
    12    11    13   ar
    13     5    14    1
    14    14    15   ar
    15    15    16   ar
    16    16    17   ar
    17    17    18    1
    18    18    19    2
    19    18    20    2
    20    18    21    1
    21    21    22    1
    22    22    23    1
    23    23    24    1
    24    24    25    1
    25    25    26    1
    26    26    27    1
    27    27    28    1
    28    28    29   ar
    29    29    30   ar
    30    30    31   ar
    31    31    32   ar
    32    32    33   ar
    33    17    34   ar
    34    34    35   ar
    35    35     2    1
    36    13     7   ar
    37    35    14   ar
    38    25    21    1
    39    33    28   ar
    40     6    36    1
    41     6    37    1
    42     8    38    1
    43     9    39    1
    44    10    40    1
    45    15    41    1
    46    16    42    1
    47    22    43    1
    48    22    44    1
    49    23    45    1
    50    23    46    1
    51    24    47    1
    52    24    48    1
    53    25    49    1
    54    26    50    1
    55    26    51    1
    56    29    52    1
    57    30    53    1
    58    31    54    1
    59    32    55    1
    60    33    56    1
    61    34    57    1
