@<TRIPOS>MOLECULE
*****
 58 59 0 0 0
SMALL
GASTEIGER

@<TRIPOS>ATOM
      1 C          -3.9241    0.1705    0.3952 C.3     1  UNL1        0.0546
      2 C          -2.7800    0.9476    1.0242 C.3     1  UNL1       -0.0297
      3 C          -1.9721    1.5446   -0.1081 C.3     1  UNL1       -0.0399
      4 C          -1.1193    0.4419   -0.6945 C.3     1  UNL1        0.0347
      5 C          -1.8726   -0.8542   -0.6533 C.3     1  UNL1       -0.0399
      6 C          -3.3518   -0.5284   -0.8368 C.3     1  UNL1       -0.0297
      7 C           0.1503    0.3971    0.0779 C.2     1  UNL1        0.1856
      8 O           0.1231    0.1461    1.4335 O.2     1  UNL1       -0.4954
      9 N           1.2725    0.5864   -0.4847 N.2     1  UNL1       -0.2537
     10 C           2.5656    0.5737    0.1233 C.3     1  UNL1        0.0528
     11 C           3.2153   -0.7656   -0.1736 C.3     1  UNL1        0.0236
     12 S           4.8592   -0.6945    0.6368 S.3     1  UNL1       -0.0912
     13 S           6.0653    0.7575   -0.2968 S.3     1  UNL1       -0.0912
     14 C           7.0321    0.0467   -1.6727 C.3     1  UNL1        0.0236
     15 C           8.0187   -0.9296   -1.0623 C.3     1  UNL1        0.0528
     16 N           8.8633   -0.1986   -0.1494 N.2     1  UNL1       -0.2542
     17 C           9.7417    0.6515   -0.5351 C.2     1  UNL1        0.1792
     18 C          10.4711    1.2586    0.6190 C.3     1  UNL1        0.0112
     19 O           9.8653    0.8590   -1.9092 O.2     1  UNL1       -0.4958
     20 N          -4.4122   -0.8542    1.2975 N.2     1  UNL1       -0.2457
     21 C          -5.6672   -1.1235    1.2744 C.2     1  UNL1        0.2366
     22 O          -5.4346   -2.0538    2.2500 O.2     1  UNL1       -0.4911
     23 C          -6.7244   -0.5278    0.4396 C.ar    1  UNL1        0.1569
     24 CA         -7.7714    0.2011    0.9692 C.ar    1  UNL1        0.1780
     25 N          -8.6755    0.6970    0.1291 N.ar    1  UNL1       -0.2448
     26 C          -8.5310    0.4680   -1.1920 C.ar    1  UNL1        0.0466
     27 C          -7.5074   -0.2479   -1.7421 C.ar    1  UNL1        0.0466
     28 N          -6.6128   -0.7353   -0.8773 N.ar    1  UNL1       -0.2464
     29 C          -7.8451    0.3985    2.4217 C.2     1  UNL1        0.3576
     30 O          -8.8915    1.1281    2.9642 O.3     1  UNL1       -0.4760
     31 OXT        -6.9584   -0.0974    3.1486 O.2     1  UNL1       -0.2433
     32 H          -4.6984    0.9140    0.1218 H       1  UNL1        0.0545
     33 H          -2.2002    0.2367    1.6498 H       1  UNL1        0.0286
     34 H          -3.2224    1.7582    1.6667 H       1  UNL1        0.0286
     35 H          -2.6624    1.9361   -0.8733 H       1  UNL1        0.0273
     36 H          -1.2957    2.3515    0.2478 H       1  UNL1        0.0273
     37 H          -0.9366    0.6783   -1.7607 H       1  UNL1        0.0395
     38 H          -1.7006   -1.4487    0.2430 H       1  UNL1        0.0273
     39 H          -1.6158   -1.4812   -1.5478 H       1  UNL1        0.0273
     40 H          -3.9065   -1.4612   -1.0469 H       1  UNL1        0.0286
     41 H          -3.4454    0.1194   -1.7222 H       1  UNL1        0.0286
     42 H           0.9199   -0.3143    1.8764 H       1  UNL1        0.2934
     43 H           2.5831    0.8234    1.1959 H       1  UNL1        0.0517
     44 H           3.1843    1.3486   -0.4147 H       1  UNL1        0.0517
     45 H           2.6348   -1.6204    0.1718 H       1  UNL1        0.0403
     46 H           3.3850   -0.7950   -1.2629 H       1  UNL1        0.0403
     47 H           6.2799   -0.5198   -2.2871 H       1  UNL1        0.0403
     48 H           7.5407    0.8256   -2.2514 H       1  UNL1        0.0403
     49 H           7.4748   -1.7079   -0.4924 H       1  UNL1        0.0517
     50 H           8.6174   -1.4150   -1.8632 H       1  UNL1        0.0517
     51 H           9.7576    1.5252    1.4241 H       1  UNL1        0.0324
     52 H          11.2209    0.5674    1.0195 H       1  UNL1        0.0324
     53 H          10.9753    2.1987    0.2957 H       1  UNL1        0.0324
     54 H           9.7993    0.0873   -2.5735 H       1  UNL1        0.2934
     55 H          -5.3118   -3.0312    2.0982 H       1  UNL1        0.2938
     56 H          -9.2988    0.8973   -1.8251 H       1  UNL1        0.0845
     57 H          -7.4768   -0.3778   -2.8106 H       1  UNL1        0.0845
     58 H          -8.7937    1.5246    3.9050 H       1  UNL1        0.2955
@<TRIPOS>BOND
     1     1     2    1
     2     2     3    1
     3     3     4    1
     4     4     5    1
     5     5     6    1
     6     4     7    1
     7     7     8    1
     8     7     9    2
     9     9    10    1
    10    10    11    1
    11    11    12    1
    12    12    13    1
    13    13    14    1
    14    14    15    1
    15    15    16    1
    16    16    17    2
    17    17    18    1
    18    17    19    1
    19     1    20    1
    20    20    21    2
    21    21    22    1
    22    21    23    1
    23    23    24   ar
    24    24    25   ar
    25    25    26   ar
    26    26    27   ar
    27    27    28   ar
    28    24    29    1
    29    29    30    1
    30    29    31    2
    31     6     1    1
    32    28    23   ar
    33     1    32    1
    34     2    33    1
    35     2    34    1
    36     3    35    1
    37     3    36    1
    38     4    37    1
    39     5    38    1
    40     5    39    1
    41     6    40    1
    42     6    41    1
    43     8    42    1
    44    10    43    1
    45    10    44    1
    46    11    45    1
    47    11    46    1
    48    14    47    1
    49    14    48    1
    50    15    49    1
    51    15    50    1
    52    18    51    1
    53    18    52    1
    54    18    53    1
    55    19    54    1
    56    22    55    1
    57    26    56    1
    58    27    57    1
    59    30    58    1
