
     RDKit          3D

 70 72  0  0  0  0  0  0  0  0999 V2000
   -5.6019    3.7977    3.8873 C   0  0  0  0  0  0  0  0  0  0  0  0
   -4.3329    3.6325    4.4610 O   0  0  0  0  0  0  0  0  0  0  0  0
   -3.3125    2.9133    3.8474 C   0  0  0  0  0  0  0  0  0  0  0  0
   -2.0788    2.7624    4.4235 C   0  0  0  0  0  0  0  0  0  0  0  0
   -1.0969    2.0447    3.7815 C   0  0  0  0  0  0  0  0  0  0  0  0
   -1.3311    1.4637    2.5504 C   0  0  0  0  0  0  0  0  0  0  0  0
   -0.3525    0.6967    1.8054 C   0  0  0  0  0  0  0  0  0  0  0  0
   -0.2201   -0.6687    1.9243 C   0  0  0  0  0  0  0  0  0  0  0  0
    0.7371   -1.3431    1.1945 C   0  0  0  0  0  0  0  0  0  0  0  0
    1.5916   -0.6953    0.3275 C   0  0  0  0  0  0  0  0  0  0  0  0
    2.5770   -1.4507   -0.4247 C   0  0  0  0  0  0  0  0  0  0  0  0
    2.2910   -2.0332   -1.5004 O   0  0  0  0  0  0  0  0  0  0  0  0
    3.9186   -1.5625    0.0329 N   0  0  0  0  0  0  0  0  0  0  0  0
    4.9388   -2.3146   -0.7004 C   0  0  2  0  0  0  0  0  0  0  0  0
    5.2694   -3.5970    0.0441 C   0  0  0  0  0  0  0  0  0  0  0  0
    6.2275   -4.2865   -0.6905 O   0  0  0  0  0  0  0  0  0  0  0  0
    6.1519   -1.4858   -0.9607 C   0  0  0  0  0  0  0  0  0  0  0  0
    6.8050   -1.0018    0.3250 C   0  0  0  0  0  0  0  0  0  0  0  0
    7.2078   -2.1862   -1.7798 C   0  0  0  0  0  0  0  0  0  0  0  0
    5.7579   -0.2132   -1.7132 C   0  0  0  0  0  0  0  0  0  0  0  0
    1.4476    0.6677    0.2185 C   0  0  0  0  0  0  0  0  0  0  0  0
    0.4866    1.3687    0.9463 C   0  0  0  0  0  0  0  0  0  0  0  0
    0.3648    2.8111    0.7971 C   0  0  0  0  0  0  0  0  0  0  0  0
    1.1233    3.4462    0.0159 O   0  0  0  0  0  0  0  0  0  0  0  0
   -0.5922    3.5099    1.5139 O   0  0  0  0  0  0  0  0  0  0  0  0
   -2.5732    1.6333    2.0061 C   0  0  0  0  0  0  0  0  0  0  0  0
   -2.8906    1.0418    0.7242 C   0  0  0  0  0  0  0  0  0  0  0  0
   -2.0186    0.3776    0.1184 O   0  0  0  0  0  0  0  0  0  0  0  0
   -4.1641    1.1866    0.1236 N   0  0  0  0  0  0  0  0  0  0  0  0
   -4.5504    0.6330   -1.1260 C   0  0  0  0  0  0  0  0  0  0  0  0
   -4.3997    1.2545   -2.3428 C   0  0  0  0  0  0  0  0  0  0  0  0
   -4.8050    0.6681   -3.5326 C   0  0  0  0  0  0  0  0  0  0  0  0
   -5.3824   -0.5801   -3.5318 C   0  0  0  0  0  0  0  0  0  0  0  0
   -5.8198   -1.2100   -4.7875 C   0  0  0  0  0  0  0  0  0  0  0  0
   -6.8437   -2.0160   -4.8120 N   0  0  0  0  0  0  0  0  0  0  0  0
   -5.0905   -0.9085   -5.9525 N   0  0  0  0  0  0  0  0  0  0  0  0
   -5.5386   -1.2146   -2.3174 C   0  0  0  0  0  0  0  0  0  0  0  0
   -5.1306   -0.6196   -1.1365 C   0  0  0  0  0  0  0  0  0  0  0  0
   -3.5337    2.3464    2.6520 N   0  0  0  0  0  0  0  0  0  0  0  0
   -6.3708    3.1399    4.3576 H   0  0  0  0  0  0  0  0  0  0  0  0
   -5.9548    4.8451    3.9108 H   0  0  0  0  0  0  0  0  0  0  0  0
   -5.5452    3.4979    2.8199 H   0  0  0  0  0  0  0  0  0  0  0  0
   -1.9041    3.2180    5.3807 H   0  0  0  0  0  0  0  0  0  0  0  0
   -0.0984    1.9057    4.2216 H   0  0  0  0  0  0  0  0  0  0  0  0
   -0.8803   -1.1973    2.5983 H   0  0  0  0  0  0  0  0  0  0  0  0
    0.7923   -2.4119    1.3306 H   0  0  0  0  0  0  0  0  0  0  0  0
    4.1810   -1.0914    0.9245 H   0  0  0  0  0  0  0  0  0  0  0  0
    4.4842   -2.6241   -1.6555 H   0  0  0  0  0  0  0  0  0  0  0  0
    4.3508   -4.2163    0.0555 H   0  0  0  0  0  0  0  0  0  0  0  0
    5.6333   -3.3708    1.0721 H   0  0  0  0  0  0  0  0  0  0  0  0
    5.7917   -4.8134   -1.4255 H   0  0  0  0  0  0  0  0  0  0  0  0
    6.1979   -0.1918    0.7646 H   0  0  0  0  0  0  0  0  0  0  0  0
    6.9944   -1.8328    1.0347 H   0  0  0  0  0  0  0  0  0  0  0  0
    7.7989   -0.5901    0.0594 H   0  0  0  0  0  0  0  0  0  0  0  0
    6.7234   -2.8678   -2.4912 H   0  0  0  0  0  0  0  0  0  0  0  0
    7.9260   -2.7750   -1.1722 H   0  0  0  0  0  0  0  0  0  0  0  0
    7.8267   -1.4644   -2.3553 H   0  0  0  0  0  0  0  0  0  0  0  0
    5.4266    0.5541   -0.9870 H   0  0  0  0  0  0  0  0  0  0  0  0
    4.9528   -0.4672   -2.4000 H   0  0  0  0  0  0  0  0  0  0  0  0
    6.6260    0.1290   -2.3162 H   0  0  0  0  0  0  0  0  0  0  0  0
    2.0916    1.2157   -0.4446 H   0  0  0  0  0  0  0  0  0  0  0  0
   -0.5526    4.5135    1.6832 H   0  0  0  0  0  0  0  0  0  0  0  0
   -4.8509    1.7683    0.7000 H   0  0  0  0  0  0  0  0  0  0  0  0
   -3.9507    2.2331   -2.3812 H   0  0  0  0  0  0  0  0  0  0  0  0
   -4.6798    1.1707   -4.4857 H   0  0  0  0  0  0  0  0  0  0  0  0
   -7.3475   -2.2033   -3.9085 H   0  0  0  0  0  0  0  0  0  0  0  0
   -5.4337   -0.1923   -6.6102 H   0  0  0  0  0  0  0  0  0  0  0  0
   -4.2094   -1.4048   -6.1521 H   0  0  0  0  0  0  0  0  0  0  0  0
   -5.9947   -2.2108   -2.2732 H   0  0  0  0  0  0  0  0  0  0  0  0
   -5.2610   -1.1338   -0.1902 H   0  0  0  0  0  0  0  0  0  0  0  0
  1  2  1  0
  2  3  1  0
  3  4  2  0
  4  5  1  0
  5  6  2  0
  6  7  1  0
  7  8  2  0
  8  9  1  0
  9 10  2  0
 10 11  1  0
 11 12  2  0
 11 13  1  0
 13 14  1  0
 14 15  1  0
 15 16  1  0
 14 17  1  0
 17 18  1  0
 17 19  1  0
 17 20  1  0
 10 21  1  0
 21 22  2  0
 22 23  1  0
 23 24  2  0
 23 25  1  0
  6 26  1  0
 26 27  1  0
 27 28  2  0
 27 29  1  0
 29 30  1  0
 30 31  2  0
 31 32  1  0
 32 33  2  0
 33 34  1  0
 34 35  2  3
 34 36  1  0
 33 37  1  0
 37 38  2  0
 26 39  2  0
 39  3  1  0
 22  7  1  0
 38 30  1  0
  1 40  1  0
  1 41  1  0
  1 42  1  0
  4 43  1  0
  5 44  1  0
  8 45  1  0
  9 46  1  0
 13 47  1  0
 14 48  1  6
 15 49  1  0
 15 50  1  0
 16 51  1  0
 18 52  1  0
 18 53  1  0
 18 54  1  0
 19 55  1  0
 19 56  1  0
 19 57  1  0
 20 58  1  0
 20 59  1  0
 20 60  1  0
 21 61  1  0
 25 62  1  0
 29 63  1  0
 31 64  1  0
 32 65  1  0
 35 66  1  0
 36 67  1  0
 36 68  1  0
 37 69  1  0
 38 70  1  0
M  END
$$$$
