@<TRIPOS>MOLECULE
*****
 70 72 0 0 0
SMALL
GASTEIGER

@<TRIPOS>ATOM
      1 C          -5.6019    3.7977    3.8873 C.3     1  UNL1        0.0804
      2 O          -4.3329    3.6325    4.4610 O.3     1  UNL1       -0.4796
      3 C          -3.3125    2.9133    3.8474 C.ar    1  UNL1        0.2151
      4 C          -2.0788    2.7624    4.4235 C.ar    1  UNL1        0.0006
      5 C          -1.0969    2.0447    3.7815 C.ar    1  UNL1       -0.0468
      6 C          -1.3311    1.4637    2.5504 C.ar    1  UNL1        0.0137
      7 C          -0.3525    0.6967    1.8054 C.ar    1  UNL1       -0.0017
      8 C          -0.2201   -0.6687    1.9243 C.ar    1  UNL1       -0.0525
      9 C           0.7371   -1.3431    1.1945 C.ar    1  UNL1       -0.0490
     10 C           1.5916   -0.6953    0.3275 C.ar    1  UNL1        0.0375
     11 C           2.5770   -1.4507   -0.4247 C.2     1  UNL1        0.2444
     12 O           2.2910   -2.0332   -1.5004 O.2     1  UNL1       -0.2702
     13 N           3.9186   -1.5625    0.0329 N.am    1  UNL1       -0.3058
     14 CA          4.9388   -2.3146   -0.7004 C.3     1  UNL1        0.0513
     15 C           5.2694   -3.5970    0.0441 C.3     1  UNL1        0.0631
     16 O           6.2275   -4.2865   -0.6905 O.3     1  UNL1       -0.3932
     17 C           6.1519   -1.4858   -0.9607 C.3     1  UNL1       -0.0172
     18 C           6.8050   -1.0018    0.3250 C.3     1  UNL1       -0.0583
     19 C           7.2078   -2.1862   -1.7798 C.3     1  UNL1       -0.0583
     20 C           5.7579   -0.2132   -1.7132 C.3     1  UNL1       -0.0583
     21 C           1.4476    0.6677    0.2185 C.ar    1  UNL1       -0.0351
     22 C           0.4866    1.3687    0.9463 C.ar    1  UNL1        0.0673
     23 C           0.3648    2.8111    0.7971 C.2     1  UNL1        0.3374
     24 O           1.1233    3.4462    0.0159 O.2     1  UNL1       -0.2451
     25 O          -0.5922    3.5099    1.5139 O.3     1  UNL1       -0.4771
     26 C          -2.5732    1.6333    2.0061 C.ar    1  UNL1        0.1372
     27 C          -2.8906    1.0418    0.7242 C.2     1  UNL1        0.2673
     28 O          -2.0186    0.3776    0.1184 O.2     1  UNL1       -0.2682
     29 N          -4.1641    1.1866    0.1236 N.am    1  UNL1       -0.2802
     30 C          -4.5504    0.6330   -1.1260 C.ar    1  UNL1        0.0338
     31 C          -4.3997    1.2545   -2.3428 C.ar    1  UNL1       -0.0397
     32 C          -4.8050    0.6681   -3.5326 C.ar    1  UNL1       -0.0451
     33 C          -5.3824   -0.5801   -3.5318 C.ar    1  UNL1        0.0648
     34 C          -5.8198   -1.2100   -4.7875 C.2     1  UNL1        0.3081
     35 N          -6.8437   -2.0160   -4.8120 N.2     1  UNL1       -0.0994
     36 N          -5.0905   -0.9085   -5.9525 N.pl3   1  UNL1       -0.2466
     37 C          -5.5386   -1.2146   -2.3174 C.ar    1  UNL1       -0.0451
     38 C          -5.1306   -0.6196   -1.1365 C.ar    1  UNL1       -0.0397
     39 N          -3.5337    2.3464    2.6520 N.ar    1  UNL1       -0.2076
     40 H          -6.3708    3.1399    4.3576 H       1  UNL1        0.0660
     41 H          -5.9548    4.8451    3.9108 H       1  UNL1        0.0660
     42 H          -5.5452    3.4979    2.8199 H       1  UNL1        0.0660
     43 H          -1.9041    3.2180    5.3807 H       1  UNL1        0.0671
     44 H          -0.0984    1.9057    4.2216 H       1  UNL1        0.0626
     45 H          -0.8803   -1.1973    2.5983 H       1  UNL1        0.0624
     46 H           0.7923   -2.4119    1.3306 H       1  UNL1        0.0625
     47 H           4.1810   -1.0914    0.9245 H       1  UNL1        0.1494
     48 HA          4.4842   -2.6241   -1.6555 H       1  UNL1        0.0526
     49 H1          4.3508   -4.2163    0.0555 H       1  UNL1        0.0576
     50 H2          5.6333   -3.3708    1.0721 H       1  UNL1        0.0576
     51 H           5.7917   -4.8134   -1.4255 H       1  UNL1        0.2095
     52 H           6.1979   -0.1918    0.7646 H       1  UNL1        0.0235
     53 H           6.9944   -1.8328    1.0347 H       1  UNL1        0.0235
     54 H           7.7989   -0.5901    0.0594 H       1  UNL1        0.0235
     55 H           6.7234   -2.8678   -2.4912 H       1  UNL1        0.0235
     56 H           7.9260   -2.7750   -1.1722 H       1  UNL1        0.0235
     57 H           7.8267   -1.4644   -2.3553 H       1  UNL1        0.0235
     58 H           5.4266    0.5541   -0.9870 H       1  UNL1        0.0235
     59 H           4.9528   -0.4672   -2.4000 H       1  UNL1        0.0235
     60 H           6.6260    0.1290   -2.3162 H       1  UNL1        0.0235
     61 H           2.0916    1.2157   -0.4446 H       1  UNL1        0.0633
     62 H          -0.5526    4.5135    1.6832 H       1  UNL1        0.2954
     63 H          -4.8509    1.7683    0.7000 H       1  UNL1        0.1552
     64 H          -3.9507    2.2331   -2.3812 H       1  UNL1        0.0636
     65 H          -4.6798    1.1707   -4.4857 H       1  UNL1        0.0627
     66 H          -7.3475   -2.2033   -3.9085 H       1  UNL1        0.3633
     67 H          -5.4337   -0.1923   -6.6102 H       1  UNL1        0.2884
     68 H          -4.2094   -1.4048   -6.1521 H       1  UNL1        0.2884
     69 H          -5.9947   -2.2108   -2.2732 H       1  UNL1        0.0627
     70 H          -5.2610   -1.1338   -0.1902 H       1  UNL1        0.0636
@<TRIPOS>BOND
     1     1     2    1
     2     2     3    1
     3     3     4   ar
     4     4     5   ar
     5     5     6   ar
     6     6     7    1
     7     7     8   ar
     8     8     9   ar
     9     9    10   ar
    10    10    11    1
    11    11    12    2
    12    11    13   am
    13    13    14    1
    14    14    15    1
    15    15    16    1
    16    14    17    1
    17    17    18    1
    18    17    19    1
    19    17    20    1
    20    10    21   ar
    21    21    22   ar
    22    22    23    1
    23    23    24    2
    24    23    25    1
    25     6    26   ar
    26    26    27    1
    27    27    28    2
    28    27    29   am
    29    29    30    1
    30    30    31   ar
    31    31    32   ar
    32    32    33   ar
    33    33    34    1
    34    34    35    2
    35    34    36    1
    36    33    37   ar
    37    37    38   ar
    38    26    39   ar
    39    39     3   ar
    40    22     7   ar
    41    38    30   ar
    42     1    40    1
    43     1    41    1
    44     1    42    1
    45     4    43    1
    46     5    44    1
    47     8    45    1
    48     9    46    1
    49    13    47    1
    50    14    48    1
    51    15    49    1
    52    15    50    1
    53    16    51    1
    54    18    52    1
    55    18    53    1
    56    18    54    1
    57    19    55    1
    58    19    56    1
    59    19    57    1
    60    20    58    1
    61    20    59    1
    62    20    60    1
    63    21    61    1
    64    25    62    1
    65    29    63    1
    66    31    64    1
    67    32    65    1
    68    35    66    1
    69    36    67    1
    70    36    68    1
    71    37    69    1
    72    38    70    1
