
     RDKit          3D

 62 66  0  0  0  0  0  0  0  0999 V2000
   -6.5546    1.7548    3.7929 C   0  0  0  0  0  0  0  0  0  0  0  0
   -6.7045    0.3801    3.5167 O   0  0  0  0  0  0  0  0  0  0  0  0
   -6.2275   -0.1568    2.3234 C   0  0  0  0  0  0  0  0  0  0  0  0
   -6.3557   -1.4929    2.0196 C   0  0  0  0  0  0  0  0  0  0  0  0
   -5.8674   -2.0066    0.8134 C   0  0  0  0  0  0  0  0  0  0  0  0
   -5.2471   -1.1781   -0.0943 C   0  0  0  0  0  0  0  0  0  0  0  0
   -4.7232   -1.6891   -1.3706 C   0  0  0  0  0  0  0  0  0  0  0  0
   -3.3527   -2.1387   -1.2943 N   0  0  0  0  0  0  0  0  0  0  0  0
   -2.9505   -3.4575   -0.9610 C   0  0  0  0  0  0  0  0  0  0  0  0
   -3.6617   -4.4507   -0.6789 O   0  0  0  0  0  0  0  0  0  0  0  0
   -1.4720   -3.4657   -1.0041 C   0  0  0  0  0  0  0  0  0  0  0  0
   -0.7024   -4.4342   -0.7738 O   0  0  0  0  0  0  0  0  0  0  0  0
   -1.0593   -2.1042   -1.3736 C   0  0  0  0  0  0  0  0  0  0  0  0
    0.2089   -1.5389   -1.5608 C   0  0  0  0  0  0  0  0  0  0  0  0
    0.3632   -0.2196   -1.9115 C   0  0  0  0  0  0  0  0  0  0  0  0
    1.9378    0.4986   -2.1401 S   0  0  0  0  0  6  0  0  0  0  0  0
    1.8003    1.4535   -3.3302 O   0  0  0  0  0  0  0  0  0  0  0  0
    2.8960   -0.5640   -2.6448 O   0  0  0  0  0  0  0  0  0  0  0  0
    2.5430    1.3813   -0.8588 N   0  0  0  0  0  0  0  0  0  0  0  0
    1.7952    2.5306   -0.4422 C   0  0  0  0  0  0  0  0  0  0  0  0
    1.1583    2.1638    0.8887 C   0  0  0  0  0  0  0  0  0  0  0  0
    1.6293    0.7230    1.1279 C   0  0  0  0  0  0  0  0  0  0  0  0
    2.9306    0.7587    0.3378 C   0  0  1  0  0  0  0  0  0  0  0  0
    3.5741   -0.5739    0.2245 C   0  0  0  0  0  0  0  0  0  0  0  0
    4.7194   -0.5863   -0.5138 O   0  0  0  0  0  0  0  0  0  0  0  0
    5.9401   -0.0408   -0.4155 C   0  0  0  0  0  0  0  0  0  0  0  0
    6.3177    0.7374    0.6462 C   0  0  0  0  0  0  0  0  0  0  0  0
    7.5936    1.3066    0.7377 C   0  0  0  0  0  0  0  0  0  0  0  0
    8.5189    1.0928   -0.2576 C   0  0  0  0  0  0  0  0  0  0  0  0
    8.1465    0.3149   -1.3205 C   0  0  0  0  0  0  0  0  0  0  0  0
    6.9105   -0.2394   -1.4147 C   0  0  0  0  0  0  0  0  0  0  0  0
   -0.7631    0.5581   -2.0812 C   0  0  0  0  0  0  0  0  0  0  0  0
   -2.0066   -0.0093   -1.8943 C   0  0  0  0  0  0  0  0  0  0  0  0
   -2.1962   -1.3318   -1.5413 C   0  0  0  0  0  0  0  0  0  0  0  0
   -5.1213    0.1577    0.2138 C   0  0  0  0  0  0  0  0  0  0  0  0
   -5.6098    0.6706    1.4201 C   0  0  0  0  0  0  0  0  0  0  0  0
   -6.9795    2.3929    2.9942 H   0  0  0  0  0  0  0  0  0  0  0  0
   -7.1383    1.9596    4.7198 H   0  0  0  0  0  0  0  0  0  0  0  0
   -5.5020    1.9836    4.0293 H   0  0  0  0  0  0  0  0  0  0  0  0
   -6.8372   -2.1286    2.7263 H   0  0  0  0  0  0  0  0  0  0  0  0
   -5.9571   -3.0512    0.5547 H   0  0  0  0  0  0  0  0  0  0  0  0
   -5.3639   -2.5148   -1.7434 H   0  0  0  0  0  0  0  0  0  0  0  0
   -4.8432   -0.8652   -2.1275 H   0  0  0  0  0  0  0  0  0  0  0  0
    1.0823   -2.1604   -1.4305 H   0  0  0  0  0  0  0  0  0  0  0  0
    1.0326    2.8496   -1.1806 H   0  0  0  0  0  0  0  0  0  0  0  0
    2.5212    3.3853   -0.3009 H   0  0  0  0  0  0  0  0  0  0  0  0
    0.0722    2.2440    0.8726 H   0  0  0  0  0  0  0  0  0  0  0  0
    1.6267    2.7990    1.6819 H   0  0  0  0  0  0  0  0  0  0  0  0
    1.7805    0.5177    2.1932 H   0  0  0  0  0  0  0  0  0  0  0  0
    0.8689    0.0681    0.7187 H   0  0  0  0  0  0  0  0  0  0  0  0
    3.5719    1.4693    0.8967 H   0  0  0  0  0  0  0  0  0  0  0  0
    2.9027   -1.3695   -0.1585 H   0  0  0  0  0  0  0  0  0  0  0  0
    3.8468   -0.9154    1.2761 H   0  0  0  0  0  0  0  0  0  0  0  0
    5.6678    0.9463    1.4883 H   0  0  0  0  0  0  0  0  0  0  0  0
    7.8411    1.9136    1.5961 H   0  0  0  0  0  0  0  0  0  0  0  0
    9.5240    1.5398   -0.1888 H   0  0  0  0  0  0  0  0  0  0  0  0
    8.9144    0.1712   -2.0897 H   0  0  0  0  0  0  0  0  0  0  0  0
    6.6183   -0.8519   -2.2521 H   0  0  0  0  0  0  0  0  0  0  0  0
   -0.6446    1.6052   -2.3596 H   0  0  0  0  0  0  0  0  0  0  0  0
   -2.8557    0.6297   -2.0376 H   0  0  0  0  0  0  0  0  0  0  0  0
   -4.6429    0.8516   -0.4651 H   0  0  0  0  0  0  0  0  0  0  0  0
   -5.5143    1.7264    1.6712 H   0  0  0  0  0  0  0  0  0  0  0  0
  1  2  1  0
  2  3  1  0
  3  4  2  0
  4  5  1  0
  5  6  2  0
  6  7  1  0
  7  8  1  0
  8  9  1  0
  9 10  2  0
  9 11  1  0
 11 12  2  0
 11 13  1  0
 13 14  2  0
 14 15  1  0
 15 16  1  0
 16 17  2  0
 16 18  2  0
 16 19  1  0
 19 20  1  0
 20 21  1  0
 21 22  1  0
 22 23  1  0
 23 24  1  0
 24 25  1  0
 25 26  1  0
 26 27  2  0
 27 28  1  0
 28 29  2  0
 29 30  1  0
 30 31  2  0
 15 32  2  0
 32 33  1  0
 33 34  2  0
  6 35  1  0
 35 36  2  0
 36  3  1  0
 34  8  1  0
 34 13  1  0
 23 19  1  0
 31 26  1  0
  1 37  1  0
  1 38  1  0
  1 39  1  0
  4 40  1  0
  5 41  1  0
  7 42  1  0
  7 43  1  0
 14 44  1  0
 20 45  1  0
 20 46  1  0
 21 47  1  0
 21 48  1  0
 22 49  1  0
 22 50  1  0
 23 51  1  1
 24 52  1  0
 24 53  1  0
 27 54  1  0
 28 55  1  0
 29 56  1  0
 30 57  1  0
 31 58  1  0
 32 59  1  0
 33 60  1  0
 35 61  1  0
 36 62  1  0
M  END
$$$$
