@<TRIPOS>MOLECULE
*****
 62 66 0 0 0
SMALL
GASTEIGER

@<TRIPOS>ATOM
      1 C          -6.5546    1.7548    3.7929 C.3     1  UNL1        0.0788
      2 O          -6.7045    0.3801    3.5167 O.3     1  UNL1       -0.4951
      3 C          -6.2275   -0.1568    2.3234 C.ar    1  UNL1        0.1201
      4 C          -6.3557   -1.4929    2.0196 C.ar    1  UNL1       -0.0196
      5 C          -5.8674   -2.0066    0.8134 C.ar    1  UNL1       -0.0536
      6 C          -5.2471   -1.1781   -0.0943 C.ar    1  UNL1       -0.0295
      7 C          -4.7232   -1.6891   -1.3706 C.3     1  UNL1        0.0452
      8 N          -3.3527   -2.1387   -1.2943 N.am    1  UNL1       -0.2598
      9 C          -2.9505   -3.4575   -0.9610 C.2     1  UNL1        0.2915
     10 O          -3.6617   -4.4507   -0.6789 O.2     1  UNL1       -0.2661
     11 C          -1.4720   -3.4657   -1.0041 C.2     1  UNL1        0.2496
     12 O          -0.7024   -4.4342   -0.7738 O.2     1  UNL1       -0.2817
     13 C          -1.0593   -2.1042   -1.3736 C.ar    1  UNL1        0.0502
     14 C           0.2089   -1.5389   -1.5608 C.ar    1  UNL1       -0.0226
     15 C           0.3632   -0.2196   -1.9115 C.ar    1  UNL1        0.1063
     16 S           1.9378    0.4986   -2.1401 S.O2    1  UNL1        0.0612
     17 O           1.8003    1.4535   -3.3302 O.2     1  UNL1       -0.1528
     18 O           2.8960   -0.5640   -2.6448 O.2     1  UNL1       -0.1528
     19 N           2.5430    1.3813   -0.8588 N.3     1  UNL1       -0.1703
     20 C           1.7952    2.5306   -0.4422 C.3     1  UNL1        0.0210
     21 C           1.1583    2.1638    0.8887 C.3     1  UNL1       -0.0370
     22 C           1.6293    0.7230    1.1279 C.3     1  UNL1       -0.0313
     23 C           2.9306    0.7587    0.3378 C.3     1  UNL1        0.0659
     24 C           3.5741   -0.5739    0.2245 C.3     1  UNL1        0.1067
     25 O           4.7194   -0.5863   -0.5138 O.3     1  UNL1       -0.4904
     26 C           5.9401   -0.0408   -0.4155 C.ar    1  UNL1        0.1206
     27 C           6.3177    0.7374    0.6462 C.ar    1  UNL1       -0.0199
     28 C           7.5936    1.3066    0.7377 C.ar    1  UNL1       -0.0583
     29 C           8.5189    1.0928   -0.2576 C.ar    1  UNL1       -0.0615
     30 C           8.1465    0.3149   -1.3205 C.ar    1  UNL1       -0.0583
     31 C           6.9105   -0.2394   -1.4147 C.ar    1  UNL1       -0.0199
     32 C          -0.7631    0.5581   -2.0812 C.ar    1  UNL1       -0.0335
     33 C          -2.0066   -0.0093   -1.8943 C.ar    1  UNL1       -0.0377
     34 C          -2.1962   -1.3318   -1.5413 C.ar    1  UNL1        0.0481
     35 C          -5.1213    0.1577    0.2138 C.ar    1  UNL1       -0.0536
     36 C          -5.6098    0.6706    1.4201 C.ar    1  UNL1       -0.0196
     37 H          -6.9795    2.3929    2.9942 H       1  UNL1        0.0660
     38 H          -7.1383    1.9596    4.7198 H       1  UNL1        0.0660
     39 H          -5.5020    1.9836    4.0293 H       1  UNL1        0.0660
     40 H          -6.8372   -2.1286    2.7263 H       1  UNL1        0.0654
     41 H          -5.9571   -3.0512    0.5547 H       1  UNL1        0.0622
     42 H          -5.3639   -2.5148   -1.7434 H       1  UNL1        0.0518
     43 H          -4.8432   -0.8652   -2.1275 H       1  UNL1        0.0518
     44 H           1.0823   -2.1604   -1.4305 H       1  UNL1        0.0645
     45 H           1.0326    2.8496   -1.1806 H       1  UNL1        0.0444
     46 H           2.5212    3.3853   -0.3009 H       1  UNL1        0.0444
     47 H           0.0722    2.2440    0.8726 H       1  UNL1        0.0279
     48 H           1.6267    2.7990    1.6819 H       1  UNL1        0.0279
     49 H           1.7805    0.5177    2.1932 H       1  UNL1        0.0282
     50 H           0.8689    0.0681    0.7187 H       1  UNL1        0.0282
     51 H           3.5719    1.4693    0.8967 H       1  UNL1        0.0513
     52 H           2.9027   -1.3695   -0.1585 H       1  UNL1        0.0713
     53 H           3.8468   -0.9154    1.2761 H       1  UNL1        0.0713
     54 H           5.6678    0.9463    1.4883 H       1  UNL1        0.0654
     55 H           7.8411    1.9136    1.5961 H       1  UNL1        0.0619
     56 H           9.5240    1.5398   -0.1888 H       1  UNL1        0.0618
     57 H           8.9144    0.1712   -2.0897 H       1  UNL1        0.0619
     58 H           6.6183   -0.8519   -2.2521 H       1  UNL1        0.0654
     59 H          -0.6446    1.6052   -2.3596 H       1  UNL1        0.0638
     60 H          -2.8557    0.6297   -2.0376 H       1  UNL1        0.0637
     61 H          -4.6429    0.8516   -0.4651 H       1  UNL1        0.0622
     62 H          -5.5143    1.7264    1.6712 H       1  UNL1        0.0654
@<TRIPOS>BOND
     1     1     2    1
     2     2     3    1
     3     3     4   ar
     4     4     5   ar
     5     5     6   ar
     6     6     7    1
     7     7     8    1
     8     8     9   am
     9     9    10    2
    10     9    11    1
    11    11    12    2
    12    11    13    1
    13    13    14   ar
    14    14    15   ar
    15    15    16    1
    16    16    17    2
    17    16    18    2
    18    16    19    1
    19    19    20    1
    20    20    21    1
    21    21    22    1
    22    22    23    1
    23    23    24    1
    24    24    25    1
    25    25    26    1
    26    26    27   ar
    27    27    28   ar
    28    28    29   ar
    29    29    30   ar
    30    30    31   ar
    31    15    32   ar
    32    32    33   ar
    33    33    34   ar
    34     6    35   ar
    35    35    36   ar
    36    36     3   ar
    37    34     8    1
    38    34    13   ar
    39    23    19    1
    40    31    26   ar
    41     1    37    1
    42     1    38    1
    43     1    39    1
    44     4    40    1
    45     5    41    1
    46     7    42    1
    47     7    43    1
    48    14    44    1
    49    20    45    1
    50    20    46    1
    51    21    47    1
    52    21    48    1
    53    22    49    1
    54    22    50    1
    55    23    51    1
    56    24    52    1
    57    24    53    1
    58    27    54    1
    59    28    55    1
    60    29    56    1
    61    30    57    1
    62    31    58    1
    63    32    59    1
    64    33    60    1
    65    35    61    1
    66    36    62    1
