
     RDKit          3D

 52 53  0  0  0  0  0  0  0  0999 V2000
   -3.7469   -4.0913   -1.3194 C   0  0  0  0  0  0  0  0  0  0  0  0
   -3.1630   -3.0984   -0.5565 O   0  0  0  0  0  0  0  0  0  0  0  0
   -2.2831   -2.1455   -0.8841 C   0  0  0  0  0  0  0  0  0  0  0  0
   -2.4026   -2.6833   -2.0412 O   0  0  0  0  0  0  0  0  0  0  0  0
   -1.6369   -1.1069   -0.0839 C   0  0  0  0  0  0  0  0  0  0  0  0
   -2.1037   -1.0862    1.1356 C   0  0  0  0  0  0  0  0  0  0  0  0
   -3.0710   -1.7362    2.0007 C   0  0  0  0  0  0  0  0  0  0  0  0
   -1.2096   -0.3970    2.0583 N   0  0  0  0  0  0  0  0  0  0  0  0
   -0.0048    0.1860    1.5756 C   0  0  0  0  0  0  0  0  0  0  0  0
    1.0219    0.9302    2.3390 C   0  0  0  0  0  0  0  0  0  0  0  0
    0.3064    0.1948    0.2774 C   0  0  0  0  0  0  0  0  0  0  0  0
   -0.6081   -0.3255   -0.7947 C   0  0  0  0  0  0  0  0  0  0  0  0
   -1.3485    1.0572   -0.9445 C   0  0  0  0  0  0  0  0  0  0  0  0
   -0.6835    2.2749   -0.5891 C   0  0  0  0  0  0  0  0  0  0  0  0
   -1.3189    3.4626   -0.4734 C   0  0  0  0  0  0  0  0  0  0  0  0
   -2.6330    3.6464   -0.6953 C   0  0  0  0  0  0  0  0  0  0  0  0
   -3.3069    2.5132   -1.0593 C   0  0  0  0  0  0  0  0  0  0  0  0
   -2.6685    1.3126   -1.1628 C   0  0  0  0  0  0  0  0  0  0  0  0
   -3.5758    0.3551   -1.6753 N   0  0  0  0  0  4  0  0  0  0  0  0
   -4.5658   -0.5008   -2.0599 O   0  0  0  0  0  1  0  0  0  0  0  0
   -4.7909    0.2709   -1.2249 O   0  0  0  0  0  0  0  0  0  0  0  0
    1.6224    0.5778   -0.3158 C   0  0  0  0  0  0  0  0  0  0  0  0
    2.0154    0.5368   -1.5428 O   0  0  0  0  0  0  0  0  0  0  0  0
    2.7449    1.0667    0.3108 O   0  0  0  0  0  0  0  0  0  0  0  0
    3.9707    1.3063   -0.3448 C   0  0  0  0  0  0  0  0  0  0  0  0
    4.5682   -0.1110   -0.6426 C   0  0  0  0  0  0  0  0  0  0  0  0
    4.6836   -0.7458    0.7374 C   0  0  0  0  0  0  0  0  0  0  0  0
    5.8892    0.1097   -1.2930 C   0  0  0  0  0  0  0  0  0  0  0  0
   -2.9688   -4.8715   -1.7374 H   0  0  0  0  0  0  0  0  0  0  0  0
   -4.4044   -4.7585   -0.6351 H   0  0  0  0  0  0  0  0  0  0  0  0
   -4.4254   -3.7843   -2.1285 H   0  0  0  0  0  0  0  0  0  0  0  0
   -2.5969   -2.5099    2.6781 H   0  0  0  0  0  0  0  0  0  0  0  0
   -3.5111   -1.0077    2.6932 H   0  0  0  0  0  0  0  0  0  0  0  0
   -3.9013   -2.1593    1.3801 H   0  0  0  0  0  0  0  0  0  0  0  0
   -1.3102   -0.1716    3.0499 H   0  0  0  0  0  0  0  0  0  0  0  0
    1.2151    1.9625    1.9112 H   0  0  0  0  0  0  0  0  0  0  0  0
    1.9690    0.3644    2.3830 H   0  0  0  0  0  0  0  0  0  0  0  0
    0.7152    1.1092    3.4001 H   0  0  0  0  0  0  0  0  0  0  0  0
   -0.2427   -0.6931   -1.6673 H   0  0  0  0  0  0  0  0  0  0  0  0
    0.3568    2.3178   -0.3716 H   0  0  0  0  0  0  0  0  0  0  0  0
   -0.6874    4.3393   -0.1895 H   0  0  0  0  0  0  0  0  0  0  0  0
   -3.0347    4.6280   -0.5671 H   0  0  0  0  0  0  0  0  0  0  0  0
   -4.3766    2.7221   -1.2405 H   0  0  0  0  0  0  0  0  0  0  0  0
    4.6563    1.8472    0.3052 H   0  0  0  0  0  0  0  0  0  0  0  0
    3.8901    1.8489   -1.3024 H   0  0  0  0  0  0  0  0  0  0  0  0
    3.9461   -0.6591   -1.3478 H   0  0  0  0  0  0  0  0  0  0  0  0
    5.7562   -0.6397    1.0611 H   0  0  0  0  0  0  0  0  0  0  0  0
    4.3514   -1.7730    0.7928 H   0  0  0  0  0  0  0  0  0  0  0  0
    4.1338   -0.1871    1.4988 H   0  0  0  0  0  0  0  0  0  0  0  0
    6.6578   -0.4617   -0.6740 H   0  0  0  0  0  0  0  0  0  0  0  0
    5.9382   -0.4044   -2.2745 H   0  0  0  0  0  0  0  0  0  0  0  0
    6.1721    1.1681   -1.3153 H   0  0  0  0  0  0  0  0  0  0  0  0
  1  2  1  0
  2  3  1  0
  3  4  2  0
  3  5  1  0
  5  6  2  0
  6  7  1  0
  6  8  1  0
  8  9  1  0
  9 10  1  0
  9 11  2  0
 11 12  1  0
 12 13  1  0
 13 14  2  0
 14 15  1  0
 15 16  2  0
 16 17  1  0
 17 18  2  0
 18 19  1  0
 19 20  1  0
 19 21  2  0
 11 22  1  0
 22 23  2  0
 22 24  1  0
 24 25  1  0
 25 26  1  0
 26 27  1  0
 26 28  1  0
 12  5  1  0
 18 13  1  0
  1 29  1  0
  1 30  1  0
  1 31  1  0
  7 32  1  0
  7 33  1  0
  7 34  1  0
  8 35  1  0
 10 36  1  0
 10 37  1  0
 10 38  1  0
 12 39  1  0
 14 40  1  0
 15 41  1  0
 16 42  1  0
 17 43  1  0
 25 44  1  0
 25 45  1  0
 26 46  1  0
 27 47  1  0
 27 48  1  0
 27 49  1  0
 28 50  1  0
 28 51  1  0
 28 52  1  0
M  CHG  2  19   1  20  -1
M  END
$$$$
