@<TRIPOS>MOLECULE
*****
 52 53 0 0 0
SMALL
GASTEIGER

@<TRIPOS>ATOM
      1 C          -3.7469   -4.0913   -1.3194 C.3     1  UNL1        0.0820
      2 O          -3.1630   -3.0984   -0.5565 O.3     1  UNL1       -0.4646
      3 C          -2.2831   -2.1455   -0.8841 C.2     1  UNL1        0.3373
      4 O          -2.4026   -2.6833   -2.0412 O.2     1  UNL1       -0.2452
      5 C          -1.6369   -1.1069   -0.0839 C.2     1  UNL1        0.0654
      6 C          -2.1037   -1.0862    1.1356 C.2     1  UNL1        0.0157
      7 C          -3.0710   -1.7362    2.0007 C.3     1  UNL1       -0.0260
      8 N          -1.2096   -0.3970    2.0583 N.pl3   1  UNL1       -0.3207
      9 C          -0.0048    0.1860    1.5756 C.2     1  UNL1        0.0157
     10 C           1.0219    0.9302    2.3390 C.3     1  UNL1       -0.0260
     11 C           0.3064    0.1948    0.2774 C.2     1  UNL1        0.0654
     12 C          -0.6081   -0.3255   -0.7947 C.3     1  UNL1        0.0570
     13 C          -1.3485    1.0572   -0.9445 C.ar    1  UNL1        0.0419
     14 C          -0.6835    2.2749   -0.5891 C.ar    1  UNL1       -0.0512
     15 C          -1.3189    3.4626   -0.4734 C.ar    1  UNL1       -0.0611
     16 C          -2.6330    3.6464   -0.6953 C.ar    1  UNL1       -0.0553
     17 C          -3.3069    2.5132   -1.0593 C.ar    1  UNL1        0.0159
     18 C          -2.6685    1.3126   -1.1628 C.ar    1  UNL1        0.2772
     19 N          -3.5758    0.3551   -1.6753 N.pl3   1  UNL1        0.0799
     20 O          -4.5658   -0.5008   -2.0599 O.co2   1  UNL1       -0.5760
     21 O          -4.7909    0.2709   -1.2249 O.2     1  UNL1        0.0415
     22 C           1.6224    0.5778   -0.3158 C.2     1  UNL1        0.3375
     23 O           2.0154    0.5368   -1.5428 O.2     1  UNL1       -0.2452
     24 O           2.7449    1.0667    0.3108 O.3     1  UNL1       -0.4611
     25 C           3.9707    1.3063   -0.3448 C.3     1  UNL1        0.0951
     26 C           4.5682   -0.1110   -0.6426 C.3     1  UNL1       -0.0123
     27 C           4.6836   -0.7458    0.7374 C.3     1  UNL1       -0.0596
     28 C           5.8892    0.1097   -1.2930 C.3     1  UNL1       -0.0596
     29 H          -2.9688   -4.8715   -1.7374 H       1  UNL1        0.0661
     30 H          -4.4044   -4.7585   -0.6351 H       1  UNL1        0.0661
     31 H          -4.4254   -3.7843   -2.1285 H       1  UNL1        0.0661
     32 H          -2.5969   -2.5099    2.6781 H       1  UNL1        0.0290
     33 H          -3.5111   -1.0077    2.6932 H       1  UNL1        0.0290
     34 H          -3.9013   -2.1593    1.3801 H       1  UNL1        0.0290
     35 H          -1.3102   -0.1716    3.0499 H       1  UNL1        0.1516
     36 H           1.2151    1.9625    1.9112 H       1  UNL1        0.0290
     37 H           1.9690    0.3644    2.3830 H       1  UNL1        0.0290
     38 H           0.7152    1.1092    3.4001 H       1  UNL1        0.0290
     39 H          -0.2427   -0.6931   -1.6673 H       1  UNL1        0.0454
     40 H           0.3568    2.3178   -0.3716 H       1  UNL1        0.0623
     41 H          -0.6874    4.3393   -0.1895 H       1  UNL1        0.0618
     42 H          -3.0347    4.6280   -0.5671 H       1  UNL1        0.0620
     43 H          -4.3766    2.7221   -1.2405 H       1  UNL1        0.0685
     44 H           4.6563    1.8472    0.3052 H       1  UNL1        0.0700
     45 H           3.8901    1.8489   -1.3024 H       1  UNL1        0.0700
     46 H           3.9461   -0.6591   -1.3478 H       1  UNL1        0.0328
     47 H           5.7562   -0.6397    1.0611 H       1  UNL1        0.0233
     48 H           4.3514   -1.7730    0.7928 H       1  UNL1        0.0233
     49 H           4.1338   -0.1871    1.4988 H       1  UNL1        0.0233
     50 H           6.6578   -0.4617   -0.6740 H       1  UNL1        0.0233
     51 H           5.9382   -0.4044   -2.2745 H       1  UNL1        0.0233
     52 H           6.1721    1.1681   -1.3153 H       1  UNL1        0.0233
@<TRIPOS>UNITY_ATOM_ATTR
19 1
charge 1
20 1
charge -1
@<TRIPOS>BOND
     1     1     2    1
     2     2     3    1
     3     3     4    2
     4     3     5    1
     5     5     6    2
     6     6     7    1
     7     6     8    1
     8     8     9    1
     9     9    10    1
    10     9    11    2
    11    11    12    1
    12    12    13    1
    13    13    14   ar
    14    14    15   ar
    15    15    16   ar
    16    16    17   ar
    17    17    18   ar
    18    18    19    1
    19    19    20    1
    20    19    21    2
    21    11    22    1
    22    22    23    2
    23    22    24    1
    24    24    25    1
    25    25    26    1
    26    26    27    1
    27    26    28    1
    28    12     5    1
    29    18    13   ar
    30     1    29    1
    31     1    30    1
    32     1    31    1
    33     7    32    1
    34     7    33    1
    35     7    34    1
    36     8    35    1
    37    10    36    1
    38    10    37    1
    39    10    38    1
    40    12    39    1
    41    14    40    1
    42    15    41    1
    43    16    42    1
    44    17    43    1
    45    25    44    1
    46    25    45    1
    47    26    46    1
    48    27    47    1
    49    27    48    1
    50    27    49    1
    51    28    50    1
    52    28    51    1
    53    28    52    1
