@<TRIPOS>MOLECULE
*****
 66 69 0 0 0
SMALL
GASTEIGER

@<TRIPOS>ATOM
      1 C           0.1526   -1.8980    2.0621 C.3     1  UNL1       -0.0421
      2 C           0.4359   -0.4373    1.7106 C.3     1  UNL1        0.0515
      3 C           1.7832   -0.4415    1.1044 C.ar    1  UNL1       -0.0271
      4 C           2.1278   -1.3095    0.0934 C.ar    1  UNL1       -0.0562
      5 C           3.3974   -1.2959   -0.4964 C.ar    1  UNL1       -0.0537
      6 C           4.3469   -0.3939   -0.0656 C.ar    1  UNL1       -0.0165
      7 C           5.6784   -0.3571   -0.6625 C.ar    1  UNL1       -0.0015
      8 C           5.8696   -0.6805   -1.9917 C.ar    1  UNL1       -0.0475
      9 C           7.1313   -0.6334   -2.5147 C.ar    1  UNL1        0.0036
     10 C           8.1903   -0.2656   -1.7128 C.ar    1  UNL1        0.2511
     11 O           9.3548   -0.2198   -2.1857 O.2     1  UNL1       -0.2677
     12 N           7.9997    0.0487   -0.4195 N.ar    1  UNL1       -0.3177
     13 C           9.1118    0.4350    0.4219 C.3     1  UNL1        0.0147
     14 C           6.7601    0.0030    0.0971 C.ar    1  UNL1        0.0153
     15 C           4.0059    0.4726    0.9439 C.ar    1  UNL1       -0.0537
     16 C           2.7576    0.4570    1.5211 C.ar    1  UNL1       -0.0562
     17 N          -0.5590    0.0907    0.8259 N.am    1  UNL1       -0.2605
     18 C          -0.7196   -0.4256   -0.4904 C.3     1  UNL1        0.0224
     19 C          -1.8705    0.2059   -1.1863 C.3     1  UNL1        0.0076
     20 C          -3.0945    0.4587   -0.3476 C.3     1  UNL1        0.1440
     21 C          -3.6843   -0.8505    0.0592 C.3     1  UNL1        0.0199
     22 C          -4.9075   -0.7746    0.9132 C.3     1  UNL1        0.0645
     23 C          -4.6448   -0.0493    2.2257 C.3     1  UNL1       -0.0362
     24 C          -5.2773   -2.2157    1.2889 C.3     1  UNL1       -0.0362
     25 O          -6.0140   -0.2364    0.3053 O.3     1  UNL1       -0.3890
     26 C          -4.0643    1.3334   -1.0802 C.ar    1  UNL1       -0.0039
     27 C          -4.0781    2.6992   -0.8413 C.ar    1  UNL1       -0.0521
     28 C          -4.9475    3.5317   -1.5133 C.ar    1  UNL1       -0.0261
     29 C          -5.8085    2.9689   -2.4351 C.ar    1  UNL1        0.1234
     30 F          -6.6757    3.7847   -3.1080 F       1  UNL1       -0.2055
     31 C          -5.8048    1.6134   -2.6819 C.ar    1  UNL1       -0.0261
     32 C          -4.9155    0.7774   -1.9918 C.ar    1  UNL1       -0.0521
     33 O          -2.7244    1.1671    0.8400 O.3     1  UNL1       -0.4387
     34 C          -1.3868    1.1448    1.2613 C.2     1  UNL1        0.4042
     35 O          -0.9704    2.0454    2.0004 O.2     1  UNL1       -0.2262
     36 H           1.0859   -2.2588    2.5626 H       1  UNL1        0.0251
     37 H           0.0297   -2.5200    1.1566 H       1  UNL1        0.0251
     38 H          -0.6435   -2.0055    2.8072 H       1  UNL1        0.0251
     39 H           0.4569    0.0902    2.6897 H       1  UNL1        0.0549
     40 H           1.4375   -2.0695   -0.2973 H       1  UNL1        0.0621
     41 H           3.6557   -1.9810   -1.2886 H       1  UNL1        0.0624
     42 H           5.0092   -0.9671   -2.5980 H       1  UNL1        0.0626
     43 H           7.3017   -0.8818   -3.5482 H       1  UNL1        0.0672
     44 H           9.0696   -0.0970    1.3879 H       1  UNL1        0.0457
     45 H           9.0658    1.5385    0.5554 H       1  UNL1        0.0457
     46 H          10.0574    0.2188   -0.1124 H       1  UNL1        0.0457
     47 H           6.6273    0.2609    1.1461 H       1  UNL1        0.0816
     48 H           4.7566    1.1877    1.2870 H       1  UNL1        0.0624
     49 H           2.5172    1.1461    2.3098 H       1  UNL1        0.0621
     50 H           0.2512   -0.1998   -1.0157 H       1  UNL1        0.0467
     51 H          -0.8710   -1.5267   -0.5200 H       1  UNL1        0.0467
     52 H          -1.5964    1.1306   -1.7489 H       1  UNL1        0.0322
     53 H          -2.1882   -0.5042   -2.0104 H       1  UNL1        0.0322
     54 H          -3.9075   -1.4437   -0.8612 H       1  UNL1        0.0335
     55 H          -2.9471   -1.4894    0.6187 H       1  UNL1        0.0335
     56 H          -4.6802    1.0376    2.1398 H       1  UNL1        0.0257
     57 H          -5.5037   -0.3381    2.8919 H       1  UNL1        0.0257
     58 H          -3.7378   -0.4631    2.6926 H       1  UNL1        0.0257
     59 H          -4.9789   -2.9302    0.4902 H       1  UNL1        0.0257
     60 H          -6.3779   -2.3005    1.4561 H       1  UNL1        0.0257
     61 H          -4.7893   -2.5536    2.2116 H       1  UNL1        0.0257
     62 H          -6.3141    0.6241    0.6910 H       1  UNL1        0.2101
     63 H          -3.3823    3.0833   -0.1092 H       1  UNL1        0.0622
     64 H          -4.9674    4.6038   -1.3325 H       1  UNL1        0.0646
     65 H          -6.4758    1.1432   -3.4076 H       1  UNL1        0.0646
     66 H          -4.9164   -0.2878   -2.1936 H       1  UNL1        0.0622
@<TRIPOS>BOND
     1     1     2    1
     2     2     3    1
     3     3     4   ar
     4     4     5   ar
     5     5     6   ar
     6     6     7    1
     7     7     8   ar
     8     8     9   ar
     9     9    10   ar
    10    10    11    2
    11    10    12   ar
    12    12    13    1
    13    12    14   ar
    14     6    15   ar
    15    15    16   ar
    16     2    17    1
    17    17    18    1
    18    18    19    1
    19    19    20    1
    20    20    21    1
    21    21    22    1
    22    22    23    1
    23    22    24    1
    24    22    25    1
    25    20    26    1
    26    26    27   ar
    27    27    28   ar
    28    28    29   ar
    29    29    30    1
    30    29    31   ar
    31    31    32   ar
    32    20    33    1
    33    33    34    1
    34    34    35    2
    35    16     3   ar
    36    34    17   am
    37    14     7   ar
    38    32    26   ar
    39     1    36    1
    40     1    37    1
    41     1    38    1
    42     2    39    1
    43     4    40    1
    44     5    41    1
    45     8    42    1
    46     9    43    1
    47    13    44    1
    48    13    45    1
    49    13    46    1
    50    14    47    1
    51    15    48    1
    52    16    49    1
    53    18    50    1
    54    18    51    1
    55    19    52    1
    56    19    53    1
    57    21    54    1
    58    21    55    1
    59    23    56    1
    60    23    57    1
    61    23    58    1
    62    24    59    1
    63    24    60    1
    64    24    61    1
    65    25    62    1
    66    27    63    1
    67    28    64    1
    68    31    65    1
    69    32    66    1
