
     RDKit          3D

 71 72  0  0  0  0  0  0  0  0999 V2000
   -8.8654    1.0043   -0.0511 C   0  0  0  0  0  0  0  0  0  0  0  0
   -7.5780    0.8773    0.7894 C   0  0  0  0  0  0  0  0  0  0  0  0
   -7.8229    1.4875    2.1686 C   0  0  0  0  0  0  0  0  0  0  0  0
   -6.6250    1.6404    0.1327 O   0  0  0  0  0  0  0  0  0  0  0  0
   -5.4209    1.3081   -0.4050 C   0  0  0  0  0  0  0  0  0  0  0  0
   -5.6237    0.1282   -0.0374 O   0  0  0  0  0  0  0  0  0  0  0  0
   -4.8147    2.5233   -0.9858 C   0  0  0  0  0  0  0  0  0  0  0  0
   -3.4770    2.2524   -1.5599 C   0  0  0  0  0  0  0  0  0  0  0  0
   -2.3701    1.8633   -0.6668 C   0  0  0  0  0  0  0  0  0  0  0  0
   -2.5221    0.6687    0.1748 C   0  0  0  0  0  0  0  0  0  0  0  0
   -1.8889   -0.5349    0.2849 C   0  0  0  0  0  0  0  0  0  0  0  0
   -0.7598   -0.8838   -0.5702 C   0  0  0  0  0  0  0  0  0  0  0  0
    0.5293   -1.1734    0.1367 C   0  0  1  0  0  0  0  0  0  0  0  0
    0.3793   -2.3384    1.0519 C   0  0  1  0  0  0  0  0  0  0  0  0
   -0.8610   -2.5074    1.5918 O   0  0  0  0  0  0  0  0  0  0  0  0
    0.6610   -3.5046    0.1208 C   0  0  0  0  0  0  0  0  0  0  0  0
    1.8792   -2.9529   -0.6713 C   0  0  1  0  0  0  0  0  0  0  0  0
    1.8206   -3.7137   -1.8700 O   0  0  0  0  0  0  0  0  0  0  0  0
    1.6148   -1.5465   -0.8994 C   0  0  2  0  0  0  0  0  0  0  0  0
    2.6195   -0.4914   -0.8842 C   0  0  0  0  0  0  0  0  0  0  0  0
    3.8033   -0.5199   -1.7540 C   0  0  0  0  0  0  0  0  0  0  0  0
    4.7589   -1.6365   -1.4664 C   0  0  1  0  0  0  0  0  0  0  0  0
    5.8403   -1.5440   -2.4145 O   0  0  0  0  0  0  0  0  0  0  0  0
    5.3172   -1.7285   -0.1031 C   0  0  0  0  0  0  0  0  0  0  0  0
    6.1512   -0.6810    0.4849 C   0  0  0  0  0  0  0  0  0  0  0  0
    5.6857    0.6641    0.7146 C   0  0  0  0  0  0  0  0  0  0  0  0
    4.9854    0.7826    1.9301 C   0  0  0  0  0  0  0  0  0  0  0  0
    4.4640    1.9529    2.4262 C   0  0  0  0  0  0  0  0  0  0  0  0
    4.6120    3.1228    1.7176 C   0  0  0  0  0  0  0  0  0  0  0  0
    5.2877    3.0761    0.5191 C   0  0  0  0  0  0  0  0  0  0  0  0
    5.7921    1.8940    0.0582 C   0  0  0  0  0  0  0  0  0  0  0  0
   -8.5302    0.9488   -1.1060 H   0  0  0  0  0  0  0  0  0  0  0  0
   -9.5844    0.2069    0.2283 H   0  0  0  0  0  0  0  0  0  0  0  0
   -9.2554    2.0294    0.1161 H   0  0  0  0  0  0  0  0  0  0  0  0
   -7.3956   -0.1789    0.9414 H   0  0  0  0  0  0  0  0  0  0  0  0
   -8.5053    0.8484    2.7624 H   0  0  0  0  0  0  0  0  0  0  0  0
   -8.3271    2.4651    1.9630 H   0  0  0  0  0  0  0  0  0  0  0  0
   -6.8550    1.6221    2.6749 H   0  0  0  0  0  0  0  0  0  0  0  0
   -4.8094    3.3673   -0.2496 H   0  0  0  0  0  0  0  0  0  0  0  0
   -5.5154    2.8562   -1.8136 H   0  0  0  0  0  0  0  0  0  0  0  0
   -3.6518    1.4847   -2.3846 H   0  0  0  0  0  0  0  0  0  0  0  0
   -3.1419    3.2114   -2.0850 H   0  0  0  0  0  0  0  0  0  0  0  0
   -1.3890    1.8086   -1.2620 H   0  0  0  0  0  0  0  0  0  0  0  0
   -2.1455    2.7847   -0.0256 H   0  0  0  0  0  0  0  0  0  0  0  0
   -3.3537    1.0166    0.8145 H   0  0  0  0  0  0  0  0  0  0  0  0
   -2.4397   -1.0252    1.0775 H   0  0  0  0  0  0  0  0  0  0  0  0
   -0.5656   -0.0099   -1.2484 H   0  0  0  0  0  0  0  0  0  0  0  0
   -0.9666   -1.7933   -1.2005 H   0  0  0  0  0  0  0  0  0  0  0  0
    0.8832   -0.2599    0.7163 H   0  0  0  0  0  0  0  0  0  0  0  0
    1.1852   -2.3908    1.8233 H   0  0  0  0  0  0  0  0  0  0  0  0
   -1.0510   -3.4537    1.8234 H   0  0  0  0  0  0  0  0  0  0  0  0
    0.9534   -4.3818    0.7236 H   0  0  0  0  0  0  0  0  0  0  0  0
   -0.1643   -3.7732   -0.5338 H   0  0  0  0  0  0  0  0  0  0  0  0
    2.7355   -3.3164   -0.1417 H   0  0  0  0  0  0  0  0  0  0  0  0
    1.7117   -3.0611   -2.6002 H   0  0  0  0  0  0  0  0  0  0  0  0
    1.0589   -1.4894   -1.9085 H   0  0  0  0  0  0  0  0  0  0  0  0
    2.0933    0.5020   -1.0694 H   0  0  0  0  0  0  0  0  0  0  0  0
    3.0104   -0.3291    0.1727 H   0  0  0  0  0  0  0  0  0  0  0  0
    4.3580    0.4308   -1.6989 H   0  0  0  0  0  0  0  0  0  0  0  0
    3.5111   -0.5439   -2.8607 H   0  0  0  0  0  0  0  0  0  0  0  0
    4.3050   -2.6101   -1.7305 H   0  0  0  0  0  0  0  0  0  0  0  0
    5.3875   -1.7018   -3.2846 H   0  0  0  0  0  0  0  0  0  0  0  0
    4.4367   -1.9925    0.5779 H   0  0  0  0  0  0  0  0  0  0  0  0
    5.9289   -2.6940   -0.0244 H   0  0  0  0  0  0  0  0  0  0  0  0
    6.5645   -1.1193    1.4625 H   0  0  0  0  0  0  0  0  0  0  0  0
    7.1263   -0.6802   -0.1388 H   0  0  0  0  0  0  0  0  0  0  0  0
    4.7803   -0.0534    2.6154 H   0  0  0  0  0  0  0  0  0  0  0  0
    3.9294    2.0511    3.3508 H   0  0  0  0  0  0  0  0  0  0  0  0
    4.2685    4.1160    1.9607 H   0  0  0  0  0  0  0  0  0  0  0  0
    5.5006    3.8935   -0.1731 H   0  0  0  0  0  0  0  0  0  0  0  0
    6.3463    1.7255   -0.8758 H   0  0  0  0  0  0  0  0  0  0  0  0
  1  2  1  0
  2  3  1  0
  2  4  1  0
  4  5  1  0
  5  6  2  0
  5  7  1  0
  7  8  1  0
  8  9  1  0
  9 10  1  0
 10 11  2  0
 11 12  1  0
 12 13  1  0
 13 14  1  0
 14 15  1  0
 14 16  1  0
 16 17  1  0
 17 18  1  0
 17 19  1  0
 19 20  1  0
 20 21  1  0
 21 22  1  0
 22 23  1  0
 22 24  1  0
 24 25  1  0
 25 26  1  0
 26 27  2  0
 27 28  1  0
 28 29  2  0
 29 30  1  0
 30 31  2  0
 19 13  1  0
 31 26  1  0
  1 32  1  0
  1 33  1  0
  1 34  1  0
  2 35  1  0
  3 36  1  0
  3 37  1  0
  3 38  1  0
  7 39  1  0
  7 40  1  0
  8 41  1  0
  8 42  1  0
  9 43  1  0
  9 44  1  0
 10 45  1  0
 11 46  1  0
 12 47  1  0
 12 48  1  0
 13 49  1  1
 14 50  1  1
 15 51  1  0
 16 52  1  0
 16 53  1  0
 17 54  1  1
 18 55  1  0
 19 56  1  6
 20 57  1  0
 20 58  1  0
 21 59  1  0
 21 60  1  0
 22 61  1  6
 23 62  1  0
 24 63  1  0
 24 64  1  0
 25 65  1  0
 25 66  1  0
 27 67  1  0
 28 68  1  0
 29 69  1  0
 30 70  1  0
 31 71  1  0
M  END
$$$$
