@<TRIPOS>MOLECULE
*****
 71 72 0 0 0
SMALL
GASTEIGER

@<TRIPOS>ATOM
      1 C          -8.8654    1.0043   -0.0511 C.3     1  UNL1       -0.0280
      2 C          -7.5780    0.8773    0.7894 C.3     1  UNL1        0.0975
      3 C          -7.8229    1.4875    2.1686 C.3     1  UNL1       -0.0280
      4 O          -6.6250    1.6404    0.1327 O.3     1  UNL1       -0.4619
      5 C          -5.4209    1.3081   -0.4050 C.2     1  UNL1        0.3073
      6 O          -5.6237    0.1282   -0.0374 O.2     1  UNL1       -0.2508
      7 C          -4.8147    2.5233   -0.9858 C.3     1  UNL1        0.0452
      8 C          -3.4770    2.2524   -1.5599 C.3     1  UNL1       -0.0395
      9 C          -2.3701    1.8633   -0.6668 C.3     1  UNL1       -0.0343
     10 C          -2.5221    0.6687    0.1748 C.2     1  UNL1       -0.0879
     11 C          -1.8889   -0.5349    0.2849 C.2     1  UNL1       -0.0876
     12 C          -0.7598   -0.8838   -0.5702 C.3     1  UNL1       -0.0292
     13 C           0.5293   -1.1734    0.1367 C.3     1  UNL1       -0.0063
     14 C           0.3793   -2.3384    1.0519 C.3     1  UNL1        0.0610
     15 O          -0.8610   -2.5074    1.5918 O.3     1  UNL1       -0.3914
     16 C           0.6610   -3.5046    0.1208 C.3     1  UNL1       -0.0002
     17 C           1.8792   -2.9529   -0.6713 C.3     1  UNL1        0.0607
     18 O           1.8206   -3.7137   -1.8700 O.3     1  UNL1       -0.3914
     19 C           1.6148   -1.5465   -0.8994 C.3     1  UNL1       -0.0094
     20 C           2.6195   -0.4914   -0.8842 C.3     1  UNL1       -0.0452
     21 C           3.8033   -0.5199   -1.7540 C.3     1  UNL1       -0.0265
     22 C           4.7589   -1.6365   -1.4664 C.3     1  UNL1        0.0556
     23 O           5.8403   -1.5440   -2.4145 O.3     1  UNL1       -0.3918
     24 C           5.3172   -1.7285   -0.1031 C.3     1  UNL1       -0.0229
     25 C           6.1512   -0.6810    0.4849 C.3     1  UNL1       -0.0253
     26 C           5.6857    0.6641    0.7146 C.ar    1  UNL1       -0.0473
     27 C           4.9854    0.7826    1.9301 C.ar    1  UNL1       -0.0586
     28 C           4.4640    1.9529    2.4262 C.ar    1  UNL1       -0.0615
     29 C           4.6120    3.1228    1.7176 C.ar    1  UNL1       -0.0617
     30 C           5.2877    3.0761    0.5191 C.ar    1  UNL1       -0.0615
     31 C           5.7921    1.8940    0.0582 C.ar    1  UNL1       -0.0586
     32 H          -8.5302    0.9488   -1.1060 H       1  UNL1        0.0265
     33 H          -9.5844    0.2069    0.2283 H       1  UNL1        0.0265
     34 H          -9.2554    2.0294    0.1161 H       1  UNL1        0.0265
     35 H          -7.3956   -0.1789    0.9414 H       1  UNL1        0.0728
     36 H          -8.5053    0.8484    2.7624 H       1  UNL1        0.0265
     37 H          -8.3271    2.4651    1.9630 H       1  UNL1        0.0265
     38 H          -6.8550    1.6221    2.6749 H       1  UNL1        0.0265
     39 H          -4.8094    3.3673   -0.2496 H       1  UNL1        0.0378
     40 H          -5.5154    2.8562   -1.8136 H       1  UNL1        0.0378
     41 H          -3.6518    1.4847   -2.3846 H       1  UNL1        0.0273
     42 H          -3.1419    3.2114   -2.0850 H       1  UNL1        0.0273
     43 H          -1.3890    1.8086   -1.2620 H       1  UNL1        0.0307
     44 H          -2.1455    2.7847   -0.0256 H       1  UNL1        0.0307
     45 H          -3.3537    1.0166    0.8145 H       1  UNL1        0.0569
     46 H          -2.4397   -1.0252    1.0775 H       1  UNL1        0.0569
     47 H          -0.5656   -0.0099   -1.2484 H       1  UNL1        0.0311
     48 H          -0.9666   -1.7933   -1.2005 H       1  UNL1        0.0311
     49 H           0.8832   -0.2599    0.7163 H       1  UNL1        0.0332
     50 H           1.1852   -2.3908    1.8233 H       1  UNL1        0.0597
     51 H          -1.0510   -3.4537    1.8234 H       1  UNL1        0.2098
     52 H           0.9534   -4.3818    0.7236 H       1  UNL1        0.0315
     53 H          -0.1643   -3.7732   -0.5338 H       1  UNL1        0.0315
     54 H           2.7355   -3.3164   -0.1417 H       1  UNL1        0.0597
     55 H           1.7117   -3.0611   -2.6002 H       1  UNL1        0.2098
     56 H           1.0589   -1.4894   -1.9085 H       1  UNL1        0.0329
     57 H           2.0933    0.5020   -1.0694 H       1  UNL1        0.0270
     58 H           3.0104   -0.3291    0.1727 H       1  UNL1        0.0270
     59 H           4.3580    0.4308   -1.6989 H       1  UNL1        0.0290
     60 H           3.5111   -0.5439   -2.8607 H       1  UNL1        0.0290
     61 H           4.3050   -2.6101   -1.7305 H       1  UNL1        0.0593
     62 H           5.3875   -1.7018   -3.2846 H       1  UNL1        0.2098
     63 H           4.4367   -1.9925    0.5779 H       1  UNL1        0.0293
     64 H           5.9289   -2.6940   -0.0244 H       1  UNL1        0.0293
     65 H           6.5645   -1.1193    1.4625 H       1  UNL1        0.0314
     66 H           7.1263   -0.6802   -0.1388 H       1  UNL1        0.0314
     67 H           4.7803   -0.0534    2.6154 H       1  UNL1        0.0620
     68 H           3.9294    2.0511    3.3508 H       1  UNL1        0.0618
     69 H           4.2685    4.1160    1.9607 H       1  UNL1        0.0618
     70 H           5.5006    3.8935   -0.1731 H       1  UNL1        0.0618
     71 H           6.3463    1.7255   -0.8758 H       1  UNL1        0.0620
@<TRIPOS>BOND
     1     1     2    1
     2     2     3    1
     3     2     4    1
     4     4     5    1
     5     5     6    2
     6     5     7    1
     7     7     8    1
     8     8     9    1
     9     9    10    1
    10    10    11    2
    11    11    12    1
    12    12    13    1
    13    13    14    1
    14    14    15    1
    15    14    16    1
    16    16    17    1
    17    17    18    1
    18    17    19    1
    19    19    20    1
    20    20    21    1
    21    21    22    1
    22    22    23    1
    23    22    24    1
    24    24    25    1
    25    25    26    1
    26    26    27   ar
    27    27    28   ar
    28    28    29   ar
    29    29    30   ar
    30    30    31   ar
    31    19    13    1
    32    31    26   ar
    33     1    32    1
    34     1    33    1
    35     1    34    1
    36     2    35    1
    37     3    36    1
    38     3    37    1
    39     3    38    1
    40     7    39    1
    41     7    40    1
    42     8    41    1
    43     8    42    1
    44     9    43    1
    45     9    44    1
    46    10    45    1
    47    11    46    1
    48    12    47    1
    49    12    48    1
    50    13    49    1
    51    14    50    1
    52    15    51    1
    53    16    52    1
    54    16    53    1
    55    17    54    1
    56    18    55    1
    57    19    56    1
    58    20    57    1
    59    20    58    1
    60    21    59    1
    61    21    60    1
    62    22    61    1
    63    23    62    1
    64    24    63    1
    65    24    64    1
    66    25    65    1
    67    25    66    1
    68    27    67    1
    69    28    68    1
    70    29    69    1
    71    30    70    1
    72    31    71    1
