@<TRIPOS>MOLECULE
*****
 38 41 0 0 0
SMALL
GASTEIGER

@<TRIPOS>ATOM
      1 CL         -1.3625    4.6432    1.6497 Cl      1  UNL1       -0.0835
      2 C          -0.1496    3.5433    0.9902 C.ar    1  UNL1        0.0420
      3 C          -0.5291    2.2331    0.7115 C.ar    1  UNL1       -0.0249
      4 C           0.4673    1.4417    0.2026 C.ar    1  UNL1        0.1091
      5 C           1.7752    1.8619   -0.0376 C.ar    1  UNL1        0.1436
      6 O           2.8209    1.0785   -0.5579 O.3     1  UNL1       -0.4508
      7 C           2.9237   -0.3081   -0.3766 C.ar    1  UNL1        0.1789
      8 C           4.2582   -0.7200   -0.3686 C.ar    1  UNL1       -0.0150
      9 C           4.6069   -2.0406   -0.2048 C.ar    1  UNL1       -0.0580
     10 C           3.5977   -2.9808   -0.0440 C.ar    1  UNL1       -0.0574
     11 C           2.2706   -2.6094   -0.0470 C.ar    1  UNL1       -0.0071
     12 C           1.9395   -1.2797   -0.2126 C.ar    1  UNL1        0.2183
     13 N           0.5375   -1.0119   -0.1991 N.2     1  UNL1       -0.0376
     14 C          -0.1068    0.1075   -0.0292 C.2     1  UNL1        0.3250
     15 N          -1.5167   -0.0790   -0.0905 N.pl3   1  UNL1       -0.2175
     16 C          -1.9378   -1.0081    0.9528 C.3     1  UNL1        0.0931
     17 C          -3.3895   -1.3450    0.9088 C.3     1  UNL1        0.0322
     18 N          -3.8599   -1.7252   -0.4027 N.3     1  UNL1       -0.3089
     19 C          -3.4045   -0.8456   -1.4478 C.3     1  UNL1        0.0322
     20 C          -2.6718    0.3697   -0.8718 C.3     1  UNL1        0.0931
     21 C           2.1026    3.1596    0.2520 C.ar    1  UNL1       -0.0171
     22 C           1.1278    4.0082    0.7716 C.ar    1  UNL1       -0.0399
     23 H          -1.5285    1.8569    0.8788 H       1  UNL1        0.0642
     24 H           5.0645   -0.0157   -0.4908 H       1  UNL1        0.0656
     25 H           5.6307   -2.3929   -0.1937 H       1  UNL1        0.0619
     26 H           3.7914   -4.0374    0.0900 H       1  UNL1        0.0619
     27 H           1.4349   -3.3088    0.0756 H       1  UNL1        0.0662
     28 H          -1.7148   -0.6307    1.9673 H       1  UNL1        0.0739
     29 H          -1.3678   -1.9569    0.7898 H       1  UNL1        0.0739
     30 H          -4.0144   -0.5429    1.3842 H       1  UNL1        0.0461
     31 H          -3.5246   -2.2346    1.5669 H       1  UNL1        0.0461
     32 H          -4.8857   -1.8350   -0.3694 H       1  UNL1        0.1222
     33 H          -2.7845   -1.3415   -2.2252 H       1  UNL1        0.0461
     34 H          -4.2982   -0.4410   -1.9666 H       1  UNL1        0.0461
     35 H          -3.4207    0.8676   -0.2173 H       1  UNL1        0.0739
     36 H          -2.3760    0.9963   -1.7409 H       1  UNL1        0.0739
     37 H           3.1092    3.4843    0.0675 H       1  UNL1        0.0655
     38 H           1.3849    5.0386    1.0024 H       1  UNL1        0.0633
@<TRIPOS>BOND
     1     1     2    1
     2     2     3   ar
     3     3     4   ar
     4     4     5   ar
     5     5     6    1
     6     6     7    1
     7     7     8   ar
     8     8     9   ar
     9     9    10   ar
    10    10    11   ar
    11    11    12   ar
    12    12    13    1
    13    13    14    2
    14    14    15    1
    15    15    16    1
    16    16    17    1
    17    17    18    1
    18    18    19    1
    19    19    20    1
    20     5    21   ar
    21    21    22   ar
    22    22     2   ar
    23    14     4    1
    24    20    15    1
    25    12     7   ar
    26     3    23    1
    27     8    24    1
    28     9    25    1
    29    10    26    1
    30    11    27    1
    31    16    28    1
    32    16    29    1
    33    17    30    1
    34    17    31    1
    35    18    32    1
    36    19    33    1
    37    19    34    1
    38    20    35    1
    39    20    36    1
    40    21    37    1
    41    22    38    1
