@<TRIPOS>MOLECULE
*****
 57 60 0 0 0
SMALL
GASTEIGER

@<TRIPOS>ATOM
      1 C           3.5148   -0.7090   -2.2542 C.3     1  UNL1       -0.0594
      2 C           2.9362   -0.9367   -0.8704 C.3     1  UNL1       -0.0071
      3 C           1.5909   -1.6323   -1.0404 C.3     1  UNL1       -0.0436
      4 C           0.6309   -0.5528   -0.6271 C.3     1  UNL1       -0.0263
      5 C          -0.7534   -1.0305   -0.2846 C.3     1  UNL1        0.0003
      6 C          -1.4011   -1.4210   -1.5920 C.3     1  UNL1       -0.0432
      7 C          -2.8839   -1.4436   -1.6019 C.3     1  UNL1       -0.0301
      8 C          -3.5010   -0.3272   -0.8415 C.2     1  UNL1       -0.0532
      9 C          -4.4473    0.4176   -1.3090 C.2     1  UNL1       -0.0148
     10 C          -5.0340    1.5087   -0.5377 C.2     1  UNL1        0.1787
     11 O          -5.9436    2.2344   -0.9705 O.2     1  UNL1       -0.2879
     12 C          -4.5160    1.7373    0.7908 C.2     1  UNL1       -0.0180
     13 C          -3.5573    0.9829    1.2660 C.2     1  UNL1       -0.0674
     14 C          -2.9497   -0.1180    0.5197 C.3     1  UNL1        0.0443
     15 C          -3.2267   -1.3747    1.2932 C.3     1  UNL1       -0.0493
     16 C          -1.4890    0.1471    0.2720 C.3     1  UNL1        0.1526
     17 F          -1.4789    1.0939   -0.7779 F       1  UNL1       -0.2377
     18 C          -0.7915    0.8544    1.3924 C.3     1  UNL1        0.0910
     19 O          -0.8541    0.2549    2.6174 O.3     1  UNL1       -0.3886
     20 C           0.6072    1.2479    0.9835 C.3     1  UNL1       -0.0151
     21 C           1.3702    0.0445    0.5363 C.3     1  UNL1        0.0096
     22 C           1.6702   -0.9245    1.6253 C.3     1  UNL1       -0.0562
     23 C           2.6660    0.3801   -0.1670 C.3     1  UNL1        0.1340
     24 O           2.4592    1.3000   -1.2010 O.3     1  UNL1       -0.3802
     25 C           3.7385    0.7791    0.7386 C.2     1  UNL1        0.1904
     26 O           4.0445    0.0898    1.6849 O.2     1  UNL1       -0.2919
     27 C           4.4741    2.0467    0.5086 C.3     1  UNL1        0.1052
     28 O           5.4588    2.2539    1.4765 O.3     1  UNL1       -0.3874
     29 H           4.0772    0.2244   -2.3297 H       1  UNL1        0.0233
     30 H           2.7142   -0.8077   -3.0291 H       1  UNL1        0.0233
     31 H           4.2252   -1.5437   -2.4491 H       1  UNL1        0.0233
     32 H           3.6525   -1.5402   -0.2633 H       1  UNL1        0.0330
     33 H           1.5163   -2.5483   -0.4371 H       1  UNL1        0.0272
     34 H           1.4263   -1.9176   -2.0986 H       1  UNL1        0.0272
     35 H           0.6029    0.2021   -1.4395 H       1  UNL1        0.0311
     36 H          -0.6363   -1.8751    0.4154 H       1  UNL1        0.0336
     37 H          -1.0609   -0.6802   -2.3550 H       1  UNL1        0.0272
     38 H          -1.0266   -2.4094   -1.9120 H       1  UNL1        0.0272
     39 H          -3.2295   -1.3419   -2.6513 H       1  UNL1        0.0310
     40 H          -3.3119   -2.3883   -1.2108 H       1  UNL1        0.0310
     41 H          -4.8540    0.2624   -2.3113 H       1  UNL1        0.0656
     42 H          -4.9296    2.5508    1.4079 H       1  UNL1        0.0653
     43 H          -3.1932    1.1806    2.2608 H       1  UNL1        0.0583
     44 H          -3.5361   -1.1681    2.3610 H       1  UNL1        0.0242
     45 H          -4.1570   -1.8566    0.8666 H       1  UNL1        0.0242
     46 H          -2.4587   -2.1367    1.2770 H       1  UNL1        0.0242
     47 H          -1.3385    1.8428    1.5063 H       1  UNL1        0.0626
     48 H          -1.2304   -0.6315    2.6781 H       1  UNL1        0.2099
     49 H           0.5903    1.9941    0.1787 H       1  UNL1        0.0297
     50 H           1.1370    1.6936    1.8451 H       1  UNL1        0.0297
     51 H           1.9559   -0.4413    2.5838 H       1  UNL1        0.0236
     52 H           0.8112   -1.5842    1.8795 H       1  UNL1        0.0236
     53 H           2.4993   -1.6183    1.3823 H       1  UNL1        0.0236
     54 H           2.3435    2.2124   -0.8946 H       1  UNL1        0.2108
     55 H           4.9882    2.0595   -0.4751 H       1  UNL1        0.0637
     56 H           3.7504    2.8873    0.4879 H       1  UNL1        0.0637
     57 H           6.3385    2.4762    1.0872 H       1  UNL1        0.2100
@<TRIPOS>BOND
     1     1     2    1
     2     2     3    1
     3     3     4    1
     4     4     5    1
     5     5     6    1
     6     6     7    1
     7     7     8    1
     8     8     9    2
     9     9    10    1
    10    10    11    2
    11    10    12    1
    12    12    13    2
    13    13    14    1
    14    14    15    1
    15    14    16    1
    16    16    17    1
    17    16    18    1
    18    18    19    1
    19    18    20    1
    20    20    21    1
    21    21    22    1
    22    21    23    1
    23    23    24    1
    24    23    25    1
    25    25    26    2
    26    25    27    1
    27    27    28    1
    28    23     2    1
    29    21     4    1
    30    16     5    1
    31    14     8    1
    32     1    29    1
    33     1    30    1
    34     1    31    1
    35     2    32    1
    36     3    33    1
    37     3    34    1
    38     4    35    1
    39     5    36    1
    40     6    37    1
    41     6    38    1
    42     7    39    1
    43     7    40    1
    44     9    41    1
    45    12    42    1
    46    13    43    1
    47    15    44    1
    48    15    45    1
    49    15    46    1
    50    18    47    1
    51    19    48    1
    52    20    49    1
    53    20    50    1
    54    22    51    1
    55    22    52    1
    56    22    53    1
    57    24    54    1
    58    27    55    1
    59    27    56    1
    60    28    57    1
