
     RDKit          3D

 57 60  0  0  0  0  0  0  0  0999 V2000
    3.5148   -0.7090   -2.2542 C   0  0  0  0  0  0  0  0  0  0  0  0
    2.9362   -0.9367   -0.8704 C   0  0  2  0  0  0  0  0  0  0  0  0
    1.5909   -1.6323   -1.0404 C   0  0  0  0  0  0  0  0  0  0  0  0
    0.6309   -0.5528   -0.6271 C   0  0  1  0  0  0  0  0  0  0  0  0
   -0.7534   -1.0305   -0.2846 C   0  0  2  0  0  0  0  0  0  0  0  0
   -1.4011   -1.4210   -1.5920 C   0  0  0  0  0  0  0  0  0  0  0  0
   -2.8839   -1.4436   -1.6019 C   0  0  0  0  0  0  0  0  0  0  0  0
   -3.5010   -0.3272   -0.8415 C   0  0  0  0  0  0  0  0  0  0  0  0
   -4.4473    0.4176   -1.3090 C   0  0  0  0  0  0  0  0  0  0  0  0
   -5.0340    1.5087   -0.5377 C   0  0  0  0  0  0  0  0  0  0  0  0
   -5.9436    2.2344   -0.9705 O   0  0  0  0  0  0  0  0  0  0  0  0
   -4.5160    1.7373    0.7908 C   0  0  0  0  0  0  0  0  0  0  0  0
   -3.5573    0.9829    1.2660 C   0  0  0  0  0  0  0  0  0  0  0  0
   -2.9497   -0.1180    0.5197 C   0  0  1  0  0  0  0  0  0  0  0  0
   -3.2267   -1.3747    1.2932 C   0  0  0  0  0  0  0  0  0  0  0  0
   -1.4890    0.1471    0.2720 C   0  0  2  0  0  0  0  0  0  0  0  0
   -1.4789    1.0939   -0.7779 F   0  0  0  0  0  0  0  0  0  0  0  0
   -0.7915    0.8544    1.3924 C   0  0  1  0  0  0  0  0  0  0  0  0
   -0.8541    0.2549    2.6174 O   0  0  0  0  0  0  0  0  0  0  0  0
    0.6072    1.2479    0.9835 C   0  0  0  0  0  0  0  0  0  0  0  0
    1.3702    0.0445    0.5363 C   0  0  1  0  0  0  0  0  0  0  0  0
    1.6702   -0.9245    1.6253 C   0  0  0  0  0  0  0  0  0  0  0  0
    2.6660    0.3801   -0.1670 C   0  0  2  0  0  0  0  0  0  0  0  0
    2.4592    1.3000   -1.2010 O   0  0  0  0  0  0  0  0  0  0  0  0
    3.7385    0.7791    0.7386 C   0  0  0  0  0  0  0  0  0  0  0  0
    4.0445    0.0898    1.6849 O   0  0  0  0  0  0  0  0  0  0  0  0
    4.4741    2.0467    0.5086 C   0  0  0  0  0  0  0  0  0  0  0  0
    5.4588    2.2539    1.4765 O   0  0  0  0  0  0  0  0  0  0  0  0
    4.0772    0.2244   -2.3297 H   0  0  0  0  0  0  0  0  0  0  0  0
    2.7142   -0.8077   -3.0291 H   0  0  0  0  0  0  0  0  0  0  0  0
    4.2252   -1.5437   -2.4491 H   0  0  0  0  0  0  0  0  0  0  0  0
    3.6525   -1.5402   -0.2633 H   0  0  0  0  0  0  0  0  0  0  0  0
    1.5163   -2.5483   -0.4371 H   0  0  0  0  0  0  0  0  0  0  0  0
    1.4263   -1.9176   -2.0986 H   0  0  0  0  0  0  0  0  0  0  0  0
    0.6029    0.2021   -1.4395 H   0  0  0  0  0  0  0  0  0  0  0  0
   -0.6363   -1.8751    0.4154 H   0  0  0  0  0  0  0  0  0  0  0  0
   -1.0609   -0.6802   -2.3550 H   0  0  0  0  0  0  0  0  0  0  0  0
   -1.0266   -2.4094   -1.9120 H   0  0  0  0  0  0  0  0  0  0  0  0
   -3.2295   -1.3419   -2.6513 H   0  0  0  0  0  0  0  0  0  0  0  0
   -3.3119   -2.3883   -1.2108 H   0  0  0  0  0  0  0  0  0  0  0  0
   -4.8540    0.2624   -2.3113 H   0  0  0  0  0  0  0  0  0  0  0  0
   -4.9296    2.5508    1.4079 H   0  0  0  0  0  0  0  0  0  0  0  0
   -3.1932    1.1806    2.2608 H   0  0  0  0  0  0  0  0  0  0  0  0
   -3.5361   -1.1681    2.3610 H   0  0  0  0  0  0  0  0  0  0  0  0
   -4.1570   -1.8566    0.8666 H   0  0  0  0  0  0  0  0  0  0  0  0
   -2.4587   -2.1367    1.2770 H   0  0  0  0  0  0  0  0  0  0  0  0
   -1.3385    1.8428    1.5063 H   0  0  0  0  0  0  0  0  0  0  0  0
   -1.2304   -0.6315    2.6781 H   0  0  0  0  0  0  0  0  0  0  0  0
    0.5903    1.9941    0.1787 H   0  0  0  0  0  0  0  0  0  0  0  0
    1.1370    1.6936    1.8451 H   0  0  0  0  0  0  0  0  0  0  0  0
    1.9559   -0.4413    2.5838 H   0  0  0  0  0  0  0  0  0  0  0  0
    0.8112   -1.5842    1.8795 H   0  0  0  0  0  0  0  0  0  0  0  0
    2.4993   -1.6183    1.3823 H   0  0  0  0  0  0  0  0  0  0  0  0
    2.3435    2.2124   -0.8946 H   0  0  0  0  0  0  0  0  0  0  0  0
    4.9882    2.0595   -0.4751 H   0  0  0  0  0  0  0  0  0  0  0  0
    3.7504    2.8873    0.4879 H   0  0  0  0  0  0  0  0  0  0  0  0
    6.3385    2.4762    1.0872 H   0  0  0  0  0  0  0  0  0  0  0  0
  1  2  1  0
  2  3  1  0
  3  4  1  0
  4  5  1  0
  5  6  1  0
  6  7  1  0
  7  8  1  0
  8  9  2  0
  9 10  1  0
 10 11  2  0
 10 12  1  0
 12 13  2  0
 13 14  1  0
 14 15  1  1
 14 16  1  0
 16 17  1  6
 16 18  1  0
 18 19  1  0
 18 20  1  0
 20 21  1  0
 21 22  1  1
 21 23  1  0
 23 24  1  6
 23 25  1  0
 25 26  2  0
 25 27  1  0
 27 28  1  0
 23  2  1  0
 21  4  1  0
 16  5  1  0
 14  8  1  0
  1 29  1  0
  1 30  1  0
  1 31  1  0
  2 32  1  1
  3 33  1  0
  3 34  1  0
  4 35  1  6
  5 36  1  1
  6 37  1  0
  6 38  1  0
  7 39  1  0
  7 40  1  0
  9 41  1  0
 12 42  1  0
 13 43  1  0
 15 44  1  0
 15 45  1  0
 15 46  1  0
 18 47  1  1
 19 48  1  0
 20 49  1  0
 20 50  1  0
 22 51  1  0
 22 52  1  0
 22 53  1  0
 24 54  1  0
 27 55  1  0
 27 56  1  0
 28 57  1  0
M  END
$$$$
