@<TRIPOS>MOLECULE
*****
 56 59 0 0 0
SMALL
GASTEIGER

@<TRIPOS>ATOM
      1 C           4.8688   -3.6195    0.8902 C.3     1  UNL1       -0.0598
      2 C           5.2094   -2.2110    1.3204 C.3     1  UNL1       -0.0115
      3 C           4.6543   -1.2529    0.3202 C.ar    1  UNL1        0.0635
      4 C           3.4048   -0.6677    0.3348 C.ar    1  UNL1       -0.0086
      5 C           3.2631    0.1704   -0.7778 C.ar    1  UNL1        0.1235
      6 C           2.0798    0.9603   -1.1034 C.2     1  UNL1        0.2624
      7 O           2.0414    1.6659   -2.1175 O.2     1  UNL1       -0.2685
      8 N           0.9409    0.9312   -0.2515 N.am    1  UNL1       -0.3057
      9 C          -0.2606    1.6926   -0.5228 C.3     1  UNL1        0.0414
     10 C          -0.4735    2.6619    0.6137 C.3     1  UNL1       -0.0058
     11 C          -1.0735    1.8095    1.6970 C.3     1  UNL1        0.1040
     12 C          -1.9691    2.6217    2.5748 C.2     1  UNL1        0.2311
     13 N          -1.4503    3.6491    3.3786 N.am    1  UNL1       -0.3278
     14 O          -3.1872    2.3640    2.5752 O.2     1  UNL1       -0.2740
     15 N          -1.7761    0.7721    1.0144 N.am    1  UNL1       -0.2841
     16 C          -2.6133   -0.2056    1.6097 C.2     1  UNL1        0.2509
     17 O          -2.7657   -0.1814    2.8795 O.2     1  UNL1       -0.2698
     18 C          -3.2984   -1.2241    0.8400 C.ar    1  UNL1        0.0823
     19 C          -2.8235   -2.4740    0.5224 C.ar    1  UNL1        0.1053
     20 O          -3.7380   -3.1214   -0.1933 O.2     1  UNL1       -0.4621
     21 C          -4.7900   -2.3373   -0.3520 C.ar    1  UNL1        0.1355
     22 C          -5.9802   -2.4983   -0.9873 C.ar    1  UNL1       -0.0187
     23 C          -6.9485   -1.5353   -1.0286 C.ar    1  UNL1       -0.0582
     24 C          -6.6953   -0.3353   -0.3869 C.ar    1  UNL1       -0.0610
     25 C          -5.5122   -0.1370    0.2612 C.ar    1  UNL1       -0.0503
     26 C          -4.5451   -1.1191    0.2937 C.ar    1  UNL1        0.0323
     27 C          -1.5081    0.8319   -0.3978 C.3     1  UNL1        0.0343
     28 N           4.4355    0.0562   -1.4196 N.ar    1  UNL1       -0.2593
     29 C           4.7745    0.7457   -2.6449 C.3     1  UNL1        0.0395
     30 C           4.3950   -0.0510   -3.8716 C.3     1  UNL1       -0.0455
     31 N           5.2524   -0.7722   -0.7855 N.ar    1  UNL1       -0.1755
     32 H           3.7769   -3.7777    0.7851 H       1  UNL1        0.0233
     33 H           5.2007   -4.2986    1.7030 H       1  UNL1        0.0233
     34 H           5.4434   -3.8545   -0.0086 H       1  UNL1        0.0233
     35 H           6.3099   -2.1304    1.3475 H       1  UNL1        0.0326
     36 H           4.7564   -1.9803    2.2955 H       1  UNL1        0.0326
     37 H           2.6335   -0.8151    1.0783 H       1  UNL1        0.0659
     38 H           1.0129    0.3246    0.5936 H       1  UNL1        0.1494
     39 H          -0.2092    2.2681   -1.4445 H       1  UNL1        0.0514
     40 H           0.4783    3.1225    0.9495 H       1  UNL1        0.0306
     41 H          -1.2307    3.4290    0.3341 H       1  UNL1        0.0306
     42 H          -0.2560    1.3898    2.3567 H       1  UNL1        0.0597
     43 H          -1.7955    4.6216    3.2301 H       1  UNL1        0.1450
     44 H          -0.7404    3.4166    4.0960 H       1  UNL1        0.1450
     45 H          -1.8762   -2.9339    0.7723 H       1  UNL1        0.1037
     46 H          -6.1921   -3.4370   -1.4959 H       1  UNL1        0.0654
     47 H          -7.8977   -1.6819   -1.5430 H       1  UNL1        0.0619
     48 H          -7.4457    0.4507   -0.4017 H       1  UNL1        0.0618
     49 H          -5.3246    0.8086    0.7612 H       1  UNL1        0.0625
     50 H          -2.2970    1.3074   -0.9935 H       1  UNL1        0.0483
     51 H          -1.3270   -0.1800   -0.8489 H       1  UNL1        0.0483
     52 H           4.2940    1.7310   -2.7009 H       1  UNL1        0.0506
     53 H           5.8899    0.9138   -2.7167 H       1  UNL1        0.0506
     54 H           3.5085   -0.6675   -3.5916 H       1  UNL1        0.0247
     55 H           5.2536   -0.6878   -4.1666 H       1  UNL1        0.0247
     56 H           4.1228    0.6587   -4.6761 H       1  UNL1        0.0247
@<TRIPOS>BOND
     1     1     2    1
     2     2     3    1
     3     3     4   ar
     4     4     5   ar
     5     5     6    1
     6     6     7    2
     7     6     8   am
     8     8     9    1
     9     9    10    1
    10    10    11    1
    11    11    12    1
    12    12    13   am
    13    12    14    2
    14    11    15    1
    15    15    16   am
    16    16    17    2
    17    16    18    1
    18    18    19   ar
    19    19    20   ar
    20    20    21   ar
    21    21    22   ar
    22    22    23   ar
    23    23    24   ar
    24    24    25   ar
    25    25    26   ar
    26    15    27    1
    27     5    28   ar
    28    28    29    1
    29    29    30    1
    30    28    31   ar
    31    31     3   ar
    32    27     9    1
    33    26    18   ar
    34    26    21   ar
    35     1    32    1
    36     1    33    1
    37     1    34    1
    38     2    35    1
    39     2    36    1
    40     4    37    1
    41     8    38    1
    42     9    39    1
    43    10    40    1
    44    10    41    1
    45    11    42    1
    46    13    43    1
    47    13    44    1
    48    19    45    1
    49    22    46    1
    50    23    47    1
    51    24    48    1
    52    25    49    1
    53    27    50    1
    54    27    51    1
    55    29    52    1
    56    29    53    1
    57    30    54    1
    58    30    55    1
    59    30    56    1
