
     RDKit          3D

 52 56  0  0  0  0  0  0  0  0999 V2000
   -2.1897   -1.2987   -1.5731 O   0  0  0  0  0  0  0  0  0  0  0  0
   -2.2835   -0.9423   -0.3709 C   0  0  0  0  0  0  0  0  0  0  0  0
   -3.5264   -1.1697    0.3136 C   0  0  0  0  0  0  0  0  0  0  0  0
   -3.7429   -2.3524    0.9963 C   0  0  0  0  0  0  0  0  0  0  0  0
   -4.9240   -2.6010    1.6625 C   0  0  0  0  0  0  0  0  0  0  0  0
   -5.1037   -4.1225    2.4953 Cl  0  0  0  0  0  0  0  0  0  0  0  0
   -5.9378   -1.6533    1.6615 C   0  0  0  0  0  0  0  0  0  0  0  0
   -5.7108   -0.4686    0.9731 C   0  0  0  0  0  0  0  0  0  0  0  0
   -4.5227   -0.2270    0.3074 C   0  0  0  0  0  0  0  0  0  0  0  0
   -4.3838    1.0306   -0.3764 N   0  0  0  0  0  0  0  0  0  0  0  0
   -4.1213    1.2336   -1.6545 N   0  0  0  0  0  0  0  0  0  0  0  0
   -4.0673    2.5481   -1.9292 C   0  0  0  0  0  0  0  0  0  0  0  0
   -4.3133    3.1951   -0.7382 C   0  0  0  0  0  0  0  0  0  0  0  0
   -4.4992    2.2258    0.1745 N   0  0  0  0  0  0  0  0  0  0  0  0
   -1.1444   -0.3336    0.2355 N   0  0  0  0  0  0  0  0  0  0  0  0
   -1.1521    0.1113    1.6155 C   0  0  0  0  0  0  0  0  0  0  0  0
   -0.8114    1.5775    1.6261 C   0  0  0  0  0  0  0  0  0  0  0  0
   -0.4145    2.0567    0.3806 O   0  0  0  0  0  0  0  0  0  0  0  0
    0.5785    1.2678   -0.2004 C   0  0  0  0  0  0  0  0  0  0  0  0
    0.0911   -0.1257   -0.4987 C   0  0  1  0  0  0  0  0  0  0  0  0
    1.0871   -1.1573    0.0319 C   0  0  0  0  0  0  0  0  0  0  0  0
    2.4015   -1.0478   -0.6476 C   0  0  0  0  0  0  0  0  0  0  0  0
    3.4643   -0.4628    0.0059 C   0  0  0  0  0  0  0  0  0  0  0  0
    4.6715   -0.3827   -0.6673 C   0  0  0  0  0  0  0  0  0  0  0  0
    5.7822    0.2271    0.0080 N   0  0  0  0  0  0  0  0  0  0  0  0
    7.0380    0.0890   -0.3788 N   0  0  0  0  0  0  0  0  0  0  0  0
    7.8516    0.7715    0.4431 C   0  0  0  0  0  0  0  0  0  0  0  0
    7.0071    1.3501    1.3783 C   0  0  0  0  0  0  0  0  0  0  0  0
    5.7523    0.9962    1.0812 N   0  0  0  0  0  0  0  0  0  0  0  0
    4.8239   -0.8687   -1.9535 C   0  0  0  0  0  0  0  0  0  0  0  0
    3.7527   -1.4579   -2.6110 C   0  0  0  0  0  0  0  0  0  0  0  0
    2.5629   -1.5307   -1.9328 C   0  0  0  0  0  0  0  0  0  0  0  0
    1.5130   -2.1051   -2.5706 F   0  0  0  0  0  0  0  0  0  0  0  0
   -2.9709   -3.0925    1.0062 H   0  0  0  0  0  0  0  0  0  0  0  0
   -6.8604   -1.8599    2.1880 H   0  0  0  0  0  0  0  0  0  0  0  0
   -6.5244    0.2544    0.9911 H   0  0  0  0  0  0  0  0  0  0  0  0
   -3.8691    3.0055   -2.8959 H   0  0  0  0  0  0  0  0  0  0  0  0
   -4.3432    4.2783   -0.6024 H   0  0  0  0  0  0  0  0  0  0  0  0
   -0.4284   -0.4760    2.2239 H   0  0  0  0  0  0  0  0  0  0  0  0
   -2.1406   -0.0258    2.0936 H   0  0  0  0  0  0  0  0  0  0  0  0
   -0.0455    1.7707    2.4085 H   0  0  0  0  0  0  0  0  0  0  0  0
   -1.7075    2.1573    1.9215 H   0  0  0  0  0  0  0  0  0  0  0  0
    0.8203    1.7521   -1.1743 H   0  0  0  0  0  0  0  0  0  0  0  0
    1.4802    1.2333    0.4622 H   0  0  0  0  0  0  0  0  0  0  0  0
   -0.0486   -0.2653   -1.5892 H   0  0  0  0  0  0  0  0  0  0  0  0
    0.6346   -2.1592   -0.1864 H   0  0  0  0  0  0  0  0  0  0  0  0
    1.1717   -1.0777    1.1186 H   0  0  0  0  0  0  0  0  0  0  0  0
    3.4173   -0.0640    1.0084 H   0  0  0  0  0  0  0  0  0  0  0  0
    8.9230    0.8514    0.3880 H   0  0  0  0  0  0  0  0  0  0  0  0
    7.2738    1.9768    2.2084 H   0  0  0  0  0  0  0  0  0  0  0  0
    5.7808   -0.8056   -2.4889 H   0  0  0  0  0  0  0  0  0  0  0  0
    3.9081   -1.8267   -3.6153 H   0  0  0  0  0  0  0  0  0  0  0  0
  1  2  2  0
  2  3  1  0
  3  4  2  0
  4  5  1  0
  5  6  1  0
  5  7  2  0
  7  8  1  0
  8  9  2  0
  9 10  1  0
 10 11  1  0
 11 12  2  0
 12 13  1  0
 13 14  2  0
  2 15  1  0
 15 16  1  0
 16 17  1  0
 17 18  1  0
 18 19  1  0
 19 20  1  0
 20 21  1  0
 21 22  1  0
 22 23  2  0
 23 24  1  0
 24 25  1  0
 25 26  1  0
 26 27  2  0
 27 28  1  0
 28 29  2  0
 24 30  2  0
 30 31  1  0
 31 32  2  0
 32 33  1  0
  9  3  1  0
 14 10  1  0
 20 15  1  0
 32 22  1  0
 29 25  1  0
  4 34  1  0
  7 35  1  0
  8 36  1  0
 12 37  1  0
 13 38  1  0
 16 39  1  0
 16 40  1  0
 17 41  1  0
 17 42  1  0
 19 43  1  0
 19 44  1  0
 20 45  1  6
 21 46  1  0
 21 47  1  0
 23 48  1  0
 27 49  1  0
 28 50  1  0
 30 51  1  0
 31 52  1  0
M  END
$$$$
