@<TRIPOS>MOLECULE
*****
 52 56 0 0 0
SMALL
GASTEIGER

@<TRIPOS>ATOM
      1 O          -2.1897   -1.2987   -1.5731 O.2     1  UNL1       -0.2699
      2 C          -2.2835   -0.9423   -0.3709 C.2     1  UNL1        0.2491
      3 C          -3.5264   -1.1697    0.3136 C.ar    1  UNL1        0.0653
      4 C          -3.7429   -2.3524    0.9963 C.ar    1  UNL1       -0.0292
      5 C          -4.9240   -2.6010    1.6625 C.ar    1  UNL1        0.0418
      6 CL         -5.1037   -4.1225    2.4953 Cl      1  UNL1       -0.0835
      7 C          -5.9378   -1.6533    1.6615 C.ar    1  UNL1       -0.0413
      8 C          -5.7108   -0.4686    0.9731 C.ar    1  UNL1       -0.0324
      9 C          -4.5227   -0.2270    0.3074 C.ar    1  UNL1        0.0983
     10 N          -4.3838    1.0306   -0.3764 N.ar    1  UNL1       -0.1496
     11 N          -4.1213    1.2336   -1.6545 N.ar    1  UNL1       -0.1556
     12 C          -4.0673    2.5481   -1.9292 C.ar    1  UNL1        0.0697
     13 C          -4.3133    3.1951   -0.7382 C.ar    1  UNL1        0.0697
     14 N          -4.4992    2.2258    0.1745 N.ar    1  UNL1       -0.1556
     15 N          -1.1444   -0.3336    0.2355 N.am    1  UNL1       -0.2897
     16 C          -1.1521    0.1113    1.6155 C.3     1  UNL1        0.0388
     17 C          -0.8114    1.5775    1.6261 C.3     1  UNL1        0.0635
     18 O          -0.4145    2.0567    0.3806 O.3     1  UNL1       -0.3764
     19 C           0.5785    1.2678   -0.2004 C.3     1  UNL1        0.0666
     20 C           0.0911   -0.1257   -0.4987 C.3     1  UNL1        0.0537
     21 C           1.0871   -1.1573    0.0319 C.3     1  UNL1       -0.0040
     22 C           2.4015   -1.0478   -0.6476 C.ar    1  UNL1       -0.0083
     23 C           3.4643   -0.4628    0.0059 C.ar    1  UNL1       -0.0286
     24 C           4.6715   -0.3827   -0.6673 C.ar    1  UNL1        0.0866
     25 N           5.7822    0.2271    0.0080 N.ar    1  UNL1       -0.1503
     26 N           7.0380    0.0890   -0.3788 N.ar    1  UNL1       -0.1556
     27 C           7.8516    0.7715    0.4431 C.ar    1  UNL1        0.0697
     28 C           7.0071    1.3501    1.3783 C.ar    1  UNL1        0.0697
     29 N           5.7523    0.9962    1.0812 N.ar    1  UNL1       -0.1556
     30 C           4.8239   -0.8687   -1.9535 C.ar    1  UNL1       -0.0318
     31 C           3.7527   -1.4579   -2.6110 C.ar    1  UNL1       -0.0241
     32 C           2.5629   -1.5307   -1.9328 C.ar    1  UNL1        0.1267
     33 F           1.5130   -2.1051   -2.5706 F       1  UNL1       -0.2052
     34 H          -2.9709   -3.0925    1.0062 H       1  UNL1        0.0640
     35 H          -6.8604   -1.8599    2.1880 H       1  UNL1        0.0633
     36 H          -6.5244    0.2544    0.9911 H       1  UNL1        0.0640
     37 H          -3.8691    3.0055   -2.8959 H       1  UNL1        0.0864
     38 H          -4.3432    4.2783   -0.6024 H       1  UNL1        0.0864
     39 H          -0.4284   -0.4760    2.2239 H       1  UNL1        0.0487
     40 H          -2.1406   -0.0258    2.0936 H       1  UNL1        0.0487
     41 H          -0.0455    1.7707    2.4085 H       1  UNL1        0.0575
     42 H          -1.7075    2.1573    1.9215 H       1  UNL1        0.0575
     43 H           0.8203    1.7521   -1.1743 H       1  UNL1        0.0578
     44 H           1.4802    1.2333    0.4622 H       1  UNL1        0.0578
     45 H          -0.0486   -0.2653   -1.5892 H       1  UNL1        0.0526
     46 H           0.6346   -2.1592   -0.1864 H       1  UNL1        0.0333
     47 H           1.1717   -1.0777    1.1186 H       1  UNL1        0.0333
     48 H           3.4173   -0.0640    1.0084 H       1  UNL1        0.0643
     49 H           8.9230    0.8514    0.3880 H       1  UNL1        0.0864
     50 H           7.2738    1.9768    2.2084 H       1  UNL1        0.0864
     51 H           5.7808   -0.8056   -2.4889 H       1  UNL1        0.0640
     52 H           3.9081   -1.8267   -3.6153 H       1  UNL1        0.0647
@<TRIPOS>BOND
     1     1     2    2
     2     2     3    1
     3     3     4   ar
     4     4     5   ar
     5     5     6    1
     6     5     7   ar
     7     7     8   ar
     8     8     9   ar
     9     9    10    1
    10    10    11   ar
    11    11    12   ar
    12    12    13   ar
    13    13    14   ar
    14     2    15   am
    15    15    16    1
    16    16    17    1
    17    17    18    1
    18    18    19    1
    19    19    20    1
    20    20    21    1
    21    21    22    1
    22    22    23   ar
    23    23    24   ar
    24    24    25    1
    25    25    26   ar
    26    26    27   ar
    27    27    28   ar
    28    28    29   ar
    29    24    30   ar
    30    30    31   ar
    31    31    32   ar
    32    32    33    1
    33     9     3   ar
    34    14    10   ar
    35    20    15    1
    36    32    22   ar
    37    29    25   ar
    38     4    34    1
    39     7    35    1
    40     8    36    1
    41    12    37    1
    42    13    38    1
    43    16    39    1
    44    16    40    1
    45    17    41    1
    46    17    42    1
    47    19    43    1
    48    19    44    1
    49    20    45    1
    50    21    46    1
    51    21    47    1
    52    23    48    1
    53    27    49    1
    54    28    50    1
    55    30    51    1
    56    31    52    1
