
     RDKit          3D

 65 69  0  0  0  0  0  0  0  0999 V2000
   -6.5442    1.9165   -2.3690 C   0  0  0  0  0  0  0  0  0  0  0  0
   -6.1116    1.4633   -1.1380 O   0  0  0  0  0  0  0  0  0  0  0  0
   -5.3822    0.2964   -1.1932 C   0  0  0  0  0  0  0  0  0  0  0  0
   -6.1308   -0.7362   -0.3387 C   0  0  0  0  0  0  0  0  0  0  0  0
   -6.3451   -0.2404    0.9264 O   0  0  0  0  0  0  0  0  0  0  0  0
   -5.1577    0.0122    1.6268 C   0  0  0  0  0  0  0  0  0  0  0  0
   -4.4435    1.1101    0.8781 C   0  0  0  0  0  0  0  0  0  0  0  0
   -4.0678    0.5424   -0.4680 C   0  0  0  0  0  0  0  0  0  0  0  0
   -3.3197   -0.6732   -0.2923 N   0  0  0  0  0  0  0  0  0  0  0  0
   -2.0749   -0.3701    0.3586 C   0  0  2  0  0  0  0  0  0  0  0  0
   -1.2686    0.6421   -0.4393 C   0  0  0  0  0  0  0  0  0  0  0  0
    0.1478    0.4884    0.1582 C   0  0  1  0  0  0  0  0  0  0  0  0
    0.3118    1.4377    1.2906 C   0  0  0  0  0  0  0  0  0  0  0  0
    0.6502    0.6412    2.4916 C   0  0  2  0  0  0  0  0  0  0  0  0
    1.9092    0.9436    3.0072 F   0  0  0  0  0  0  0  0  0  0  0  0
    0.4871   -0.8057    2.1472 C   0  0  0  0  0  0  0  0  0  0  0  0
    0.2288   -0.8672    0.6575 C   0  0  2  0  0  0  0  0  0  0  0  0
    1.2420   -1.7281   -0.0209 C   0  0  0  0  0  0  0  0  0  0  0  0
    0.7566   -2.7406   -0.6454 O   0  0  0  0  0  0  0  0  0  0  0  0
    2.6234   -1.5893   -0.0706 N   0  0  0  0  0  0  0  0  0  0  0  0
    3.3702   -2.6105   -0.8438 C   0  0  0  0  0  0  0  0  0  0  0  0
    4.3606   -1.9246   -1.7567 C   0  0  0  0  0  0  0  0  0  0  0  0
    5.1752   -0.9262   -1.0433 C   0  0  0  0  0  0  0  0  0  0  0  0
    6.4403   -0.6136   -1.4519 N   0  0  0  0  0  0  0  0  0  0  0  0
    7.1927    0.2928   -0.8099 C   0  0  0  0  0  0  0  0  0  0  0  0
    6.7281    0.9501    0.2885 C   0  0  0  0  0  0  0  0  0  0  0  0
    7.5063    1.9642    1.0465 C   0  0  0  0  0  0  0  0  0  0  0  0
    8.0243    1.3155    2.1590 F   0  0  0  0  0  0  0  0  0  0  0  0
    6.6151    2.9234    1.5336 F   0  0  0  0  0  0  0  0  0  0  0  0
    8.4558    2.5911    0.3003 F   0  0  0  0  0  0  0  0  0  0  0  0
    5.4571    0.6689    0.7393 C   0  0  0  0  0  0  0  0  0  0  0  0
    4.7041   -0.2855    0.0387 C   0  0  0  0  0  0  0  0  0  0  0  0
    3.3405   -0.5407    0.5769 C   0  0  0  0  0  0  0  0  0  0  0  0
   -1.1312   -1.5301    0.4131 C   0  0  0  0  0  0  0  0  0  0  0  0
   -5.7371    2.1348   -3.0829 H   0  0  0  0  0  0  0  0  0  0  0  0
   -7.0804    2.8773   -2.1900 H   0  0  0  0  0  0  0  0  0  0  0  0
   -7.3040    1.2410   -2.8379 H   0  0  0  0  0  0  0  0  0  0  0  0
   -5.2555   -0.0948   -2.2011 H   0  0  0  0  0  0  0  0  0  0  0  0
   -7.0953   -0.9177   -0.8142 H   0  0  0  0  0  0  0  0  0  0  0  0
   -5.4859   -1.6462   -0.3466 H   0  0  0  0  0  0  0  0  0  0  0  0
   -5.4577    0.3917    2.6224 H   0  0  0  0  0  0  0  0  0  0  0  0
   -4.5217   -0.8700    1.6776 H   0  0  0  0  0  0  0  0  0  0  0  0
   -3.5756    1.4870    1.4310 H   0  0  0  0  0  0  0  0  0  0  0  0
   -5.1292    1.9661    0.6759 H   0  0  0  0  0  0  0  0  0  0  0  0
   -3.5138    1.2758   -1.0842 H   0  0  0  0  0  0  0  0  0  0  0  0
   -3.2388   -1.2486   -1.1395 H   0  0  0  0  0  0  0  0  0  0  0  0
   -2.2949   -0.0403    1.3893 H   0  0  0  0  0  0  0  0  0  0  0  0
   -1.2153    0.3072   -1.4876 H   0  0  0  0  0  0  0  0  0  0  0  0
   -1.6393    1.6608   -0.3838 H   0  0  0  0  0  0  0  0  0  0  0  0
    0.8684    0.7177   -0.6883 H   0  0  0  0  0  0  0  0  0  0  0  0
   -0.6588    2.0011    1.4231 H   0  0  0  0  0  0  0  0  0  0  0  0
    1.1111    2.1663    1.0022 H   0  0  0  0  0  0  0  0  0  0  0  0
   -0.0520    0.9649    3.3081 H   0  0  0  0  0  0  0  0  0  0  0  0
   -0.4025   -1.1632    2.7246 H   0  0  0  0  0  0  0  0  0  0  0  0
    1.3087   -1.4644    2.4875 H   0  0  0  0  0  0  0  0  0  0  0  0
    2.6978   -3.2420   -1.4374 H   0  0  0  0  0  0  0  0  0  0  0  0
    3.9094   -3.2542   -0.1204 H   0  0  0  0  0  0  0  0  0  0  0  0
    5.0696   -2.7307   -2.1005 H   0  0  0  0  0  0  0  0  0  0  0  0
    3.8705   -1.5513   -2.6617 H   0  0  0  0  0  0  0  0  0  0  0  0
    8.2055    0.5267   -1.1571 H   0  0  0  0  0  0  0  0  0  0  0  0
    5.0251    1.1501    1.6009 H   0  0  0  0  0  0  0  0  0  0  0  0
    3.4118   -0.8417    1.6643 H   0  0  0  0  0  0  0  0  0  0  0  0
    2.8355    0.4405    0.5288 H   0  0  0  0  0  0  0  0  0  0  0  0
   -1.0593   -2.0350   -0.5718 H   0  0  0  0  0  0  0  0  0  0  0  0
   -1.3459   -2.2269    1.2386 H   0  0  0  0  0  0  0  0  0  0  0  0
  1  2  1  0
  2  3  1  0
  3  4  1  0
  4  5  1  0
  5  6  1  0
  6  7  1  0
  7  8  1  0
  8  9  1  0
  9 10  1  0
 10 11  1  0
 11 12  1  0
 12 13  1  0
 13 14  1  0
 14 15  1  0
 14 16  1  0
 16 17  1  0
 17 18  1  6
 18 19  2  0
 18 20  1  0
 20 21  1  0
 21 22  1  0
 22 23  1  0
 23 24  2  0
 24 25  1  0
 25 26  2  0
 26 27  1  0
 27 28  1  0
 27 29  1  0
 27 30  1  0
 26 31  1  0
 31 32  2  0
 32 33  1  0
 17 34  1  0
  8  3  1  0
 34 10  1  0
 17 12  1  0
 33 20  1  0
 32 23  1  0
  1 35  1  0
  1 36  1  0
  1 37  1  0
  3 38  1  0
  4 39  1  0
  4 40  1  0
  6 41  1  0
  6 42  1  0
  7 43  1  0
  7 44  1  0
  8 45  1  0
  9 46  1  0
 10 47  1  1
 11 48  1  0
 11 49  1  0
 12 50  1  6
 13 51  1  0
 13 52  1  0
 14 53  1  1
 16 54  1  0
 16 55  1  0
 21 56  1  0
 21 57  1  0
 22 58  1  0
 22 59  1  0
 25 60  1  0
 31 61  1  0
 33 62  1  0
 33 63  1  0
 34 64  1  0
 34 65  1  0
M  END
$$$$
