@<TRIPOS>MOLECULE
*****
 65 69 0 0 0
SMALL
GASTEIGER

@<TRIPOS>ATOM
      1 C          -6.5442    1.9165   -2.3690 C.3     1  UNL1        0.0370
      2 O          -6.1116    1.4633   -1.1380 O.3     1  UNL1       -0.3760
      3 C          -5.3822    0.2964   -1.1932 C.3     1  UNL1        0.0969
      4 C          -6.1308   -0.7362   -0.3387 C.3     1  UNL1        0.0753
      5 O          -6.3451   -0.2404    0.9264 O.3     1  UNL1       -0.3771
      6 C          -5.1577    0.0122    1.6268 C.3     1  UNL1        0.0493
      7 C          -4.4435    1.1101    0.8781 C.3     1  UNL1       -0.0115
      8 C          -4.0678    0.5424   -0.4680 C.3     1  UNL1        0.0383
      9 N          -3.3197   -0.6732   -0.2923 N.3     1  UNL1       -0.3079
     10 C          -2.0749   -0.3701    0.3586 C.3     1  UNL1        0.0092
     11 C          -1.2686    0.6421   -0.4393 C.3     1  UNL1       -0.0336
     12 C           0.1478    0.4884    0.1582 C.3     1  UNL1       -0.0229
     13 C           0.3118    1.4377    1.2906 C.3     1  UNL1       -0.0179
     14 C           0.6502    0.6412    2.4916 C.3     1  UNL1        0.1022
     15 F           1.9092    0.9436    3.0072 F       1  UNL1       -0.2455
     16 C           0.4871   -0.8057    2.1472 C.3     1  UNL1       -0.0075
     17 C           0.2288   -0.8672    0.6575 C.3     1  UNL1        0.0541
     18 C           1.2420   -1.7281   -0.0209 C.2     1  UNL1        0.2224
     19 O           0.7566   -2.7406   -0.6454 O.2     1  UNL1       -0.2750
     20 N           2.6234   -1.5893   -0.0706 N.am    1  UNL1       -0.2963
     21 C           3.3702   -2.6105   -0.8438 C.3     1  UNL1        0.0204
     22 C           4.3606   -1.9246   -1.7567 C.3     1  UNL1        0.0058
     23 C           5.1752   -0.9262   -1.0433 C.ar    1  UNL1        0.0474
     24 N           6.4403   -0.6136   -1.4519 N.ar    1  UNL1       -0.2590
     25 C           7.1927    0.2928   -0.8099 C.ar    1  UNL1        0.0395
     26 C           6.7281    0.9501    0.2885 C.ar    1  UNL1        0.0732
     27 C           7.5063    1.9642    1.0465 C.3     1  UNL1        0.4188
     28 F           8.0243    1.3155    2.1590 F       1  UNL1       -0.1658
     29 F           6.6151    2.9234    1.5336 F       1  UNL1       -0.1658
     30 F           8.4558    2.5911    0.3003 F       1  UNL1       -0.1658
     31 C           5.4571    0.6689    0.7393 C.ar    1  UNL1       -0.0423
     32 C           4.7041   -0.2855    0.0387 C.ar    1  UNL1       -0.0083
     33 C           3.3405   -0.5407    0.5769 C.3     1  UNL1        0.0414
     34 C          -1.1312   -1.5301    0.4131 C.3     1  UNL1       -0.0232
     35 H          -5.7371    2.1348   -3.0829 H       1  UNL1        0.0524
     36 H          -7.0804    2.8773   -2.1900 H       1  UNL1        0.0524
     37 H          -7.3040    1.2410   -2.8379 H       1  UNL1        0.0524
     38 H          -5.2555   -0.0948   -2.2011 H       1  UNL1        0.0634
     39 H          -7.0953   -0.9177   -0.8142 H       1  UNL1        0.0586
     40 H          -5.4859   -1.6462   -0.3466 H       1  UNL1        0.0586
     41 H          -5.4577    0.3917    2.6224 H       1  UNL1        0.0560
     42 H          -4.5217   -0.8700    1.6776 H       1  UNL1        0.0560
     43 H          -3.5756    1.4870    1.4310 H       1  UNL1        0.0303
     44 H          -5.1292    1.9661    0.6759 H       1  UNL1        0.0303
     45 H          -3.5138    1.2758   -1.0842 H       1  UNL1        0.0487
     46 H          -3.2388   -1.2486   -1.1395 H       1  UNL1        0.1225
     47 H          -2.2949   -0.0403    1.3893 H       1  UNL1        0.0461
     48 H          -1.2153    0.3072   -1.4876 H       1  UNL1        0.0283
     49 H          -1.6393    1.6608   -0.3838 H       1  UNL1        0.0283
     50 H           0.8684    0.7177   -0.6883 H       1  UNL1        0.0312
     51 H          -0.6588    2.0011    1.4231 H       1  UNL1        0.0296
     52 H           1.1111    2.1663    1.0022 H       1  UNL1        0.0296
     53 H          -0.0520    0.9649    3.3081 H       1  UNL1        0.0651
     54 H          -0.4025   -1.1632    2.7246 H       1  UNL1        0.0303
     55 H           1.3087   -1.4644    2.4875 H       1  UNL1        0.0303
     56 H           2.6978   -3.2420   -1.4374 H       1  UNL1        0.0468
     57 H           3.9094   -3.2542   -0.1204 H       1  UNL1        0.0468
     58 H           5.0696   -2.7307   -2.1005 H       1  UNL1        0.0344
     59 H           3.8705   -1.5513   -2.6617 H       1  UNL1        0.0344
     60 H           8.2055    0.5267   -1.1571 H       1  UNL1        0.0835
     61 H           5.0251    1.1501    1.6009 H       1  UNL1        0.0627
     62 H           3.4118   -0.8417    1.6643 H       1  UNL1        0.0514
     63 H           2.8355    0.4405    0.5288 H       1  UNL1        0.0514
     64 H          -1.0593   -2.0350   -0.5718 H       1  UNL1        0.0290
     65 H          -1.3459   -2.2269    1.2386 H       1  UNL1        0.0290
@<TRIPOS>BOND
     1     1     2    1
     2     2     3    1
     3     3     4    1
     4     4     5    1
     5     5     6    1
     6     6     7    1
     7     7     8    1
     8     8     9    1
     9     9    10    1
    10    10    11    1
    11    11    12    1
    12    12    13    1
    13    13    14    1
    14    14    15    1
    15    14    16    1
    16    16    17    1
    17    17    18    1
    18    18    19    2
    19    18    20   am
    20    20    21    1
    21    21    22    1
    22    22    23    1
    23    23    24   ar
    24    24    25   ar
    25    25    26   ar
    26    26    27    1
    27    27    28    1
    28    27    29    1
    29    27    30    1
    30    26    31   ar
    31    31    32   ar
    32    32    33    1
    33    17    34    1
    34     8     3    1
    35    34    10    1
    36    17    12    1
    37    33    20    1
    38    32    23   ar
    39     1    35    1
    40     1    36    1
    41     1    37    1
    42     3    38    1
    43     4    39    1
    44     4    40    1
    45     6    41    1
    46     6    42    1
    47     7    43    1
    48     7    44    1
    49     8    45    1
    50     9    46    1
    51    10    47    1
    52    11    48    1
    53    11    49    1
    54    12    50    1
    55    13    51    1
    56    13    52    1
    57    14    53    1
    58    16    54    1
    59    16    55    1
    60    21    56    1
    61    21    57    1
    62    22    58    1
    63    22    59    1
    64    25    60    1
    65    31    61    1
    66    33    62    1
    67    33    63    1
    68    34    64    1
    69    34    65    1
