
     RDKit          3D

 42 45  0  0  0  0  0  0  0  0999 V2000
    2.5799   -2.7536    1.9588 O   0  0  0  0  0  0  0  0  0  0  0  0
    3.1331   -1.4715    1.8328 C   0  0  0  0  0  0  0  0  0  0  0  0
    3.2174   -1.0584    0.4079 C   0  0  0  0  0  0  0  0  0  0  0  0
    4.2845   -1.2749   -0.4563 C   0  0  0  0  0  0  0  0  0  0  0  0
    3.9231   -0.7329   -1.6353 N   0  0  0  0  0  0  0  0  0  0  0  0
    2.6771   -0.2035   -1.4947 C   0  0  0  0  0  0  0  0  0  0  0  0
    1.8725    0.4469   -2.3734 C   0  0  0  0  0  0  0  0  0  0  0  0
    0.6467    0.8921   -1.9991 C   0  0  0  0  0  0  0  0  0  0  0  0
    0.1628    0.7006   -0.6984 C   0  0  0  0  0  0  0  0  0  0  0  0
   -1.1567    1.1944   -0.3360 C   0  0  0  0  0  0  0  0  0  0  0  0
   -2.3150    0.5158   -0.0020 C   0  0  0  0  0  0  0  0  0  0  0  0
   -2.4239   -0.9404    0.0585 C   0  0  0  0  0  0  0  0  0  0  0  0
   -1.8366   -1.7061    1.0402 C   0  0  0  0  0  0  0  0  0  0  0  0
   -1.9588   -3.0803    1.0537 C   0  0  0  0  0  0  0  0  0  0  0  0
   -2.6802   -3.7192    0.0731 C   0  0  0  0  0  0  0  0  0  0  0  0
   -2.8063   -5.0515    0.0733 F   0  0  0  0  0  0  0  0  0  0  0  0
   -3.2716   -2.9403   -0.9158 C   0  0  0  0  0  0  0  0  0  0  0  0
   -3.1525   -1.5771   -0.9328 C   0  0  0  0  0  0  0  0  0  0  0  0
   -3.3136    1.4136    0.2557 N   0  0  0  0  0  0  0  0  0  0  0  0
   -2.7661    2.6276    0.0800 C   0  0  0  0  0  0  0  0  0  0  0  0
   -1.4712    2.5026   -0.2754 N   0  0  0  0  0  0  0  0  0  0  0  0
   -0.5713    3.6061   -0.5428 C   0  0  0  0  0  0  0  0  0  0  0  0
    0.1004    4.0259    0.7443 C   0  0  0  0  0  0  0  0  0  0  0  0
    0.8188    3.0026    1.2894 F   0  0  0  0  0  0  0  0  0  0  0  0
   -0.9066    4.3381    1.6640 F   0  0  0  0  0  0  0  0  0  0  0  0
    1.0165    0.0383    0.1474 C   0  0  0  0  0  0  0  0  0  0  0  0
    2.2370   -0.3997   -0.2422 N   0  0  0  0  0  0  0  0  0  0  0  0
    2.8264   -3.1647    2.8252 H   0  0  0  0  0  0  0  0  0  0  0  0
    2.5620   -0.7365    2.4433 H   0  0  0  0  0  0  0  0  0  0  0  0
    4.1713   -1.5367    2.2475 H   0  0  0  0  0  0  0  0  0  0  0  0
    5.2223   -1.7836   -0.2175 H   0  0  0  0  0  0  0  0  0  0  0  0
    2.2058    0.6191   -3.3933 H   0  0  0  0  0  0  0  0  0  0  0  0
   -0.0322    1.4197   -2.6757 H   0  0  0  0  0  0  0  0  0  0  0  0
   -1.2655   -1.2464    1.8327 H   0  0  0  0  0  0  0  0  0  0  0  0
   -1.4958   -3.6978    1.8299 H   0  0  0  0  0  0  0  0  0  0  0  0
   -3.8431   -3.4150   -1.6970 H   0  0  0  0  0  0  0  0  0  0  0  0
   -3.6352   -1.0192   -1.7285 H   0  0  0  0  0  0  0  0  0  0  0  0
   -3.2966    3.5619    0.2077 H   0  0  0  0  0  0  0  0  0  0  0  0
    0.2331    3.3229   -1.2464 H   0  0  0  0  0  0  0  0  0  0  0  0
   -1.1010    4.4700   -0.9958 H   0  0  0  0  0  0  0  0  0  0  0  0
    0.6856    4.9569    0.6291 H   0  0  0  0  0  0  0  0  0  0  0  0
    0.7234   -0.1456    1.1643 H   0  0  0  0  0  0  0  0  0  0  0  0
  1  2  1  0
  2  3  1  0
  3  4  2  0
  4  5  1  0
  5  6  2  0
  6  7  1  0
  7  8  2  0
  8  9  1  0
  9 10  1  0
 10 11  2  0
 11 12  1  0
 12 13  2  0
 13 14  1  0
 14 15  2  0
 15 16  1  0
 15 17  1  0
 17 18  2  0
 11 19  1  0
 19 20  2  0
 20 21  1  0
 21 22  1  0
 22 23  1  0
 23 24  1  0
 23 25  1  0
  9 26  2  0
 26 27  1  0
 27  3  1  0
 27  6  1  0
 21 10  1  0
 18 12  1  0
  1 28  1  0
  2 29  1  0
  2 30  1  0
  4 31  1  0
  7 32  1  0
  8 33  1  0
 13 34  1  0
 14 35  1  0
 17 36  1  0
 18 37  1  0
 20 38  1  0
 22 39  1  0
 22 40  1  0
 23 41  1  0
 26 42  1  0
M  END
$$$$
