@<TRIPOS>MOLECULE
*****
 42 45 0 0 0
SMALL
GASTEIGER

@<TRIPOS>ATOM
      1 O           2.5799   -2.7536    1.9588 O.3     1  UNL1       -0.3889
      2 C           3.1331   -1.4715    1.8328 C.3     1  UNL1        0.0861
      3 C           3.2174   -1.0584    0.4079 C.ar    1  UNL1        0.0684
      4 C           4.2845   -1.2749   -0.4563 C.ar    1  UNL1        0.0519
      5 N           3.9231   -0.7329   -1.6353 N.ar    1  UNL1       -0.2358
      6 C           2.6771   -0.2035   -1.4947 C.ar    1  UNL1        0.1378
      7 C           1.8725    0.4469   -2.3734 C.ar    1  UNL1       -0.0182
      8 C           0.6467    0.8921   -1.9991 C.ar    1  UNL1       -0.0477
      9 C           0.1628    0.7006   -0.6984 C.ar    1  UNL1        0.0173
     10 C          -1.1567    1.1944   -0.3360 C.ar    1  UNL1        0.0780
     11 C          -2.3150    0.5158   -0.0020 C.ar    1  UNL1        0.0967
     12 C          -2.4239   -0.9404    0.0585 C.ar    1  UNL1        0.0026
     13 C          -1.8366   -1.7061    1.0402 C.ar    1  UNL1       -0.0498
     14 C          -1.9588   -3.0803    1.0537 C.ar    1  UNL1       -0.0258
     15 C          -2.6802   -3.7192    0.0731 C.ar    1  UNL1        0.1234
     16 F          -2.8063   -5.0515    0.0733 F       1  UNL1       -0.2055
     17 C          -3.2716   -2.9403   -0.9158 C.ar    1  UNL1       -0.0258
     18 C          -3.1525   -1.5771   -0.9328 C.ar    1  UNL1       -0.0498
     19 N          -3.3136    1.4136    0.2557 N.ar    1  UNL1       -0.2351
     20 C          -2.7661    2.6276    0.0800 C.ar    1  UNL1        0.0972
     21 N          -1.4712    2.5026   -0.2754 N.ar    1  UNL1       -0.3241
     22 C          -0.5713    3.6061   -0.5428 C.3     1  UNL1        0.0852
     23 C           0.1004    4.0259    0.7443 C.3     1  UNL1        0.2569
     24 F           0.8188    3.0026    1.2894 F       1  UNL1       -0.2073
     25 F          -0.9066    4.3381    1.6640 F       1  UNL1       -0.2073
     26 C           1.0165    0.0383    0.1474 C.ar    1  UNL1        0.0207
     27 N           2.2370   -0.3997   -0.2422 N.ar    1  UNL1       -0.3007
     28 H           2.8264   -3.1647    2.8252 H       1  UNL1        0.2099
     29 H           2.5620   -0.7365    2.4433 H       1  UNL1        0.0622
     30 H           4.1713   -1.5367    2.2475 H       1  UNL1        0.0622
     31 H           5.2223   -1.7836   -0.2175 H       1  UNL1        0.0849
     32 H           2.2058    0.6191   -3.3933 H       1  UNL1        0.0654
     33 H          -0.0322    1.4197   -2.6757 H       1  UNL1        0.0626
     34 H          -1.2655   -1.2464    1.8327 H       1  UNL1        0.0625
     35 H          -1.4958   -3.6978    1.8299 H       1  UNL1        0.0646
     36 H          -3.8431   -3.4150   -1.6970 H       1  UNL1        0.0646
     37 H          -3.6352   -1.0192   -1.7285 H       1  UNL1        0.0625
     38 H          -3.2966    3.5619    0.2077 H       1  UNL1        0.1029
     39 H           0.2331    3.3229   -1.2464 H       1  UNL1        0.0548
     40 H          -1.1010    4.4700   -0.9958 H       1  UNL1        0.0548
     41 H           0.6856    4.9569    0.6291 H       1  UNL1        0.1037
     42 H           0.7234   -0.1456    1.1643 H       1  UNL1        0.0820
@<TRIPOS>BOND
     1     1     2    1
     2     2     3    1
     3     3     4   ar
     4     4     5   ar
     5     5     6   ar
     6     6     7   ar
     7     7     8   ar
     8     8     9   ar
     9     9    10    1
    10    10    11   ar
    11    11    12    1
    12    12    13   ar
    13    13    14   ar
    14    14    15   ar
    15    15    16    1
    16    15    17   ar
    17    17    18   ar
    18    11    19   ar
    19    19    20   ar
    20    20    21   ar
    21    21    22    1
    22    22    23    1
    23    23    24    1
    24    23    25    1
    25     9    26   ar
    26    26    27   ar
    27    27     3   ar
    28    27     6   ar
    29    21    10   ar
    30    18    12   ar
    31     1    28    1
    32     2    29    1
    33     2    30    1
    34     4    31    1
    35     7    32    1
    36     8    33    1
    37    13    34    1
    38    14    35    1
    39    17    36    1
    40    18    37    1
    41    20    38    1
    42    22    39    1
    43    22    40    1
    44    23    41    1
    45    26    42    1
