
     RDKit          3D

 21 20  0  0  0  0  0  0  0  0999 V2000
   -1.4714   -0.4335   -1.0662 C   0  0  0  0  0  0  0  0  0  0  0  0
   -0.4864    0.0270   -0.0746 N   0  0  0  0  0  4  0  0  0  0  0  0
   -0.5885   -0.8250    1.0711 C   0  0  0  0  0  0  0  0  0  0  0  0
   -0.9506    1.3446    0.3267 C   0  0  0  0  0  0  0  0  0  0  0  0
    0.7667    0.1133   -0.7190 C   0  0  0  0  0  0  0  0  0  0  0  0
    1.9269   -0.5389   -0.0223 C   0  0  0  0  0  0  0  0  0  0  0  0
    2.1394    0.0214    1.2484 O   0  0  0  0  0  0  0  0  0  0  0  0
   -1.1991   -1.4293   -1.4527 H   0  0  0  0  0  0  0  0  0  0  0  0
   -2.4922   -0.3416   -0.6981 H   0  0  0  0  0  0  0  0  0  0  0  0
   -1.3242    0.2705   -1.9284 H   0  0  0  0  0  0  0  0  0  0  0  0
   -0.1309   -1.8065    1.0051 H   0  0  0  0  0  0  0  0  0  0  0  0
   -0.3124   -0.2500    1.9806 H   0  0  0  0  0  0  0  0  0  0  0  0
   -1.6947   -1.0251    1.1928 H   0  0  0  0  0  0  0  0  0  0  0  0
   -0.0630    1.8359    0.7834 H   0  0  0  0  0  0  0  0  0  0  0  0
   -1.3294    1.9181   -0.5259 H   0  0  0  0  0  0  0  0  0  0  0  0
   -1.7411    1.2369    1.1121 H   0  0  0  0  0  0  0  0  0  0  0  0
    0.7508   -0.3198   -1.7588 H   0  0  0  0  0  0  0  0  0  0  0  0
    1.0731    1.1768   -0.9020 H   0  0  0  0  0  0  0  0  0  0  0  0
    2.8350   -0.3042   -0.6191 H   0  0  0  0  0  0  0  0  0  0  0  0
    1.8587   -1.6383   -0.0065 H   0  0  0  0  0  0  0  0  0  0  0  0
    2.4335    0.9675    1.0534 H   0  0  0  0  0  0  0  0  0  0  0  0
  1  2  1  0
  2  3  1  0
  2  4  1  0
  2  5  1  0
  5  6  1  0
  6  7  1  0
  1  8  1  0
  1  9  1  0
  1 10  1  0
  3 11  1  0
  3 12  1  0
  3 13  1  0
  4 14  1  0
  4 15  1  0
  4 16  1  0
  5 17  1  0
  5 18  1  0
  6 19  1  0
  6 20  1  0
  7 21  1  0
M  CHG  1   2   1
M  END
$$$$
