@<TRIPOS>MOLECULE
*****
 21 20 0 0 0
SMALL
GASTEIGER

@<TRIPOS>ATOM
      1 C          -1.4714   -0.4335   -1.0662 C.3     1  UNL1       -0.0417
      2 N          -0.4864    0.0270   -0.0746 N.4     1  UNL1        0.2385
      3 C          -0.5885   -0.8250    1.0711 C.3     1  UNL1       -0.0417
      4 C          -0.9506    1.3446    0.3267 C.3     1  UNL1       -0.0417
      5 C           0.7667    0.1133   -0.7190 C.3     1  UNL1       -0.0071
      6 C           1.9269   -0.5389   -0.0223 C.3     1  UNL1        0.0841
      7 O           2.1394    0.0214    1.2484 O.3     1  UNL1       -0.3898
      8 H          -1.1991   -1.4293   -1.4527 H       1  UNL1        0.0778
      9 H          -2.4922   -0.3416   -0.6981 H       1  UNL1        0.0778
     10 H          -1.3242    0.2705   -1.9284 H       1  UNL1        0.0778
     11 H          -0.1309   -1.8065    1.0051 H       1  UNL1        0.0778
     12 H          -0.3124   -0.2500    1.9806 H       1  UNL1        0.0778
     13 H          -1.6947   -1.0251    1.1928 H       1  UNL1        0.0778
     14 H          -0.0630    1.8359    0.7834 H       1  UNL1        0.0778
     15 H          -1.3294    1.9181   -0.5259 H       1  UNL1        0.0778
     16 H          -1.7411    1.2369    1.1121 H       1  UNL1        0.0778
     17 H           0.7508   -0.3198   -1.7588 H       1  UNL1        0.0837
     18 H           1.0731    1.1768   -0.9020 H       1  UNL1        0.0837
     19 H           2.8350   -0.3042   -0.6191 H       1  UNL1        0.0610
     20 H           1.8587   -1.6383   -0.0065 H       1  UNL1        0.0610
     21 H           2.4335    0.9675    1.0534 H       1  UNL1        0.2096
@<TRIPOS>UNITY_ATOM_ATTR
2 1
charge 1
@<TRIPOS>BOND
     1     1     2    1
     2     2     3    1
     3     2     4    1
     4     2     5    1
     5     5     6    1
     6     6     7    1
     7     1     8    1
     8     1     9    1
     9     1    10    1
    10     3    11    1
    11     3    12    1
    12     3    13    1
    13     4    14    1
    14     4    15    1
    15     4    16    1
    16     5    17    1
    17     5    18    1
    18     6    19    1
    19     6    20    1
    20     7    21    1
