@<TRIPOS>MOLECULE
*****
 74 77 0 0 0
SMALL
GASTEIGER

@<TRIPOS>ATOM
      1 C          -4.5743    6.7241    1.1767 C.3     1  UNL1        0.0789
      2 O          -3.8804    5.5352    1.4289 O.3     1  UNL1       -0.4922
      3 C          -3.3783    4.6783    0.4607 C.ar    1  UNL1        0.1557
      4 C          -3.5329    4.9483   -0.8810 C.ar    1  UNL1       -0.0170
      5 C          -3.0185    4.0702   -1.8356 C.ar    1  UNL1       -0.0575
      6 C          -2.3480    2.9192   -1.4769 C.ar    1  UNL1       -0.0508
      7 C          -2.1969    2.6546   -0.1453 C.ar    1  UNL1        0.0278
      8 C          -1.5173    1.4784    0.3978 C.ar    1  UNL1        0.0688
      9 C          -2.2881    0.3503    0.6120 C.ar    1  UNL1        0.0337
     10 C          -3.7531    0.3955    0.2609 C.3     1  UNL1       -0.0233
     11 N          -1.7258   -0.7605    1.1229 N.ar    1  UNL1       -0.2927
     12 C          -2.4057   -1.9401    1.5479 C.3     1  UNL1        0.0560
     13 C          -3.0052   -2.9310    0.7061 C.ar    1  UNL1        0.0191
     14 C          -4.3971   -2.8839    0.5203 C.ar    1  UNL1        0.1288
     15 F          -5.1872   -2.0077    1.2350 F       1  UNL1       -0.2051
     16 C          -5.0989   -3.7316   -0.2817 C.ar    1  UNL1       -0.0261
     17 C          -4.4536   -4.7241   -0.9801 C.ar    1  UNL1       -0.0585
     18 C          -3.0874   -4.8161   -0.8307 C.ar    1  UNL1       -0.0496
     19 C          -2.3872   -3.9253    0.0038 C.ar    1  UNL1        0.0624
     20 C          -0.9210   -4.1389    0.0604 C.3     1  UNL1        0.4178
     21 F          -0.5852   -5.2519   -0.7331 F       1  UNL1       -0.1659
     22 F          -0.3169   -3.0931   -0.6069 F       1  UNL1       -0.1659
     23 F          -0.4334   -4.4308    1.2919 F       1  UNL1       -0.1659
     24 C          -0.3767   -0.6907    1.4065 C.ar    1  UNL1        0.3325
     25 O           0.2074   -1.7020    1.8966 O.2     1  UNL1       -0.2462
     26 N           0.4146    0.3680    1.2221 N.ar    1  UNL1       -0.2585
     27 C           1.8169    0.4496    1.5684 C.3     1  UNL1        0.0505
     28 C           2.8210    0.1147    0.5503 C.3     1  UNL1        0.0513
     29 N           2.7114    0.9562   -0.6294 N.3     1  UNL1       -0.3079
     30 C           3.7703    0.7495   -1.5875 C.3     1  UNL1       -0.0032
     31 C           5.1044    1.2409   -1.0714 C.3     1  UNL1       -0.0353
     32 C           6.1482    0.9902   -2.1432 C.3     1  UNL1       -0.0121
     33 C           7.4903    1.4595   -1.6985 C.2     1  UNL1        0.0418
     34 O           8.4506    1.3272   -2.4959 O.co2   1  UNL1       -0.5498
     35 O           7.6852    2.0209   -0.4598 O.co2   1  UNL1       -0.5498
     36 C           3.0898   -1.2947    0.2748 C.ar    1  UNL1       -0.0288
     37 C           2.5589   -2.0110   -0.7722 C.ar    1  UNL1       -0.0570
     38 C           2.8513   -3.3412   -0.9754 C.ar    1  UNL1       -0.0615
     39 C           3.6966   -4.0338   -0.1366 C.ar    1  UNL1       -0.0617
     40 C           4.2427   -3.3397    0.9215 C.ar    1  UNL1       -0.0615
     41 C           3.9414   -2.0091    1.1123 C.ar    1  UNL1       -0.0570
     42 C          -0.1847    1.4849    0.6988 C.ar    1  UNL1        0.2647
     43 O           0.4857    2.5301    0.4898 O.2     1  UNL1       -0.2668
     44 C          -2.7057    3.5237    0.8170 C.ar    1  UNL1        0.1726
     45 F          -2.5669    3.2814    2.1452 F       1  UNL1       -0.2010
     46 H          -5.2385    6.5922    0.3028 H       1  UNL1        0.0660
     47 H          -5.1946    7.0008    2.0627 H       1  UNL1        0.0660
     48 H          -3.9140    7.5851    0.9650 H       1  UNL1        0.0660
     49 H          -4.0591    5.8530   -1.1787 H       1  UNL1        0.0655
     50 H          -3.1540    4.3039   -2.8720 H       1  UNL1        0.0619
     51 H          -1.9440    2.2279   -2.1972 H       1  UNL1        0.0625
     52 H          -4.3680    0.4481    1.1572 H       1  UNL1        0.0292
     53 H          -4.0301   -0.3303   -0.5124 H       1  UNL1        0.0292
     54 H          -3.9295    1.3927   -0.2500 H       1  UNL1        0.0292
     55 H          -1.7266   -2.4977    2.2625 H       1  UNL1        0.0544
     56 H          -3.1798   -1.5343    2.3055 H       1  UNL1        0.0544
     57 H          -6.1746   -3.6587   -0.3980 H       1  UNL1        0.0646
     58 H          -4.9644   -5.4205   -1.6293 H       1  UNL1        0.0619
     59 H          -2.5745   -5.6015   -1.3827 H       1  UNL1        0.0623
     60 H           2.0620    1.5057    1.9257 H       1  UNL1        0.0513
     61 H           2.0100   -0.1503    2.5184 H       1  UNL1        0.0513
     62 H           3.8159    0.5070    1.0115 H       1  UNL1        0.0528
     63 H           1.8122    0.7679   -1.1301 H       1  UNL1        0.1226
     64 H           3.5116    1.3619   -2.4806 H       1  UNL1        0.0424
     65 H           3.8815   -0.2859   -1.9059 H       1  UNL1        0.0424
     66 H           5.0835    2.3415   -0.8872 H       1  UNL1        0.0281
     67 H           5.4535    0.7538   -0.1624 H       1  UNL1        0.0281
     68 H           6.2381   -0.0757   -2.3850 H       1  UNL1        0.0325
     69 H           5.9162    1.5354   -3.0908 H       1  UNL1        0.0325
     70 H           1.8915   -1.5148   -1.4494 H       1  UNL1        0.0621
     71 H           2.4116   -3.8889   -1.8218 H       1  UNL1        0.0618
     72 H           3.9198   -5.0915   -0.3120 H       1  UNL1        0.0618
     73 H           4.9077   -3.8573    1.5935 H       1  UNL1        0.0618
     74 H           4.3757   -1.4634    1.9513 H       1  UNL1        0.0621
@<TRIPOS>UNITY_ATOM_ATTR
35 1
charge -1
@<TRIPOS>BOND
     1     1     2    1
     2     2     3    1
     3     3     4   ar
     4     4     5   ar
     5     5     6   ar
     6     6     7   ar
     7     7     8    1
     8     8     9   ar
     9     9    10    1
    10     9    11   ar
    11    11    12    1
    12    12    13    1
    13    13    14   ar
    14    14    15    1
    15    14    16   ar
    16    16    17   ar
    17    17    18   ar
    18    18    19   ar
    19    19    20    1
    20    20    21    1
    21    20    22    1
    22    20    23    1
    23    11    24   ar
    24    24    25    2
    25    24    26   ar
    26    26    27    1
    27    27    28    1
    28    28    29    1
    29    29    30    1
    30    30    31    1
    31    31    32    1
    32    32    33    1
    33    33    34   ar
    34    33    35   ar
    35    28    36    1
    36    36    37   ar
    37    37    38   ar
    38    38    39   ar
    39    39    40   ar
    40    40    41   ar
    41    26    42   ar
    42    42    43    2
    43     7    44   ar
    44    44    45    1
    45    44     3   ar
    46    42     8   ar
    47    19    13   ar
    48    41    36   ar
    49     1    46    1
    50     1    47    1
    51     1    48    1
    52     4    49    1
    53     5    50    1
    54     6    51    1
    55    10    52    1
    56    10    53    1
    57    10    54    1
    58    12    55    1
    59    12    56    1
    60    16    57    1
    61    17    58    1
    62    18    59    1
    63    27    60    1
    64    27    61    1
    65    28    62    1
    66    29    63    1
    67    30    64    1
    68    30    65    1
    69    31    66    1
    70    31    67    1
    71    32    68    1
    72    32    69    1
    73    37    70    1
    74    38    71    1
    75    39    72    1
    76    40    73    1
    77    41    74    1
