@<TRIPOS>MOLECULE
*****
 68 71 0 0 0
SMALL
GASTEIGER

@<TRIPOS>ATOM
      1 C          -9.9095   -0.2472    0.1266 C.3     1  UNL1       -0.0397
      2 C          -8.4448   -0.0290   -0.0536 C.ar    1  UNL1       -0.0504
      3 C          -7.9154    0.5348   -1.1879 C.ar    1  UNL1       -0.0585
      4 C          -6.5471    0.7194   -1.3139 C.ar    1  UNL1       -0.0556
      5 C          -5.6778    0.3379   -0.2944 C.ar    1  UNL1       -0.0161
      6 C          -4.2503    0.5537   -0.4762 C.3     1  UNL1        0.0910
      7 O          -4.0402    1.6663   -1.3116 O.3     1  UNL1       -0.3840
      8 C          -3.5148   -0.6017   -1.1280 C.3     1  UNL1       -0.0184
      9 C          -2.1873   -0.1009   -1.5607 C.3     1  UNL1       -0.0344
     10 C          -1.4151    0.7048   -0.5890 C.3     1  UNL1        0.0107
     11 N          -0.1091    0.1160   -0.3400 N.3     1  UNL1       -0.2976
     12 C          -0.1387   -1.1976    0.1767 C.3     1  UNL1        0.0009
     13 C           0.7421   -1.2565    1.4068 C.3     1  UNL1       -0.0205
     14 C           1.2496    0.1458    1.6157 C.3     1  UNL1        0.0370
     15 N           2.6917    0.1558    1.7344 N.am    1  UNL1       -0.3099
     16 C           3.3832    0.6572    2.8535 C.2     1  UNL1        0.2305
     17 O           2.7213    1.1310    3.8369 O.2     1  UNL1       -0.2741
     18 C           4.8483    0.6886    3.0098 C.3     1  UNL1        0.0884
     19 N           5.5923    0.1939    1.8820 N.am    1  UNL1       -0.3028
     20 C           5.5698    0.7697    0.6047 C.2     1  UNL1        0.2445
     21 O           4.8622    1.7963    0.4136 O.2     1  UNL1       -0.2702
     22 C           6.3359    0.2275   -0.5208 C.ar    1  UNL1        0.0372
     23 C           6.2627    0.8616   -1.7582 C.ar    1  UNL1       -0.0496
     24 C           6.9371    0.4375   -2.8735 C.ar    1  UNL1       -0.0605
     25 C           7.7289   -0.6733   -2.7671 C.ar    1  UNL1       -0.0501
     26 C           7.8187   -1.3214   -1.5489 C.ar    1  UNL1        0.0555
     27 C           8.6863   -2.5217   -1.4716 C.3     1  UNL1        0.4174
     28 F           8.7802   -3.0960   -2.7170 F       1  UNL1       -0.1659
     29 F           9.9475   -2.0997   -1.0415 F       1  UNL1       -0.1659
     30 F           8.2443   -3.4247   -0.5241 F       1  UNL1       -0.1659
     31 C           7.1238   -0.8751   -0.4211 C.ar    1  UNL1       -0.0380
     32 C           0.7312    0.9440    0.4713 C.3     1  UNL1        0.0176
     33 C          -2.1037    1.1452    0.6530 C.3     1  UNL1       -0.0344
     34 C          -3.5295    0.8087    0.8195 C.3     1  UNL1       -0.0184
     35 C          -6.2429   -0.2210    0.8218 C.ar    1  UNL1       -0.0556
     36 C          -7.6093   -0.4131    0.9648 C.ar    1  UNL1       -0.0585
     37 H         -10.1045   -1.0452    0.8691 H       1  UNL1        0.0278
     38 H         -10.3834   -0.4606   -0.8630 H       1  UNL1        0.0278
     39 H         -10.3493    0.6919    0.5432 H       1  UNL1        0.0278
     40 H          -8.6059    0.8259   -1.9727 H       1  UNL1        0.0620
     41 H          -6.1620    1.1635   -2.2144 H       1  UNL1        0.0621
     42 H          -4.6517    2.4050   -1.1206 H       1  UNL1        0.2106
     43 H          -3.4896   -1.4959   -0.4795 H       1  UNL1        0.0297
     44 H          -4.0996   -0.8791   -2.0292 H       1  UNL1        0.0297
     45 H          -2.3333    0.4021   -2.5635 H       1  UNL1        0.0281
     46 H          -1.5738   -1.0112   -1.8315 H       1  UNL1        0.0281
     47 H          -1.1491    1.6654   -1.1391 H       1  UNL1        0.0462
     48 H          -1.1349   -1.6293    0.3498 H       1  UNL1        0.0427
     49 H           0.3483   -1.8765   -0.5846 H       1  UNL1        0.0427
     50 H           0.1394   -1.6159    2.2797 H       1  UNL1        0.0296
     51 H           1.5745   -1.9828    1.3040 H       1  UNL1        0.0296
     52 H           0.8530    0.5978    2.5619 H       1  UNL1        0.0511
     53 H           3.2302   -0.2454    0.9431 H       1  UNL1        0.1491
     54 H           5.1736    0.2262    3.9676 H       1  UNL1        0.0558
     55 H           5.1732    1.7687    3.1210 H       1  UNL1        0.0558
     56 H           6.1823   -0.6500    2.0450 H       1  UNL1        0.1495
     57 H           5.6357    1.7410   -1.8414 H       1  UNL1        0.0625
     58 H           6.8437    0.9680   -3.8087 H       1  UNL1        0.0618
     59 H           8.2689   -1.0194   -3.6454 H       1  UNL1        0.0623
     60 H           7.2262   -1.4109    0.4975 H       1  UNL1        0.0631
     61 H           1.5486    1.4254   -0.1314 H       1  UNL1        0.0445
     62 H           0.0971    1.8143    0.8080 H       1  UNL1        0.0445
     63 H          -1.5357    0.6747    1.5109 H       1  UNL1        0.0281
     64 H          -1.9736    2.2501    0.8635 H       1  UNL1        0.0281
     65 H          -4.0814    1.6420    1.3253 H       1  UNL1        0.0297
     66 H          -3.6464   -0.0626    1.5094 H       1  UNL1        0.0297
     67 H          -5.6178   -0.5279    1.6259 H       1  UNL1        0.0621
     68 H          -8.0245   -0.8664    1.8786 H       1  UNL1        0.0620
@<TRIPOS>BOND
     1     1     2    1
     2     2     3   ar
     3     3     4   ar
     4     4     5   ar
     5     5     6    1
     6     6     7    1
     7     6     8    1
     8     8     9    1
     9     9    10    1
    10    10    11    1
    11    11    12    1
    12    12    13    1
    13    13    14    1
    14    14    15    1
    15    15    16   am
    16    16    17    2
    17    16    18    1
    18    18    19    1
    19    19    20   am
    20    20    21    2
    21    20    22    1
    22    22    23   ar
    23    23    24   ar
    24    24    25   ar
    25    25    26   ar
    26    26    27    1
    27    27    28    1
    28    27    29    1
    29    27    30    1
    30    26    31   ar
    31    14    32    1
    32    10    33    1
    33    33    34    1
    34     5    35   ar
    35    35    36   ar
    36    36     2   ar
    37    34     6    1
    38    32    11    1
    39    31    22   ar
    40     1    37    1
    41     1    38    1
    42     1    39    1
    43     3    40    1
    44     4    41    1
    45     7    42    1
    46     8    43    1
    47     8    44    1
    48     9    45    1
    49     9    46    1
    50    10    47    1
    51    12    48    1
    52    12    49    1
    53    13    50    1
    54    13    51    1
    55    14    52    1
    56    15    53    1
    57    18    54    1
    58    18    55    1
    59    19    56    1
    60    23    57    1
    61    24    58    1
    62    25    59    1
    63    31    60    1
    64    32    61    1
    65    32    62    1
    66    33    63    1
    67    33    64    1
    68    34    65    1
    69    34    66    1
    70    35    67    1
    71    36    68    1
