
     RDKit          3D

 54 56  0  0  0  0  0  0  0  0999 V2000
    6.4720   -1.1897    0.7386 C   0  0  0  0  0  0  0  0  0  0  0  0
    5.7697   -0.6433   -0.3989 N   0  0  0  0  0  0  0  0  0  0  0  0
    4.3343   -0.7901   -0.5686 C   0  0  0  0  0  0  0  0  0  0  0  0
    3.4904    0.1828   -0.4089 C   0  0  0  0  0  0  0  0  0  0  0  0
    4.1598    1.4762   -0.0452 C   0  0  0  0  0  0  0  0  0  0  0  0
    3.4624    2.5274    0.1447 N   0  0  0  0  0  0  0  0  0  0  0  0
    2.0504    0.2060   -0.3956 C   0  0  0  0  0  0  0  0  0  0  0  0
    1.6359    1.4726   -0.4506 N   0  0  0  0  0  0  0  0  0  0  0  0
    1.0173   -0.7749   -0.5096 C   0  0  0  0  0  0  0  0  0  0  0  0
   -0.2887   -0.3549   -0.8263 C   0  0  0  0  0  0  0  0  0  0  0  0
   -1.3966   -1.1436   -0.9080 C   0  0  0  0  0  0  0  0  0  0  0  0
   -2.7171   -0.6037   -1.2565 C   0  0  0  0  0  0  0  0  0  0  0  0
   -3.4333   -1.1853   -2.2794 C   0  0  0  0  0  0  0  0  0  0  0  0
   -4.6415   -0.6806   -2.6235 N   0  0  0  0  0  0  0  0  0  0  0  0
   -5.2079    0.3718   -2.0261 C   0  0  0  0  0  0  0  0  0  0  0  0
   -4.5235    0.9825   -0.9974 C   0  0  0  0  0  0  0  0  0  0  0  0
   -3.2821    0.4744   -0.6327 C   0  0  0  0  0  0  0  0  0  0  0  0
   -2.4925    0.9940    0.4249 N   0  0  0  0  0  0  0  0  0  0  0  0
   -2.3491    2.2473    1.0686 C   0  0  2  0  0  0  0  0  0  0  0  0
   -2.6218    2.0151    2.5626 C   0  0  0  0  0  0  0  0  0  0  0  0
   -3.2412    3.3443    0.6379 C   0  0  0  0  0  0  0  0  0  0  0  0
   -4.6465    3.0560    0.4198 C   0  0  0  0  0  0  0  0  0  0  0  0
   -5.5229    3.7245    1.0730 O   0  0  0  0  0  0  0  0  0  0  0  0
   -5.2384    2.1006   -0.4487 N   0  0  0  0  0  0  0  0  0  0  0  0
   -1.2348   -2.4886   -0.6585 C   0  0  0  0  0  0  0  0  0  0  0  0
   -0.0053   -2.9892   -0.3368 C   0  0  0  0  0  0  0  0  0  0  0  0
    1.0951   -2.1201   -0.2620 C   0  0  0  0  0  0  0  0  0  0  0  0
    2.2015   -2.6508    0.4727 N   0  0  0  0  0  0  0  0  0  0  0  0
    2.3171   -4.0968    0.6436 C   0  0  0  0  0  0  0  0  0  0  0  0
    7.4238   -1.6448    0.3386 H   0  0  0  0  0  0  0  0  0  0  0  0
    6.7145   -0.4113    1.4862 H   0  0  0  0  0  0  0  0  0  0  0  0
    5.8534   -2.0055    1.1363 H   0  0  0  0  0  0  0  0  0  0  0  0
    6.3197   -0.1296   -1.1132 H   0  0  0  0  0  0  0  0  0  0  0  0
    3.9685   -1.7314   -0.9262 H   0  0  0  0  0  0  0  0  0  0  0  0
    5.2148    1.5262    0.0572 H   0  0  0  0  0  0  0  0  0  0  0  0
    3.9173    3.4291    0.3975 H   0  0  0  0  0  0  0  0  0  0  0  0
    0.7228    1.8371   -0.4563 H   0  0  0  0  0  0  0  0  0  0  0  0
   -0.4428    0.6801   -1.0494 H   0  0  0  0  0  0  0  0  0  0  0  0
   -3.0414   -2.0303   -2.8016 H   0  0  0  0  0  0  0  0  0  0  0  0
   -6.1803    0.7597   -2.3201 H   0  0  0  0  0  0  0  0  0  0  0  0
   -1.8580    0.2447    0.8324 H   0  0  0  0  0  0  0  0  0  0  0  0
   -1.2937    2.5739    0.9868 H   0  0  0  0  0  0  0  0  0  0  0  0
   -2.8287    2.9832    3.0712 H   0  0  0  0  0  0  0  0  0  0  0  0
   -3.4650    1.3050    2.7080 H   0  0  0  0  0  0  0  0  0  0  0  0
   -1.7499    1.5726    3.0792 H   0  0  0  0  0  0  0  0  0  0  0  0
   -2.8160    3.7814   -0.2936 H   0  0  0  0  0  0  0  0  0  0  0  0
   -3.1803    4.1831    1.3934 H   0  0  0  0  0  0  0  0  0  0  0  0
   -6.2481    2.1969   -0.7166 H   0  0  0  0  0  0  0  0  0  0  0  0
   -2.1185   -3.1213   -0.7295 H   0  0  0  0  0  0  0  0  0  0  0  0
    0.1250   -4.0517   -0.1409 H   0  0  0  0  0  0  0  0  0  0  0  0
    2.8720   -2.0681    0.9656 H   0  0  0  0  0  0  0  0  0  0  0  0
    3.3071   -4.3931    0.9947 H   0  0  0  0  0  0  0  0  0  0  0  0
    1.5271   -4.4389    1.3269 H   0  0  0  0  0  0  0  0  0  0  0  0
    2.0939   -4.5108   -0.3796 H   0  0  0  0  0  0  0  0  0  0  0  0
  1  2  1  0
  2  3  1  0
  3  4  2  0
  4  5  1  0
  5  6  2  0
  4  7  1  0
  7  8  2  3
  7  9  1  0
  9 10  2  0
 10 11  1  0
 11 12  1  0
 12 13  2  0
 13 14  1  0
 14 15  2  0
 15 16  1  0
 16 17  2  0
 17 18  1  0
 18 19  1  0
 19 20  1  0
 19 21  1  0
 21 22  1  0
 22 23  2  0
 22 24  1  0
 11 25  2  0
 25 26  1  0
 26 27  2  0
 27 28  1  0
 28 29  1  0
 27  9  1  0
 17 12  1  0
 24 16  1  0
  1 30  1  0
  1 31  1  0
  1 32  1  0
  2 33  1  0
  3 34  1  0
  5 35  1  0
  6 36  1  0
  8 37  1  0
 10 38  1  0
 13 39  1  0
 15 40  1  0
 18 41  1  0
 19 42  1  1
 20 43  1  0
 20 44  1  0
 20 45  1  0
 21 46  1  0
 21 47  1  0
 24 48  1  0
 25 49  1  0
 26 50  1  0
 28 51  1  0
 29 52  1  0
 29 53  1  0
 29 54  1  0
M  END
$$$$
