@<TRIPOS>MOLECULE
*****
 54 56 0 0 0
SMALL
GASTEIGER

@<TRIPOS>ATOM
      1 C           6.4720   -1.1897    0.7386 C.3     1  UNL1       -0.0029
      2 N           5.7697   -0.6433   -0.3989 N.pl3   1  UNL1       -0.3521
      3 C           4.3343   -0.7901   -0.5686 C.2     1  UNL1       -0.0001
      4 C           3.4904    0.1828   -0.4089 C.2     1  UNL1        0.0311
      5 C           4.1598    1.4762   -0.0452 C.2     1  UNL1        0.0291
      6 N           3.4624    2.5274    0.1447 N.2     1  UNL1       -0.3067
      7 C           2.0504    0.2060   -0.3956 C.2     1  UNL1        0.0737
      8 N           1.6359    1.4726   -0.4506 N.2     1  UNL1       -0.2984
      9 C           1.0173   -0.7749   -0.5096 C.ar    1  UNL1        0.0217
     10 C          -0.2887   -0.3549   -0.8263 C.ar    1  UNL1       -0.0430
     11 C          -1.3966   -1.1436   -0.9080 C.ar    1  UNL1       -0.0139
     12 C          -2.7171   -0.6037   -1.2565 C.ar    1  UNL1        0.0229
     13 C          -3.4333   -1.1853   -2.2794 C.ar    1  UNL1        0.0371
     14 N          -4.6415   -0.6806   -2.6235 N.ar    1  UNL1       -0.2607
     15 C          -5.2079    0.3718   -2.0261 C.ar    1  UNL1        0.0506
     16 C          -4.5235    0.9825   -0.9974 C.ar    1  UNL1        0.0734
     17 C          -3.2821    0.4744   -0.6327 C.ar    1  UNL1        0.0596
     18 N          -2.4925    0.9940    0.4249 N.pl3   1  UNL1       -0.3388
     19 C          -2.3491    2.2473    1.0686 C.3     1  UNL1        0.0261
     20 C          -2.6218    2.0151    2.5626 C.3     1  UNL1       -0.0463
     21 C          -3.2412    3.3443    0.6379 C.3     1  UNL1        0.0423
     22 C          -4.6465    3.0560    0.4198 C.2     1  UNL1        0.2190
     23 O          -5.5229    3.7245    1.0730 O.2     1  UNL1       -0.2754
     24 N          -5.2384    2.1006   -0.4487 N.am    1  UNL1       -0.2827
     25 C          -1.2348   -2.4886   -0.6585 C.ar    1  UNL1       -0.0521
     26 C          -0.0053   -2.9892   -0.3368 C.ar    1  UNL1       -0.0396
     27 C           1.0951   -2.1201   -0.2620 C.ar    1  UNL1        0.0362
     28 N           2.2015   -2.6508    0.4727 N.pl3   1  UNL1       -0.3464
     29 C           2.3171   -4.0968    0.6436 C.3     1  UNL1       -0.0024
     30 H           7.4238   -1.6448    0.3386 H       1  UNL1        0.0425
     31 H           6.7145   -0.4113    1.4862 H       1  UNL1        0.0425
     32 H           5.8534   -2.0055    1.1363 H       1  UNL1        0.0425
     33 H           6.3197   -0.1296   -1.1132 H       1  UNL1        0.1452
     34 H           3.9685   -1.7314   -0.9262 H       1  UNL1        0.0785
     35 H           5.2148    1.5262    0.0572 H       1  UNL1        0.0829
     36 H           3.9173    3.4291    0.3975 H       1  UNL1        0.1860
     37 H           0.7228    1.8371   -0.4563 H       1  UNL1        0.1867
     38 H          -0.4428    0.6801   -1.0494 H       1  UNL1        0.0631
     39 H          -3.0414   -2.0303   -2.8016 H       1  UNL1        0.0836
     40 H          -6.1803    0.7597   -2.3201 H       1  UNL1        0.0849
     41 H          -1.8580    0.2447    0.8324 H       1  UNL1        0.1464
     42 H          -1.2937    2.5739    0.9868 H       1  UNL1        0.0499
     43 H          -2.8287    2.9832    3.0712 H       1  UNL1        0.0248
     44 H          -3.4650    1.3050    2.7080 H       1  UNL1        0.0248
     45 H          -1.7499    1.5726    3.0792 H       1  UNL1        0.0248
     46 H          -2.8160    3.7814   -0.2936 H       1  UNL1        0.0376
     47 H          -3.1803    4.1831    1.3934 H       1  UNL1        0.0376
     48 H          -6.2481    2.1969   -0.7166 H       1  UNL1        0.1549
     49 H          -2.1185   -3.1213   -0.7295 H       1  UNL1        0.0624
     50 H           0.1250   -4.0517   -0.1409 H       1  UNL1        0.0636
     51 H           2.8720   -2.0681    0.9656 H       1  UNL1        0.1458
     52 H           3.3071   -4.3931    0.9947 H       1  UNL1        0.0425
     53 H           1.5271   -4.4389    1.3269 H       1  UNL1        0.0425
     54 H           2.0939   -4.5108   -0.3796 H       1  UNL1        0.0425
@<TRIPOS>BOND
     1     1     2    1
     2     2     3    1
     3     3     4    2
     4     4     5    1
     5     5     6    2
     6     4     7    1
     7     7     8    2
     8     7     9    1
     9     9    10   ar
    10    10    11   ar
    11    11    12    1
    12    12    13   ar
    13    13    14   ar
    14    14    15   ar
    15    15    16   ar
    16    16    17   ar
    17    17    18    1
    18    18    19    1
    19    19    20    1
    20    19    21    1
    21    21    22    1
    22    22    23    2
    23    22    24   am
    24    11    25   ar
    25    25    26   ar
    26    26    27   ar
    27    27    28    1
    28    28    29    1
    29    27     9   ar
    30    17    12   ar
    31    24    16    1
    32     1    30    1
    33     1    31    1
    34     1    32    1
    35     2    33    1
    36     3    34    1
    37     5    35    1
    38     6    36    1
    39     8    37    1
    40    10    38    1
    41    13    39    1
    42    15    40    1
    43    18    41    1
    44    19    42    1
    45    20    43    1
    46    20    44    1
    47    20    45    1
    48    21    46    1
    49    21    47    1
    50    24    48    1
    51    25    49    1
    52    26    50    1
    53    28    51    1
    54    29    52    1
    55    29    53    1
    56    29    54    1
