
     RDKit          3D

 51 54  0  0  0  0  0  0  0  0999 V2000
    2.7434    0.6297    1.5460 C   0  0  0  0  0  0  0  0  0  0  0  0
    2.4172    0.6499    0.0784 C   0  0  2  0  0  0  0  0  0  0  0  0
    1.5056    1.7395   -0.2677 C   0  0  0  0  0  0  0  0  0  0  0  0
    0.2821    1.3929   -1.0342 C   0  0  0  0  0  0  0  0  0  0  0  0
   -0.4059    0.1396   -0.6682 C   0  0  1  0  0  0  0  0  0  0  0  0
    0.4637   -0.7430    0.2268 C   0  0  1  0  0  0  0  0  0  0  0  0
   -0.1310   -2.0959    0.4260 C   0  0  0  0  0  0  0  0  0  0  0  0
   -1.5350   -1.8741    1.0079 C   0  0  0  0  0  0  0  0  0  0  0  0
   -2.3631   -1.1056    0.0372 C   0  0  1  0  0  0  0  0  0  0  0  0
   -3.7848   -1.0845    0.5428 C   0  0  0  0  0  0  0  0  0  0  0  0
   -4.4740    0.0986   -0.0349 C   0  0  0  0  0  0  0  0  0  0  0  0
   -5.4118    0.6614    0.4935 O   0  0  0  0  0  0  0  0  0  0  0  0
   -3.9750    0.6114   -1.3358 C   0  0  0  0  0  0  0  0  0  0  0  0
   -2.5781    1.0928   -1.1498 C   0  0  0  0  0  0  0  0  0  0  0  0
   -1.7956    0.3041   -0.1151 C   0  0  2  0  0  0  0  0  0  0  0  0
   -1.8435    1.0732    1.1684 C   0  0  0  0  0  0  0  0  0  0  0  0
    1.7873   -0.6741   -0.3830 C   0  0  2  0  0  0  0  0  0  0  0  0
    2.8196   -1.6444   -0.0410 C   0  0  0  0  0  0  0  0  0  0  0  0
    4.1090   -0.9027   -0.3379 C   0  0  0  0  0  0  0  0  0  0  0  0
    3.6907    0.5352   -0.6883 C   0  0  2  0  0  0  0  0  0  0  0  0
    4.6601    1.4401   -0.3408 O   0  0  0  0  0  0  0  0  0  0  0  0
    3.5362    1.4106    1.7044 H   0  0  0  0  0  0  0  0  0  0  0  0
    3.1618   -0.3123    1.9046 H   0  0  0  0  0  0  0  0  0  0  0  0
    1.8975    0.9367    2.1843 H   0  0  0  0  0  0  0  0  0  0  0  0
    1.1558    2.2366    0.6873 H   0  0  0  0  0  0  0  0  0  0  0  0
    2.0056    2.5893   -0.8220 H   0  0  0  0  0  0  0  0  0  0  0  0
   -0.4494    2.2417   -0.9015 H   0  0  0  0  0  0  0  0  0  0  0  0
    0.5482    1.4450   -2.1305 H   0  0  0  0  0  0  0  0  0  0  0  0
   -0.5340   -0.4671   -1.6151 H   0  0  0  0  0  0  0  0  0  0  0  0
    0.4555   -0.2319    1.2339 H   0  0  0  0  0  0  0  0  0  0  0  0
    0.4377   -2.6023    1.2319 H   0  0  0  0  0  0  0  0  0  0  0  0
   -0.1645   -2.7103   -0.4775 H   0  0  0  0  0  0  0  0  0  0  0  0
   -1.9850   -2.7970    1.3708 H   0  0  0  0  0  0  0  0  0  0  0  0
   -1.3677   -1.2243    1.9041 H   0  0  0  0  0  0  0  0  0  0  0  0
   -2.2820   -1.5834   -0.9575 H   0  0  0  0  0  0  0  0  0  0  0  0
   -3.8543   -1.1256    1.6411 H   0  0  0  0  0  0  0  0  0  0  0  0
   -4.2879   -1.9893    0.0962 H   0  0  0  0  0  0  0  0  0  0  0  0
   -3.9943   -0.1786   -2.1323 H   0  0  0  0  0  0  0  0  0  0  0  0
   -4.5856    1.4733   -1.7044 H   0  0  0  0  0  0  0  0  0  0  0  0
   -2.5327    2.1834   -0.8716 H   0  0  0  0  0  0  0  0  0  0  0  0
   -2.0779    1.0519   -2.1600 H   0  0  0  0  0  0  0  0  0  0  0  0
   -2.4850    0.4819    1.8810 H   0  0  0  0  0  0  0  0  0  0  0  0
   -2.3862    2.0564    1.0613 H   0  0  0  0  0  0  0  0  0  0  0  0
   -0.8529    1.2874    1.6069 H   0  0  0  0  0  0  0  0  0  0  0  0
    1.7559   -0.5763   -1.5102 H   0  0  0  0  0  0  0  0  0  0  0  0
    2.7719   -2.5099   -0.7635 H   0  0  0  0  0  0  0  0  0  0  0  0
    2.7940   -2.0844    0.9598 H   0  0  0  0  0  0  0  0  0  0  0  0
    4.7868   -0.8825    0.5339 H   0  0  0  0  0  0  0  0  0  0  0  0
    4.6072   -1.2867   -1.2599 H   0  0  0  0  0  0  0  0  0  0  0  0
    3.4609    0.6203   -1.7656 H   0  0  0  0  0  0  0  0  0  0  0  0
    4.2835    2.3031   -0.0601 H   0  0  0  0  0  0  0  0  0  0  0  0
  2  1  1  1
  2  3  1  0
  3  4  1  0
  4  5  1  0
  5  6  1  0
  6  7  1  0
  7  8  1  0
  8  9  1  0
  9 10  1  0
 10 11  1  0
 11 12  2  0
 11 13  1  0
 13 14  1  0
 14 15  1  0
 15 16  1  1
  6 17  1  0
 17 18  1  0
 18 19  1  0
 19 20  1  0
 20 21  1  0
 17  2  1  0
 20  2  1  0
 15  5  1  0
 15  9  1  0
  1 22  1  0
  1 23  1  0
  1 24  1  0
  3 25  1  0
  3 26  1  0
  4 27  1  0
  4 28  1  0
  5 29  1  6
  6 30  1  1
  7 31  1  0
  7 32  1  0
  8 33  1  0
  8 34  1  0
  9 35  1  6
 10 36  1  0
 10 37  1  0
 13 38  1  0
 13 39  1  0
 14 40  1  0
 14 41  1  0
 16 42  1  0
 16 43  1  0
 16 44  1  0
 17 45  1  6
 18 46  1  0
 18 47  1  0
 19 48  1  0
 19 49  1  0
 20 50  1  6
 21 51  1  0
M  END
$$$$
