@<TRIPOS>MOLECULE
*****
 51 54 0 0 0
SMALL
GASTEIGER

@<TRIPOS>ATOM
      1 C           2.7434    0.6297    1.5460 C.3     1  UNL1       -0.0569
      2 C           2.4172    0.6499    0.0784 C.3     1  UNL1       -0.0030
      3 C           1.5056    1.7395   -0.2677 C.3     1  UNL1       -0.0447
      4 C           0.2821    1.3929   -1.0342 C.3     1  UNL1       -0.0489
      5 C          -0.4059    0.1396   -0.6682 C.3     1  UNL1       -0.0322
      6 C           0.4637   -0.7430    0.2268 C.3     1  UNL1       -0.0343
      7 C          -0.1310   -2.0959    0.4260 C.3     1  UNL1       -0.0494
      8 C          -1.5350   -1.8741    1.0079 C.3     1  UNL1       -0.0491
      9 C          -2.3631   -1.1056    0.0372 C.3     1  UNL1       -0.0287
     10 C          -3.7848   -1.0845    0.5428 C.3     1  UNL1        0.0092
     11 C          -4.4740    0.0986   -0.0349 C.2     1  UNL1        0.1337
     12 O          -5.4118    0.6614    0.4935 O.2     1  UNL1       -0.2974
     13 C          -3.9750    0.6114   -1.3358 C.3     1  UNL1        0.0063
     14 C          -2.5781    1.0928   -1.1498 C.3     1  UNL1       -0.0404
     15 C          -1.7956    0.3041   -0.1151 C.3     1  UNL1       -0.0254
     16 C          -1.8435    1.0732    1.1684 C.3     1  UNL1       -0.0590
     17 C           1.7873   -0.6741   -0.3830 C.3     1  UNL1       -0.0301
     18 C           2.8196   -1.6444   -0.0410 C.3     1  UNL1       -0.0470
     19 C           4.1090   -0.9027   -0.3379 C.3     1  UNL1       -0.0261
     20 C           3.6907    0.5352   -0.6883 C.3     1  UNL1        0.0609
     21 O           4.6601    1.4401   -0.3408 O.3     1  UNL1       -0.3912
     22 H           3.5362    1.4106    1.7044 H       1  UNL1        0.0236
     23 H           3.1618   -0.3123    1.9046 H       1  UNL1        0.0236
     24 H           1.8975    0.9367    2.1843 H       1  UNL1        0.0236
     25 H           1.1558    2.2366    0.6873 H       1  UNL1        0.0271
     26 H           2.0056    2.5893   -0.8220 H       1  UNL1        0.0271
     27 H          -0.4494    2.2417   -0.9015 H       1  UNL1        0.0268
     28 H           0.5482    1.4450   -2.1305 H       1  UNL1        0.0268
     29 H          -0.5340   -0.4671   -1.6151 H       1  UNL1        0.0309
     30 H           0.4555   -0.2319    1.2339 H       1  UNL1        0.0306
     31 H           0.4377   -2.6023    1.2319 H       1  UNL1        0.0268
     32 H          -0.1645   -2.7103   -0.4775 H       1  UNL1        0.0268
     33 H          -1.9850   -2.7970    1.3708 H       1  UNL1        0.0268
     34 H          -1.3677   -1.2243    1.9041 H       1  UNL1        0.0268
     35 H          -2.2820   -1.5834   -0.9575 H       1  UNL1        0.0310
     36 H          -3.8543   -1.1256    1.6411 H       1  UNL1        0.0344
     37 H          -4.2879   -1.9893    0.0962 H       1  UNL1        0.0344
     38 H          -3.9943   -0.1786   -2.1323 H       1  UNL1        0.0342
     39 H          -4.5856    1.4733   -1.7044 H       1  UNL1        0.0342
     40 H          -2.5327    2.1834   -0.8716 H       1  UNL1        0.0275
     41 H          -2.0779    1.0519   -2.1600 H       1  UNL1        0.0275
     42 H          -2.4850    0.4819    1.8810 H       1  UNL1        0.0235
     43 H          -2.3862    2.0564    1.0613 H       1  UNL1        0.0235
     44 H          -0.8529    1.2874    1.6069 H       1  UNL1        0.0235
     45 H           1.7559   -0.5763   -1.5102 H       1  UNL1        0.0310
     46 H           2.7719   -2.5099   -0.7635 H       1  UNL1        0.0269
     47 H           2.7940   -2.0844    0.9598 H       1  UNL1        0.0269
     48 H           4.7868   -0.8825    0.5339 H       1  UNL1        0.0290
     49 H           4.6072   -1.2867   -1.2599 H       1  UNL1        0.0290
     50 H           3.4609    0.6203   -1.7656 H       1  UNL1        0.0599
     51 H           4.2835    2.3031   -0.0601 H       1  UNL1        0.2098
@<TRIPOS>BOND
     1     2     1    1
     2     2     3    1
     3     3     4    1
     4     4     5    1
     5     5     6    1
     6     6     7    1
     7     7     8    1
     8     8     9    1
     9     9    10    1
    10    10    11    1
    11    11    12    2
    12    11    13    1
    13    13    14    1
    14    14    15    1
    15    15    16    1
    16     6    17    1
    17    17    18    1
    18    18    19    1
    19    19    20    1
    20    20    21    1
    21    17     2    1
    22    20     2    1
    23    15     5    1
    24    15     9    1
    25     1    22    1
    26     1    23    1
    27     1    24    1
    28     3    25    1
    29     3    26    1
    30     4    27    1
    31     4    28    1
    32     5    29    1
    33     6    30    1
    34     7    31    1
    35     7    32    1
    36     8    33    1
    37     8    34    1
    38     9    35    1
    39    10    36    1
    40    10    37    1
    41    13    38    1
    42    13    39    1
    43    14    40    1
    44    14    41    1
    45    16    42    1
    46    16    43    1
    47    16    44    1
    48    17    45    1
    49    18    46    1
    50    18    47    1
    51    19    48    1
    52    19    49    1
    53    20    50    1
    54    21    51    1
