
     RDKit          3D

 28 29  0  0  0  0  0  0  0  0999 V2000
   -3.6332    1.2671    0.7080 C   0  0  0  0  0  0  0  0  0  0  0  0
   -2.2790    0.7795    0.4672 N   0  0  0  0  0  0  0  0  0  0  0  0
   -1.5473    1.0622   -0.6096 C   0  0  0  0  0  0  0  0  0  0  0  0
   -0.3136    0.4120   -0.4721 C   0  0  0  0  0  0  0  0  0  0  0  0
    0.6985    0.5318   -1.4914 C   0  0  0  0  0  0  0  0  0  0  0  0
    1.9121    0.0980   -1.7131 C   0  0  0  0  0  0  0  0  0  0  0  0
    2.7873    0.3477   -2.8476 C   0  0  0  0  0  0  0  0  0  0  0  0
    4.1313   -0.2737   -2.8485 C   0  0  0  0  0  0  0  0  0  0  0  0
    2.3574    1.0822   -3.7756 O   0  0  0  0  0  0  0  0  0  0  0  0
   -0.4307   -0.2294    0.7333 C   0  0  0  0  0  0  0  0  0  0  0  0
    0.4722   -1.0221    1.3830 C   0  0  0  0  0  0  0  0  0  0  0  0
    0.1852   -1.5877    2.5932 C   0  0  0  0  0  0  0  0  0  0  0  0
   -1.0336   -1.3701    3.1936 C   0  0  0  0  0  0  0  0  0  0  0  0
   -1.9620   -0.5728    2.5565 C   0  0  0  0  0  0  0  0  0  0  0  0
   -1.6442   -0.0154    1.3356 C   0  0  0  0  0  0  0  0  0  0  0  0
   -4.2946    0.4179    0.9705 H   0  0  0  0  0  0  0  0  0  0  0  0
   -4.0782    1.7272   -0.2077 H   0  0  0  0  0  0  0  0  0  0  0  0
   -3.6297    1.9848    1.5565 H   0  0  0  0  0  0  0  0  0  0  0  0
   -1.9282    1.7063   -1.4203 H   0  0  0  0  0  0  0  0  0  0  0  0
    0.4771    1.1484   -2.3822 H   0  0  0  0  0  0  0  0  0  0  0  0
    2.2494   -0.5156   -0.9203 H   0  0  0  0  0  0  0  0  0  0  0  0
    4.4217   -0.4878   -3.9027 H   0  0  0  0  0  0  0  0  0  0  0  0
    4.0673   -1.2345   -2.2687 H   0  0  0  0  0  0  0  0  0  0  0  0
    4.9197    0.3764   -2.4015 H   0  0  0  0  0  0  0  0  0  0  0  0
    1.4200   -1.2281    0.9796 H   0  0  0  0  0  0  0  0  0  0  0  0
    0.9030   -2.2181    3.1102 H   0  0  0  0  0  0  0  0  0  0  0  0
   -1.2868   -1.8072    4.1541 H   0  0  0  0  0  0  0  0  0  0  0  0
   -2.9411   -0.3792    3.0062 H   0  0  0  0  0  0  0  0  0  0  0  0
  1  2  1  0
  2  3  1  0
  3  4  2  0
  4  5  1  0
  5  6  2  0
  6  7  1  0
  7  8  1  0
  7  9  2  0
  4 10  1  0
 10 11  2  0
 11 12  1  0
 12 13  2  0
 13 14  1  0
 14 15  2  0
 15  2  1  0
 15 10  1  0
  1 16  1  0
  1 17  1  0
  1 18  1  0
  3 19  1  0
  5 20  1  0
  6 21  1  0
  8 22  1  0
  8 23  1  0
  8 24  1  0
 11 25  1  0
 12 26  1  0
 13 27  1  0
 14 28  1  0
M  END
$$$$
