@<TRIPOS>MOLECULE
*****
 28 29 0 0 0
SMALL
GASTEIGER

@<TRIPOS>ATOM
      1 C          -3.6332    1.2671    0.7080 C.3     1  UNL1        0.0119
      2 N          -2.2790    0.7795    0.4672 N.ar    1  UNL1       -0.3491
      3 C          -1.5473    1.0622   -0.6096 C.ar    1  UNL1        0.0125
      4 C          -0.3136    0.4120   -0.4721 C.ar    1  UNL1        0.0003
      5 C           0.6985    0.5318   -1.4914 C.2     1  UNL1       -0.0493
      6 C           1.9121    0.0980   -1.7131 C.2     1  UNL1       -0.0189
      7 C           2.7873    0.3477   -2.8476 C.2     1  UNL1        0.1531
      8 C           4.1313   -0.2737   -2.8485 C.3     1  UNL1       -0.0020
      9 O           2.3574    1.0822   -3.7756 O.2     1  UNL1       -0.2930
     10 C          -0.4307   -0.2294    0.7333 C.ar    1  UNL1        0.0070
     11 C           0.4722   -1.0221    1.3830 C.ar    1  UNL1       -0.0520
     12 C           0.1852   -1.5877    2.5932 C.ar    1  UNL1       -0.0611
     13 C          -1.0336   -1.3701    3.1936 C.ar    1  UNL1       -0.0598
     14 C          -1.9620   -0.5728    2.5565 C.ar    1  UNL1       -0.0376
     15 C          -1.6442   -0.0154    1.3356 C.ar    1  UNL1        0.0494
     16 H          -4.2946    0.4179    0.9705 H       1  UNL1        0.0456
     17 H          -4.0782    1.7272   -0.2077 H       1  UNL1        0.0456
     18 H          -3.6297    1.9848    1.5565 H       1  UNL1        0.0456
     19 H          -1.9282    1.7063   -1.4203 H       1  UNL1        0.0815
     20 H           0.4771    1.1484   -2.3822 H       1  UNL1        0.0625
     21 H           2.2494   -0.5156   -0.9203 H       1  UNL1        0.0652
     22 H           4.4217   -0.4878   -3.9027 H       1  UNL1        0.0309
     23 H           4.0673   -1.2345   -2.2687 H       1  UNL1        0.0309
     24 H           4.9197    0.3764   -2.4015 H       1  UNL1        0.0309
     25 H           1.4200   -1.2281    0.9796 H       1  UNL1        0.0624
     26 H           0.9030   -2.2181    3.1102 H       1  UNL1        0.0618
     27 H          -1.2868   -1.8072    4.1541 H       1  UNL1        0.0618
     28 H          -2.9411   -0.3792    3.0062 H       1  UNL1        0.0638
@<TRIPOS>BOND
     1     1     2    1
     2     2     3   ar
     3     3     4   ar
     4     4     5    1
     5     5     6    2
     6     6     7    1
     7     7     8    1
     8     7     9    2
     9     4    10   ar
    10    10    11   ar
    11    11    12   ar
    12    12    13   ar
    13    13    14   ar
    14    14    15   ar
    15    15     2   ar
    16    15    10   ar
    17     1    16    1
    18     1    17    1
    19     1    18    1
    20     3    19    1
    21     5    20    1
    22     6    21    1
    23     8    22    1
    24     8    23    1
    25     8    24    1
    26    11    25    1
    27    12    26    1
    28    13    27    1
    29    14    28    1
