@<TRIPOS>MOLECULE
*****
 45 49 0 0 0
SMALL
GASTEIGER

@<TRIPOS>ATOM
      1 C          -6.8442   -0.9533    0.0963 C.3     1  UNL1        0.0309
      2 N          -5.4064   -0.7726    0.0300 N.ar    1  UNL1       -0.2660
      3 N          -4.5339   -1.1760   -0.8932 N.ar    1  UNL1       -0.1687
      4 C          -3.2912   -0.7889   -0.5894 C.ar    1  UNL1        0.1201
      5 C          -2.0687   -1.0359   -1.3847 C.ar    1  UNL1        0.1104
      6 C          -2.1193   -1.7264   -2.5659 C.ar    1  UNL1        0.0575
      7 N          -1.0397   -1.9693   -3.3379 N.ar    1  UNL1       -0.2338
      8 C           0.1588   -1.4979   -2.9101 C.ar    1  UNL1        0.1574
      9 N           1.4112   -1.5474   -3.3987 N.ar    1  UNL1       -0.3438
     10 C           2.2408   -0.9076   -2.5581 C.ar    1  UNL1        0.0178
     11 C           1.5283   -0.4202   -1.4869 C.ar    1  UNL1        0.0815
     12 C           2.0308    0.3531   -0.3448 C.2     1  UNL1        0.2479
     13 O           1.2619    0.9606    0.4068 O.2     1  UNL1       -0.2701
     14 N           3.4231    0.4171   -0.0871 N.am    1  UNL1       -0.3082
     15 C           4.0426    1.1408    0.9901 C.3     1  UNL1        0.0281
     16 C           5.1149    0.2603    1.6473 C.3     1  UNL1       -0.0082
     17 C           6.1312    0.8067    0.6297 C.3     1  UNL1        0.0586
     18 O           7.3766    1.0767    1.1558 O.3     1  UNL1       -0.3917
     19 C           5.2207    2.0203    0.5158 C.3     1  UNL1       -0.0082
     20 C           0.2282   -0.7938   -1.7118 C.ar    1  UNL1        0.1202
     21 N          -0.8843   -0.5665   -0.9551 N.ar    1  UNL1       -0.2397
     22 C          -3.3753   -0.0993    0.5919 C.ar    1  UNL1        0.0293
     23 C          -2.4550    0.5395    1.4096 C.ar    1  UNL1       -0.0477
     24 C          -2.8403    1.1687    2.5819 C.ar    1  UNL1       -0.0257
     25 C          -4.1717    1.1626    2.9526 C.ar    1  UNL1        0.1254
     26 F          -4.5097    1.7893    4.1002 F       1  UNL1       -0.2054
     27 C          -5.1056    0.5352    2.1559 C.ar    1  UNL1       -0.0008
     28 C          -4.7092   -0.0979    0.9694 C.ar    1  UNL1        0.0720
     29 H          -7.3684   -0.1799   -0.5411 H       1  UNL1        0.0473
     30 H          -7.2222   -0.9150    1.1218 H       1  UNL1        0.0473
     31 H          -7.1417   -1.9311   -0.3464 H       1  UNL1        0.0473
     32 H          -3.1081   -2.0925   -2.8741 H       1  UNL1        0.0853
     33 H           1.6970   -2.0171   -4.3057 H       1  UNL1        0.1668
     34 H           3.3300   -0.7829   -2.6918 H       1  UNL1        0.0816
     35 H           4.0799   -0.1157   -0.7291 H       1  UNL1        0.1493
     36 H           3.3715    1.6624    1.6911 H       1  UNL1        0.0500
     37 H           5.3478    0.5283    2.6953 H       1  UNL1        0.0308
     38 H           4.9405   -0.8301    1.5123 H       1  UNL1        0.0308
     39 H           6.1899    0.1852   -0.2903 H       1  UNL1        0.0594
     40 H           8.0656    0.6824    0.5915 H       1  UNL1        0.2098
     41 H           5.5142    2.7758    1.2679 H       1  UNL1        0.0308
     42 H           5.1538    2.3828   -0.5093 H       1  UNL1        0.0308
     43 H          -1.4041    0.5530    1.1395 H       1  UNL1        0.0626
     44 H          -2.1270    1.6733    3.2369 H       1  UNL1        0.0646
     45 H          -6.1332    0.5434    2.4822 H       1  UNL1        0.0667
@<TRIPOS>BOND
     1     1     2    1
     2     2     3   ar
     3     3     4   ar
     4     4     5    1
     5     5     6   ar
     6     6     7   ar
     7     7     8   ar
     8     8     9   ar
     9     9    10   ar
    10    10    11   ar
    11    11    12    1
    12    12    13    2
    13    12    14   am
    14    14    15    1
    15    15    16    1
    16    16    17    1
    17    17    18    1
    18    17    19    1
    19    11    20   ar
    20    20    21   ar
    21     4    22   ar
    22    22    23   ar
    23    23    24   ar
    24    24    25   ar
    25    25    26    1
    26    25    27   ar
    27    27    28   ar
    28    28     2   ar
    29    21     5   ar
    30    28    22   ar
    31    20     8   ar
    32    19    15    1
    33     1    29    1
    34     1    30    1
    35     1    31    1
    36     6    32    1
    37     9    33    1
    38    10    34    1
    39    14    35    1
    40    15    36    1
    41    16    37    1
    42    16    38    1
    43    17    39    1
    44    18    40    1
    45    19    41    1
    46    19    42    1
    47    23    43    1
    48    24    44    1
    49    27    45    1
