
     RDKit          3D

 45 49  0  0  0  0  0  0  0  0999 V2000
   -6.8442   -0.9533    0.0963 C   0  0  0  0  0  0  0  0  0  0  0  0
   -5.4064   -0.7726    0.0300 N   0  0  0  0  0  0  0  0  0  0  0  0
   -4.5339   -1.1760   -0.8932 N   0  0  0  0  0  0  0  0  0  0  0  0
   -3.2912   -0.7889   -0.5894 C   0  0  0  0  0  0  0  0  0  0  0  0
   -2.0687   -1.0359   -1.3847 C   0  0  0  0  0  0  0  0  0  0  0  0
   -2.1193   -1.7264   -2.5659 C   0  0  0  0  0  0  0  0  0  0  0  0
   -1.0397   -1.9693   -3.3379 N   0  0  0  0  0  0  0  0  0  0  0  0
    0.1588   -1.4979   -2.9101 C   0  0  0  0  0  0  0  0  0  0  0  0
    1.4112   -1.5474   -3.3987 N   0  0  0  0  0  0  0  0  0  0  0  0
    2.2408   -0.9076   -2.5581 C   0  0  0  0  0  0  0  0  0  0  0  0
    1.5283   -0.4202   -1.4869 C   0  0  0  0  0  0  0  0  0  0  0  0
    2.0308    0.3531   -0.3448 C   0  0  0  0  0  0  0  0  0  0  0  0
    1.2619    0.9606    0.4068 O   0  0  0  0  0  0  0  0  0  0  0  0
    3.4231    0.4171   -0.0871 N   0  0  0  0  0  0  0  0  0  0  0  0
    4.0426    1.1408    0.9901 C   0  0  1  0  0  0  0  0  0  0  0  0
    5.1149    0.2603    1.6473 C   0  0  0  0  0  0  0  0  0  0  0  0
    6.1312    0.8067    0.6297 C   0  0  2  0  0  0  0  0  0  0  0  0
    7.3766    1.0767    1.1558 O   0  0  0  0  0  0  0  0  0  0  0  0
    5.2207    2.0203    0.5158 C   0  0  0  0  0  0  0  0  0  0  0  0
    0.2282   -0.7938   -1.7118 C   0  0  0  0  0  0  0  0  0  0  0  0
   -0.8843   -0.5665   -0.9551 N   0  0  0  0  0  0  0  0  0  0  0  0
   -3.3753   -0.0993    0.5919 C   0  0  0  0  0  0  0  0  0  0  0  0
   -2.4550    0.5395    1.4096 C   0  0  0  0  0  0  0  0  0  0  0  0
   -2.8403    1.1687    2.5819 C   0  0  0  0  0  0  0  0  0  0  0  0
   -4.1717    1.1626    2.9526 C   0  0  0  0  0  0  0  0  0  0  0  0
   -4.5097    1.7893    4.1002 F   0  0  0  0  0  0  0  0  0  0  0  0
   -5.1056    0.5352    2.1559 C   0  0  0  0  0  0  0  0  0  0  0  0
   -4.7092   -0.0979    0.9694 C   0  0  0  0  0  0  0  0  0  0  0  0
   -7.3684   -0.1799   -0.5411 H   0  0  0  0  0  0  0  0  0  0  0  0
   -7.2222   -0.9150    1.1218 H   0  0  0  0  0  0  0  0  0  0  0  0
   -7.1417   -1.9311   -0.3464 H   0  0  0  0  0  0  0  0  0  0  0  0
   -3.1081   -2.0925   -2.8741 H   0  0  0  0  0  0  0  0  0  0  0  0
    1.6970   -2.0171   -4.3057 H   0  0  0  0  0  0  0  0  0  0  0  0
    3.3300   -0.7829   -2.6918 H   0  0  0  0  0  0  0  0  0  0  0  0
    4.0799   -0.1157   -0.7291 H   0  0  0  0  0  0  0  0  0  0  0  0
    3.3715    1.6624    1.6911 H   0  0  0  0  0  0  0  0  0  0  0  0
    5.3478    0.5283    2.6953 H   0  0  0  0  0  0  0  0  0  0  0  0
    4.9405   -0.8301    1.5123 H   0  0  0  0  0  0  0  0  0  0  0  0
    6.1899    0.1852   -0.2903 H   0  0  0  0  0  0  0  0  0  0  0  0
    8.0656    0.6824    0.5915 H   0  0  0  0  0  0  0  0  0  0  0  0
    5.5142    2.7758    1.2679 H   0  0  0  0  0  0  0  0  0  0  0  0
    5.1538    2.3828   -0.5093 H   0  0  0  0  0  0  0  0  0  0  0  0
   -1.4041    0.5530    1.1395 H   0  0  0  0  0  0  0  0  0  0  0  0
   -2.1270    1.6733    3.2369 H   0  0  0  0  0  0  0  0  0  0  0  0
   -6.1332    0.5434    2.4822 H   0  0  0  0  0  0  0  0  0  0  0  0
  1  2  1  0
  2  3  1  0
  3  4  2  0
  4  5  1  0
  5  6  2  0
  6  7  1  0
  7  8  2  0
  8  9  1  0
  9 10  1  0
 10 11  2  0
 11 12  1  0
 12 13  2  0
 12 14  1  0
 14 15  1  0
 15 16  1  0
 16 17  1  0
 17 18  1  0
 17 19  1  0
 11 20  1  0
 20 21  2  0
  4 22  1  0
 22 23  2  0
 23 24  1  0
 24 25  2  0
 25 26  1  0
 25 27  1  0
 27 28  2  0
 28  2  1  0
 21  5  1  0
 28 22  1  0
 20  8  1  0
 19 15  1  0
  1 29  1  0
  1 30  1  0
  1 31  1  0
  6 32  1  0
  9 33  1  0
 10 34  1  0
 14 35  1  0
 15 36  1  1
 16 37  1  0
 16 38  1  0
 17 39  1  6
 18 40  1  0
 19 41  1  0
 19 42  1  0
 23 43  1  0
 24 44  1  0
 27 45  1  0
M  END
$$$$
