@<TRIPOS>MOLECULE
*****
 46 50 0 0 0
SMALL
GASTEIGER

@<TRIPOS>ATOM
      1 C           7.4344    1.2574    0.1799 C.3     1  UNL1        0.0138
      2 C           6.1037    0.5793    0.1691 C.ar    1  UNL1        0.2147
      3 N           5.8572   -0.7487    0.0603 N.ar    1  UNL1       -0.1124
      4 N           4.5186   -0.8346    0.1034 N.ar    1  UNL1       -0.1072
      5 C           3.9427    0.3417    0.2305 C.ar    1  UNL1        0.2501
      6 C           2.5653    0.7638    0.3272 C.ar    1  UNL1        0.0621
      7 C           2.2053    2.0840    0.5834 C.ar    1  UNL1        0.0425
      8 N           0.8705    2.1264    0.6944 N.ar    1  UNL1       -0.2341
      9 N           0.0609    3.1439    0.9422 N.ar    1  UNL1       -0.1548
     10 C          -1.2598    2.9655    1.0272 C.ar    1  UNL1        0.1388
     11 N          -1.7841    1.7552    0.8653 N.ar    1  UNL1       -0.2167
     12 C          -0.9957    0.6517    0.6051 C.ar    1  UNL1        0.1507
     13 N          -1.6302   -0.6075    0.5294 N.pl3   1  UNL1       -0.2965
     14 C          -3.0345   -0.6740    0.2978 C.ar    1  UNL1        0.0515
     15 C          -3.7727   -1.7700    0.7213 C.ar    1  UNL1        0.0511
     16 N          -5.0995   -1.8959    0.5205 N.ar    1  UNL1       -0.2357
     17 C          -5.7957   -0.9277   -0.1235 C.ar    1  UNL1        0.1382
     18 N          -7.0946   -0.7865   -0.4567 N.ar    1  UNL1       -0.3458
     19 C          -7.3031    0.3807   -1.1060 C.ar    1  UNL1        0.0041
     20 C          -6.0605    0.9810   -1.1706 C.ar    1  UNL1       -0.0350
     21 C          -5.1250    0.1822   -0.5679 C.ar    1  UNL1        0.0204
     22 C          -3.7431    0.2964   -0.3511 C.ar    1  UNL1       -0.0283
     23 C           0.3552    0.8760    0.5179 C.ar    1  UNL1        0.1095
     24 C           1.4032   -0.0153    0.2739 C.ar    1  UNL1       -0.0023
     25 C           1.3011   -1.4310   -0.0902 C.3     1  UNL1       -0.0186
     26 C           1.6186   -2.4075    0.9897 C.3     1  UNL1       -0.0586
     27 C           2.2439   -1.7036   -1.2727 C.3     1  UNL1       -0.0586
     28 O           4.9705    1.1932    0.2669 O.2     1  UNL1       -0.4204
     29 H           7.3319    2.2556    0.6746 H       1  UNL1        0.0324
     30 H           7.8617    1.3554   -0.8325 H       1  UNL1        0.0324
     31 H           8.1933    0.6698    0.7743 H       1  UNL1        0.0324
     32 H           2.8588    2.9466    0.6800 H       1  UNL1        0.0838
     33 H          -1.8889    3.8508    1.2336 H       1  UNL1        0.1066
     34 H          -1.1992   -1.5318    0.6756 H       1  UNL1        0.1537
     35 H          -3.2280   -2.5499    1.2368 H       1  UNL1        0.0849
     36 H          -7.8619   -1.4658   -0.2556 H       1  UNL1        0.1668
     37 H          -8.2399    0.7735   -1.4975 H       1  UNL1        0.0807
     38 H          -5.8510    1.9362   -1.6273 H       1  UNL1        0.0639
     39 H          -3.2836    1.1729   -0.7307 H       1  UNL1        0.0644
     40 H           0.2970   -1.6570   -0.5800 H       1  UNL1        0.0344
     41 H           2.6876   -2.7110    1.0408 H       1  UNL1        0.0235
     42 H           1.3961   -1.9817    2.0172 H       1  UNL1        0.0235
     43 H           1.0650   -3.3792    0.8526 H       1  UNL1        0.0235
     44 H           1.5595   -2.1292   -2.1008 H       1  UNL1        0.0235
     45 H           2.6240   -0.7967   -1.7380 H       1  UNL1        0.0235
     46 H           2.9246   -2.5343   -1.0957 H       1  UNL1        0.0235
@<TRIPOS>BOND
     1     1     2    1
     2     2     3   ar
     3     3     4   ar
     4     4     5   ar
     5     5     6    1
     6     6     7   ar
     7     7     8   ar
     8     8     9   ar
     9     9    10   ar
    10    10    11   ar
    11    11    12   ar
    12    12    13    1
    13    13    14    1
    14    14    15   ar
    15    15    16   ar
    16    16    17   ar
    17    17    18   ar
    18    18    19   ar
    19    19    20   ar
    20    20    21   ar
    21    21    22   ar
    22    12    23   ar
    23    23    24   ar
    24    24    25    1
    25    25    26    1
    26    25    27    1
    27     5    28   ar
    28    28     2   ar
    29    24     6   ar
    30    23     8   ar
    31    22    14   ar
    32    21    17   ar
    33     1    29    1
    34     1    30    1
    35     1    31    1
    36     7    32    1
    37    10    33    1
    38    13    34    1
    39    15    35    1
    40    18    36    1
    41    19    37    1
    42    20    38    1
    43    22    39    1
    44    25    40    1
    45    26    41    1
    46    26    42    1
    47    26    43    1
    48    27    44    1
    49    27    45    1
    50    27    46    1
