@<TRIPOS>MOLECULE
*****
 50 54 0 0 0
SMALL
GASTEIGER

@<TRIPOS>ATOM
      1 C           8.0758    1.5838   -2.0645 C.3     1  UNL1       -0.0046
      2 C           6.6569    1.3167   -1.7103 C.ar    1  UNL1        0.1280
      3 N           5.6088    2.0557   -2.1652 N.ar    1  UNL1       -0.1345
      4 N           4.4818    1.5739   -1.6774 N.ar    1  UNL1       -0.1294
      5 C           4.7997    0.5219   -0.9060 C.ar    1  UNL1        0.1617
      6 C           3.8186   -0.2797   -0.1887 C.ar    1  UNL1        0.0196
      7 C           4.2754   -1.3365    0.5720 C.ar    1  UNL1       -0.0508
      8 C           3.3490   -2.0936    1.2497 C.ar    1  UNL1       -0.0576
      9 C           1.9813   -1.7977    1.1679 C.ar    1  UNL1       -0.0427
     10 C           1.0438   -2.6400    1.9212 C.3     1  UNL1       -0.0391
     11 C           1.5290   -0.7477    0.4115 C.ar    1  UNL1       -0.0142
     12 C           0.1109   -0.4605    0.3332 C.ar    1  UNL1       -0.0158
     13 C          -0.3704    0.8455    0.5015 C.ar    1  UNL1       -0.0536
     14 C          -1.7010    1.1218    0.4223 C.ar    1  UNL1       -0.0552
     15 C          -2.6458    0.1125    0.1692 C.ar    1  UNL1       -0.0110
     16 C          -2.2086   -1.1740   -0.0001 C.ar    1  UNL1        0.0382
     17 C          -0.8473   -1.4154    0.0876 C.ar    1  UNL1       -0.0325
     18 N          -3.3311   -2.0355   -0.2452 N.am    1  UNL1       -0.2845
     19 C          -4.4964   -1.2515   -0.2256 C.2     1  UNL1        0.2279
     20 O          -5.6812   -1.6700   -0.4037 O.2     1  UNL1       -0.2745
     21 C          -4.1171    0.1390    0.0361 C.3     1  UNL1        0.0779
     22 C          -4.5626    0.9998   -1.1154 C.3     1  UNL1       -0.0113
     23 C          -5.9822    1.4392   -1.0379 C.3     1  UNL1        0.0489
     24 O          -6.5870    1.2316    0.1782 O.3     1  UNL1       -0.3797
     25 C          -5.7227    1.6849    1.1737 C.3     1  UNL1        0.0489
     26 C          -4.6810    0.5884    1.3579 C.3     1  UNL1       -0.0113
     27 C           2.4672    0.0030   -0.2625 C.ar    1  UNL1       -0.0431
     28 N           6.1338    0.3653   -0.9270 N.ar    1  UNL1       -0.3253
     29 H           8.5009    2.4411   -1.4972 H       1  UNL1        0.0308
     30 H           8.7226    0.7149   -1.9075 H       1  UNL1        0.0308
     31 H           8.1493    1.8399   -3.1550 H       1  UNL1        0.0308
     32 H           5.3435   -1.5639    0.6332 H       1  UNL1        0.0625
     33 H           3.6695   -2.9369    1.8615 H       1  UNL1        0.0621
     34 H           0.1109   -2.1606    2.2226 H       1  UNL1        0.0278
     35 H           1.5374   -2.9388    2.8973 H       1  UNL1        0.0278
     36 H           0.8923   -3.6389    1.4161 H       1  UNL1        0.0278
     37 H           0.3672    1.6028    0.6941 H       1  UNL1        0.0624
     38 H          -2.0912    2.1084    0.5470 H       1  UNL1        0.0621
     39 H          -0.5566   -2.4461   -0.0572 H       1  UNL1        0.0642
     40 H          -3.3000   -3.0677   -0.4108 H       1  UNL1        0.1548
     41 H          -3.9204    1.9072   -1.1083 H       1  UNL1        0.0301
     42 H          -4.3552    0.4678   -2.0666 H       1  UNL1        0.0301
     43 H          -6.5626    0.8333   -1.7919 H       1  UNL1        0.0560
     44 H          -6.1455    2.4990   -1.3425 H       1  UNL1        0.0560
     45 H          -6.2432    1.7884    2.1550 H       1  UNL1        0.0560
     46 H          -5.2562    2.6543    0.9252 H       1  UNL1        0.0560
     47 H          -3.8865    0.9852    2.0216 H       1  UNL1        0.0301
     48 H          -5.1883   -0.2317    1.9131 H       1  UNL1        0.0301
     49 H           2.1116    0.8315   -0.8592 H       1  UNL1        0.0631
     50 H           6.7029   -0.3699   -0.4246 H       1  UNL1        0.1685
@<TRIPOS>BOND
     1     1     2    1
     2     2     3   ar
     3     3     4   ar
     4     4     5   ar
     5     5     6    1
     6     6     7   ar
     7     7     8   ar
     8     8     9   ar
     9     9    10    1
    10     9    11   ar
    11    11    12    1
    12    12    13   ar
    13    13    14   ar
    14    14    15   ar
    15    15    16   ar
    16    16    17   ar
    17    16    18    1
    18    18    19   am
    19    19    20    2
    20    19    21    1
    21    21    22    1
    22    22    23    1
    23    23    24    1
    24    24    25    1
    25    25    26    1
    26    11    27   ar
    27     5    28   ar
    28    28     2   ar
    29    27     6   ar
    30    17    12   ar
    31    26    21    1
    32    21    15    1
    33     1    29    1
    34     1    30    1
    35     1    31    1
    36     7    32    1
    37     8    33    1
    38    10    34    1
    39    10    35    1
    40    10    36    1
    41    13    37    1
    42    14    38    1
    43    17    39    1
    44    18    40    1
    45    22    41    1
    46    22    42    1
    47    23    43    1
    48    23    44    1
    49    25    45    1
    50    25    46    1
    51    26    47    1
    52    26    48    1
    53    27    49    1
    54    28    50    1
