
     RDKit          3D

 56 59  0  0  0  0  0  0  0  0999 V2000
   -6.5222   -2.7787   -0.1450 C   0  0  0  0  0  0  0  0  0  0  0  0
   -6.5013   -1.2761   -0.0155 C   0  0  0  0  0  0  0  0  0  0  0  0
   -6.6981   -0.6821   -1.4099 C   0  0  0  0  0  0  0  0  0  0  0  0
   -7.6617   -0.8496    0.8581 C   0  0  0  0  0  0  0  0  0  0  0  0
   -5.1904   -0.8358    0.5015 C   0  0  0  0  0  0  0  0  0  0  0  0
   -5.0883   -0.2161    1.5863 O   0  0  0  0  0  0  0  0  0  0  0  0
   -4.0499   -1.1061   -0.2206 O   0  0  0  0  0  0  0  0  0  0  0  0
   -2.7701   -0.7477    0.1185 C   0  0  0  0  0  0  0  0  0  0  0  0
   -2.3149    0.5293   -0.1783 C   0  0  0  0  0  0  0  0  0  0  0  0
   -1.0942    0.9394    0.1213 N   0  0  0  0  0  0  0  0  0  0  0  0
   -0.5910    2.2591   -0.1859 C   0  0  0  0  0  0  0  0  0  0  0  0
   -0.5527    3.2374    0.7833 C   0  0  0  0  0  0  0  0  0  0  0  0
   -0.0369    4.4794    0.4626 C   0  0  0  0  0  0  0  0  0  0  0  0
    0.4423    4.7577   -0.8161 C   0  0  0  0  0  0  0  0  0  0  0  0
    0.3998    3.7785   -1.7753 C   0  0  0  0  0  0  0  0  0  0  0  0
   -0.1135    2.5501   -1.4502 C   0  0  0  0  0  0  0  0  0  0  0  0
   -0.2500    0.0538    0.7523 C   0  0  0  0  0  0  0  0  0  0  0  0
    1.0768    0.6171    1.0754 C   0  0  0  0  0  0  0  0  0  0  0  0
    2.0626    0.5990   -0.4176 S   0  0  0  0  0  0  0  0  0  0  0  0
    3.6138   -0.2132   -0.2935 C   0  0  0  0  0  0  0  0  0  0  0  0
    4.7306    0.5160    0.0558 N   0  0  0  0  0  0  0  0  0  0  0  0
    5.7497   -0.3487    0.0661 C   0  0  0  0  0  0  0  0  0  0  0  0
    7.1024   -0.1197    0.3535 C   0  0  0  0  0  0  0  0  0  0  0  0
    8.0203   -1.1384    0.3117 C   0  0  0  0  0  0  0  0  0  0  0  0
    9.4408   -0.8983    0.5995 C   0  0  0  0  0  0  0  0  0  0  0  0
   10.2647   -1.8395    0.5604 O   0  0  0  0  0  0  0  0  0  0  0  0
    9.9081    0.3672    0.9203 O   0  0  0  0  0  0  0  0  0  0  0  0
    7.5497   -2.3840   -0.0219 C   0  0  0  0  0  0  0  0  0  0  0  0
    6.1957   -2.6257   -0.3114 C   0  0  0  0  0  0  0  0  0  0  0  0
    5.2866   -1.5914   -0.2669 C   0  0  0  0  0  0  0  0  0  0  0  0
    3.9950   -1.4347   -0.4696 O   0  0  0  0  0  0  0  0  0  0  0  0
   -0.6199   -1.2045    1.0728 C   0  0  0  0  0  0  0  0  0  0  0  0
   -1.9189   -1.6146    0.7472 C   0  0  0  0  0  0  0  0  0  0  0  0
   -2.2528   -2.7967    1.0558 O   0  0  0  0  0  0  0  0  0  0  0  0
   -5.7819   -3.0992   -0.9199 H   0  0  0  0  0  0  0  0  0  0  0  0
   -7.5308   -3.0582   -0.5802 H   0  0  0  0  0  0  0  0  0  0  0  0
   -6.4080   -3.2736    0.8200 H   0  0  0  0  0  0  0  0  0  0  0  0
   -5.9919    0.1541   -1.5769 H   0  0  0  0  0  0  0  0  0  0  0  0
   -6.6113   -1.4868   -2.1775 H   0  0  0  0  0  0  0  0  0  0  0  0
   -7.7163   -0.2168   -1.4603 H   0  0  0  0  0  0  0  0  0  0  0  0
   -8.3656   -1.7144    1.0486 H   0  0  0  0  0  0  0  0  0  0  0  0
   -7.3805   -0.4245    1.8184 H   0  0  0  0  0  0  0  0  0  0  0  0
   -8.3185   -0.1285    0.2872 H   0  0  0  0  0  0  0  0  0  0  0  0
   -3.0073    1.2042   -0.6795 H   0  0  0  0  0  0  0  0  0  0  0  0
   -0.9285    3.0110    1.7869 H   0  0  0  0  0  0  0  0  0  0  0  0
    0.0032    5.2579    1.2102 H   0  0  0  0  0  0  0  0  0  0  0  0
    0.8334    5.7345   -1.0174 H   0  0  0  0  0  0  0  0  0  0  0  0
    0.7707    3.9947   -2.7605 H   0  0  0  0  0  0  0  0  0  0  0  0
   -0.1724    1.7338   -2.1630 H   0  0  0  0  0  0  0  0  0  0  0  0
    1.5699   -0.0881    1.8118 H   0  0  0  0  0  0  0  0  0  0  0  0
    1.0568    1.5962    1.5722 H   0  0  0  0  0  0  0  0  0  0  0  0
    7.4373    0.8700    0.6095 H   0  0  0  0  0  0  0  0  0  0  0  0
   10.8054    0.7049    0.5492 H   0  0  0  0  0  0  0  0  0  0  0  0
    8.2415   -3.2101   -0.0668 H   0  0  0  0  0  0  0  0  0  0  0  0
    5.8568   -3.6167   -0.5661 H   0  0  0  0  0  0  0  0  0  0  0  0
    0.0260   -1.9264    1.5679 H   0  0  0  0  0  0  0  0  0  0  0  0
  1  2  1  0
  2  3  1  0
  2  4  1  0
  2  5  1  0
  5  6  2  0
  5  7  1  0
  7  8  1  0
  8  9  2  0
  9 10  1  0
 10 11  1  0
 11 12  2  0
 12 13  1  0
 13 14  2  0
 14 15  1  0
 15 16  2  0
 10 17  1  0
 17 18  1  0
 18 19  1  0
 19 20  1  0
 20 21  2  0
 21 22  1  0
 22 23  2  0
 23 24  1  0
 24 25  1  0
 25 26  2  0
 25 27  1  0
 24 28  2  0
 28 29  1  0
 29 30  2  0
 30 31  1  0
 17 32  2  0
 32 33  1  0
 33 34  2  0
 33  8  1  0
 16 11  1  0
 31 20  1  0
 30 22  1  0
  1 35  1  0
  1 36  1  0
  1 37  1  0
  3 38  1  0
  3 39  1  0
  3 40  1  0
  4 41  1  0
  4 42  1  0
  4 43  1  0
  9 44  1  0
 12 45  1  0
 13 46  1  0
 14 47  1  0
 15 48  1  0
 16 49  1  0
 18 50  1  0
 18 51  1  0
 23 52  1  0
 27 53  1  0
 28 54  1  0
 29 55  1  0
 32 56  1  0
M  END
$$$$
