@<TRIPOS>MOLECULE
*****
 56 59 0 0 0
SMALL
GASTEIGER

@<TRIPOS>ATOM
      1 C          -6.5222   -2.7787   -0.1450 C.3     1  UNL1       -0.0499
      2 C          -6.5013   -1.2761   -0.0155 C.3     1  UNL1        0.0598
      3 C          -6.6981   -0.6821   -1.4099 C.3     1  UNL1       -0.0499
      4 C          -7.6617   -0.8496    0.8581 C.3     1  UNL1       -0.0499
      5 C          -5.1904   -0.8358    0.5015 C.2     1  UNL1        0.3179
      6 O          -5.0883   -0.2161    1.5863 O.2     1  UNL1       -0.2498
      7 O          -4.0499   -1.1061   -0.2206 O.3     1  UNL1       -0.4201
      8 C          -2.7701   -0.7477    0.1185 C.ar    1  UNL1        0.1944
      9 C          -2.3149    0.5293   -0.1783 C.ar    1  UNL1        0.0563
     10 N          -1.0942    0.9394    0.1213 N.ar    1  UNL1       -0.3156
     11 C          -0.5910    2.2591   -0.1859 C.ar    1  UNL1        0.0464
     12 C          -0.5527    3.2374    0.7833 C.ar    1  UNL1       -0.0379
     13 C          -0.0369    4.4794    0.4626 C.ar    1  UNL1       -0.0598
     14 C           0.4423    4.7577   -0.8161 C.ar    1  UNL1       -0.0616
     15 C           0.3998    3.7785   -1.7753 C.ar    1  UNL1       -0.0598
     16 C          -0.1135    2.5501   -1.4502 C.ar    1  UNL1       -0.0379
     17 C          -0.2500    0.0538    0.7523 C.ar    1  UNL1        0.0378
     18 C           1.0768    0.6171    1.0754 C.3     1  UNL1        0.0435
     19 S           2.0626    0.5990   -0.4176 S.3     1  UNL1       -0.0610
     20 C           3.6138   -0.2132   -0.2935 C.ar    1  UNL1        0.2583
     21 N           4.7306    0.5160    0.0558 N.ar    1  UNL1       -0.2033
     22 C           5.7497   -0.3487    0.0661 C.ar    1  UNL1        0.1112
     23 C           7.1024   -0.1197    0.3535 C.ar    1  UNL1       -0.0186
     24 C           8.0203   -1.1384    0.3117 C.ar    1  UNL1        0.0611
     25 C           9.4408   -0.8983    0.5995 C.2     1  UNL1        0.3369
     26 O          10.2647   -1.8395    0.5604 O.2     1  UNL1       -0.2451
     27 O           9.9081    0.3672    0.9203 O.3     1  UNL1       -0.4771
     28 C           7.5497   -2.3840   -0.0219 C.ar    1  UNL1       -0.0442
     29 C           6.1957   -2.6257   -0.3114 C.ar    1  UNL1       -0.0163
     30 C           5.2866   -1.5914   -0.2669 C.ar    1  UNL1        0.1563
     31 O           3.9950   -1.4347   -0.4696 O.2     1  UNL1       -0.4307
     32 C          -0.6199   -1.2045    1.0728 C.ar    1  UNL1        0.0094
     33 C          -1.9189   -1.6146    0.7472 C.ar    1  UNL1        0.2241
     34 O          -2.2528   -2.7967    1.0558 O.2     1  UNL1       -0.2839
     35 H          -5.7819   -3.0992   -0.9199 H       1  UNL1        0.0240
     36 H          -7.5308   -3.0582   -0.5802 H       1  UNL1        0.0240
     37 H          -6.4080   -3.2736    0.8200 H       1  UNL1        0.0240
     38 H          -5.9919    0.1541   -1.5769 H       1  UNL1        0.0240
     39 H          -6.6113   -1.4868   -2.1775 H       1  UNL1        0.0240
     40 H          -7.7163   -0.2168   -1.4603 H       1  UNL1        0.0240
     41 H          -8.3656   -1.7144    1.0486 H       1  UNL1        0.0240
     42 H          -7.3805   -0.4245    1.8184 H       1  UNL1        0.0240
     43 H          -8.3185   -0.1285    0.2872 H       1  UNL1        0.0240
     44 H          -3.0073    1.2042   -0.6795 H       1  UNL1        0.0852
     45 H          -0.9285    3.0110    1.7869 H       1  UNL1        0.0638
     46 H           0.0032    5.2579    1.2102 H       1  UNL1        0.0618
     47 H           0.8334    5.7345   -1.0174 H       1  UNL1        0.0618
     48 H           0.7707    3.9947   -2.7605 H       1  UNL1        0.0618
     49 H          -0.1724    1.7338   -2.1630 H       1  UNL1        0.0638
     50 H           1.5699   -0.0881    1.8118 H       1  UNL1        0.0445
     51 H           1.0568    1.5962    1.5722 H       1  UNL1        0.0445
     52 H           7.4373    0.8700    0.6095 H       1  UNL1        0.0648
     53 H          10.8054    0.7049    0.5492 H       1  UNL1        0.2954
     54 H           8.2415   -3.2101   -0.0668 H       1  UNL1        0.0627
     55 H           5.8568   -3.6167   -0.5661 H       1  UNL1        0.0655
     56 H           0.0260   -1.9264    1.5679 H       1  UNL1        0.0675
@<TRIPOS>BOND
     1     1     2    1
     2     2     3    1
     3     2     4    1
     4     2     5    1
     5     5     6    2
     6     5     7    1
     7     7     8    1
     8     8     9   ar
     9     9    10   ar
    10    10    11    1
    11    11    12   ar
    12    12    13   ar
    13    13    14   ar
    14    14    15   ar
    15    15    16   ar
    16    10    17   ar
    17    17    18    1
    18    18    19    1
    19    19    20    1
    20    20    21   ar
    21    21    22   ar
    22    22    23   ar
    23    23    24   ar
    24    24    25    1
    25    25    26    2
    26    25    27    1
    27    24    28   ar
    28    28    29   ar
    29    29    30   ar
    30    30    31   ar
    31    17    32   ar
    32    32    33   ar
    33    33    34    2
    34    33     8   ar
    35    16    11   ar
    36    31    20   ar
    37    30    22   ar
    38     1    35    1
    39     1    36    1
    40     1    37    1
    41     3    38    1
    42     3    39    1
    43     3    40    1
    44     4    41    1
    45     4    42    1
    46     4    43    1
    47     9    44    1
    48    12    45    1
    49    13    46    1
    50    14    47    1
    51    15    48    1
    52    16    49    1
    53    18    50    1
    54    18    51    1
    55    23    52    1
    56    27    53    1
    57    28    54    1
    58    29    55    1
    59    32    56    1
