@<TRIPOS>MOLECULE
*****
 59 64 0 0 0
SMALL
GASTEIGER

@<TRIPOS>ATOM
      1 C          -7.9547   -1.1397    0.6573 C.3     1  UNL1       -0.0127
      2 N          -7.2854    0.1344    0.7058 N.3     1  UNL1       -0.3029
      3 C          -6.3267    0.3117   -0.3483 C.3     1  UNL1        0.0114
      4 C          -5.0057    0.8387    0.1483 C.3     1  UNL1        0.0120
      5 N          -4.5134    0.1764    1.2986 N.3     1  UNL1       -0.2957
      6 C          -3.7048   -0.9768    1.0957 C.3     1  UNL1        0.0241
      7 C          -2.4971   -0.6350    0.3015 C.ar    1  UNL1       -0.0333
      8 C          -2.4274   -0.7515   -1.0700 C.ar    1  UNL1       -0.0568
      9 C          -1.2842   -0.4146   -1.7691 C.ar    1  UNL1       -0.0537
     10 C          -0.1492    0.0559   -1.1430 C.ar    1  UNL1       -0.0164
     11 C           1.0340    0.3987   -1.9236 C.ar    1  UNL1        0.0009
     12 C           0.9724    0.8941   -3.2076 C.ar    1  UNL1        0.0376
     13 N           2.0546    1.2134   -3.9379 N.ar    1  UNL1       -0.2369
     14 C           3.3019    1.0651   -3.4472 C.ar    1  UNL1        0.1387
     15 N           4.5403    1.3030   -3.9499 N.ar    1  UNL1       -0.3452
     16 C           5.4312    0.9661   -3.0014 C.ar    1  UNL1        0.0118
     17 C           4.7626    0.5055   -1.8731 C.ar    1  UNL1        0.0087
     18 C           5.3223    0.0340   -0.6204 C.ar    1  UNL1       -0.0151
     19 C           4.9327   -1.1311    0.0256 C.ar    1  UNL1       -0.0520
     20 C           5.4938   -1.5304    1.2141 C.ar    1  UNL1       -0.0372
     21 C           6.4759   -0.7970    1.8330 C.ar    1  UNL1        0.0465
     22 N           7.1958   -0.9275    2.9685 N.ar    1  UNL1       -0.3606
     23 C           8.0382    0.1034    3.0898 C.ar    1  UNL1        0.0027
     24 C           7.8666    0.9348    2.0027 C.ar    1  UNL1       -0.0366
     25 C           6.8863    0.3724    1.2114 C.ar    1  UNL1        0.0002
     26 C           6.3152    0.7626    0.0185 C.ar    1  UNL1       -0.0448
     27 C           3.4192    0.5705   -2.1606 C.ar    1  UNL1        0.0269
     28 C           2.3161    0.2393   -1.4008 C.ar    1  UNL1       -0.0413
     29 C          -0.2139    0.1741    0.2304 C.ar    1  UNL1       -0.0537
     30 C          -1.3539   -0.1613    0.9326 C.ar    1  UNL1       -0.0568
     31 C          -5.5177   -0.0408    2.3201 C.3     1  UNL1        0.0120
     32 C          -6.8495    0.5401    2.0031 C.3     1  UNL1        0.0114
     33 H          -7.9185   -1.6426    1.6318 H       1  UNL1        0.0391
     34 H          -7.5610   -1.7800   -0.1704 H       1  UNL1        0.0391
     35 H          -9.0272   -0.9171    0.3910 H       1  UNL1        0.0391
     36 H          -6.1738   -0.6667   -0.8503 H       1  UNL1        0.0439
     37 H          -6.7344    1.0390   -1.0792 H       1  UNL1        0.0439
     38 H          -4.2663    0.8223   -0.6584 H       1  UNL1        0.0439
     39 H          -5.1549    1.9208    0.4311 H       1  UNL1        0.0439
     40 H          -4.2616   -1.8065    0.5674 H       1  UNL1        0.0476
     41 H          -3.3783   -1.4128    2.0527 H       1  UNL1        0.0476
     42 H          -3.2985   -1.1240   -1.6041 H       1  UNL1        0.0621
     43 H          -1.2271   -0.5063   -2.8613 H       1  UNL1        0.0624
     44 H          -0.0381    1.0214   -3.6226 H       1  UNL1        0.0836
     45 H           4.7078    1.6849   -4.9195 H       1  UNL1        0.1668
     46 H           6.4932    1.0337   -3.0807 H       1  UNL1        0.0814
     47 H           4.1542   -1.7452   -0.4379 H       1  UNL1        0.0624
     48 H           5.1610   -2.4393    1.6786 H       1  UNL1        0.0638
     49 H           7.0863   -1.7234    3.6285 H       1  UNL1        0.1653
     50 H           8.7292    0.2429    3.9094 H       1  UNL1        0.0807
     51 H           8.3873    1.8608    1.7832 H       1  UNL1        0.0638
     52 H           6.6297    1.6828   -0.4824 H       1  UNL1        0.0630
     53 H           2.3890   -0.1464   -0.3933 H       1  UNL1        0.0631
     54 H           0.6714    0.5424    0.7303 H       1  UNL1        0.0624
     55 H          -1.4092   -0.0689    2.0195 H       1  UNL1        0.0621
     56 H          -5.6579   -1.1380    2.5086 H       1  UNL1        0.0439
     57 H          -5.1349    0.3842    3.2701 H       1  UNL1        0.0439
     58 H          -6.8621    1.6448    2.0773 H       1  UNL1        0.0439
     59 H          -7.5812    0.1488    2.7411 H       1  UNL1        0.0439
@<TRIPOS>BOND
     1     1     2    1
     2     2     3    1
     3     3     4    1
     4     4     5    1
     5     5     6    1
     6     6     7    1
     7     7     8   ar
     8     8     9   ar
     9     9    10   ar
    10    10    11    1
    11    11    12   ar
    12    12    13   ar
    13    13    14   ar
    14    14    15   ar
    15    15    16   ar
    16    16    17   ar
    17    17    18    1
    18    18    19   ar
    19    19    20   ar
    20    20    21   ar
    21    21    22   ar
    22    22    23   ar
    23    23    24   ar
    24    24    25   ar
    25    25    26   ar
    26    17    27   ar
    27    27    28   ar
    28    10    29   ar
    29    29    30   ar
    30     5    31    1
    31    31    32    1
    32    32     2    1
    33    30     7   ar
    34    28    11   ar
    35    27    14   ar
    36    26    18   ar
    37    25    21   ar
    38     1    33    1
    39     1    34    1
    40     1    35    1
    41     3    36    1
    42     3    37    1
    43     4    38    1
    44     4    39    1
    45     6    40    1
    46     6    41    1
    47     8    42    1
    48     9    43    1
    49    12    44    1
    50    15    45    1
    51    16    46    1
    52    19    47    1
    53    20    48    1
    54    22    49    1
    55    23    50    1
    56    24    51    1
    57    26    52    1
    58    28    53    1
    59    29    54    1
    60    30    55    1
    61    31    56    1
    62    31    57    1
    63    32    58    1
    64    32    59    1
