
     RDKit          3D

 59 64  0  0  0  0  0  0  0  0999 V2000
   -7.9547   -1.1397    0.6573 C   0  0  0  0  0  0  0  0  0  0  0  0
   -7.2854    0.1344    0.7058 N   0  0  0  0  0  0  0  0  0  0  0  0
   -6.3267    0.3117   -0.3483 C   0  0  0  0  0  0  0  0  0  0  0  0
   -5.0057    0.8387    0.1483 C   0  0  0  0  0  0  0  0  0  0  0  0
   -4.5134    0.1764    1.2986 N   0  0  0  0  0  0  0  0  0  0  0  0
   -3.7048   -0.9768    1.0957 C   0  0  0  0  0  0  0  0  0  0  0  0
   -2.4971   -0.6350    0.3015 C   0  0  0  0  0  0  0  0  0  0  0  0
   -2.4274   -0.7515   -1.0700 C   0  0  0  0  0  0  0  0  0  0  0  0
   -1.2842   -0.4146   -1.7691 C   0  0  0  0  0  0  0  0  0  0  0  0
   -0.1492    0.0559   -1.1430 C   0  0  0  0  0  0  0  0  0  0  0  0
    1.0340    0.3987   -1.9236 C   0  0  0  0  0  0  0  0  0  0  0  0
    0.9724    0.8941   -3.2076 C   0  0  0  0  0  0  0  0  0  0  0  0
    2.0546    1.2134   -3.9379 N   0  0  0  0  0  0  0  0  0  0  0  0
    3.3019    1.0651   -3.4472 C   0  0  0  0  0  0  0  0  0  0  0  0
    4.5403    1.3030   -3.9499 N   0  0  0  0  0  0  0  0  0  0  0  0
    5.4312    0.9661   -3.0014 C   0  0  0  0  0  0  0  0  0  0  0  0
    4.7626    0.5055   -1.8731 C   0  0  0  0  0  0  0  0  0  0  0  0
    5.3223    0.0340   -0.6204 C   0  0  0  0  0  0  0  0  0  0  0  0
    4.9327   -1.1311    0.0256 C   0  0  0  0  0  0  0  0  0  0  0  0
    5.4938   -1.5304    1.2141 C   0  0  0  0  0  0  0  0  0  0  0  0
    6.4759   -0.7970    1.8330 C   0  0  0  0  0  0  0  0  0  0  0  0
    7.1958   -0.9275    2.9685 N   0  0  0  0  0  0  0  0  0  0  0  0
    8.0382    0.1034    3.0898 C   0  0  0  0  0  0  0  0  0  0  0  0
    7.8666    0.9348    2.0027 C   0  0  0  0  0  0  0  0  0  0  0  0
    6.8863    0.3724    1.2114 C   0  0  0  0  0  0  0  0  0  0  0  0
    6.3152    0.7626    0.0185 C   0  0  0  0  0  0  0  0  0  0  0  0
    3.4192    0.5705   -2.1606 C   0  0  0  0  0  0  0  0  0  0  0  0
    2.3161    0.2393   -1.4008 C   0  0  0  0  0  0  0  0  0  0  0  0
   -0.2139    0.1741    0.2304 C   0  0  0  0  0  0  0  0  0  0  0  0
   -1.3539   -0.1613    0.9326 C   0  0  0  0  0  0  0  0  0  0  0  0
   -5.5177   -0.0408    2.3201 C   0  0  0  0  0  0  0  0  0  0  0  0
   -6.8495    0.5401    2.0031 C   0  0  0  0  0  0  0  0  0  0  0  0
   -7.9185   -1.6426    1.6318 H   0  0  0  0  0  0  0  0  0  0  0  0
   -7.5610   -1.7800   -0.1704 H   0  0  0  0  0  0  0  0  0  0  0  0
   -9.0272   -0.9171    0.3910 H   0  0  0  0  0  0  0  0  0  0  0  0
   -6.1738   -0.6667   -0.8503 H   0  0  0  0  0  0  0  0  0  0  0  0
   -6.7344    1.0390   -1.0792 H   0  0  0  0  0  0  0  0  0  0  0  0
   -4.2663    0.8223   -0.6584 H   0  0  0  0  0  0  0  0  0  0  0  0
   -5.1549    1.9208    0.4311 H   0  0  0  0  0  0  0  0  0  0  0  0
   -4.2616   -1.8065    0.5674 H   0  0  0  0  0  0  0  0  0  0  0  0
   -3.3783   -1.4128    2.0527 H   0  0  0  0  0  0  0  0  0  0  0  0
   -3.2985   -1.1240   -1.6041 H   0  0  0  0  0  0  0  0  0  0  0  0
   -1.2271   -0.5063   -2.8613 H   0  0  0  0  0  0  0  0  0  0  0  0
   -0.0381    1.0214   -3.6226 H   0  0  0  0  0  0  0  0  0  0  0  0
    4.7078    1.6849   -4.9195 H   0  0  0  0  0  0  0  0  0  0  0  0
    6.4932    1.0337   -3.0807 H   0  0  0  0  0  0  0  0  0  0  0  0
    4.1542   -1.7452   -0.4379 H   0  0  0  0  0  0  0  0  0  0  0  0
    5.1610   -2.4393    1.6786 H   0  0  0  0  0  0  0  0  0  0  0  0
    7.0863   -1.7234    3.6285 H   0  0  0  0  0  0  0  0  0  0  0  0
    8.7292    0.2429    3.9094 H   0  0  0  0  0  0  0  0  0  0  0  0
    8.3873    1.8608    1.7832 H   0  0  0  0  0  0  0  0  0  0  0  0
    6.6297    1.6828   -0.4824 H   0  0  0  0  0  0  0  0  0  0  0  0
    2.3890   -0.1464   -0.3933 H   0  0  0  0  0  0  0  0  0  0  0  0
    0.6714    0.5424    0.7303 H   0  0  0  0  0  0  0  0  0  0  0  0
   -1.4092   -0.0689    2.0195 H   0  0  0  0  0  0  0  0  0  0  0  0
   -5.6579   -1.1380    2.5086 H   0  0  0  0  0  0  0  0  0  0  0  0
   -5.1349    0.3842    3.2701 H   0  0  0  0  0  0  0  0  0  0  0  0
   -6.8621    1.6448    2.0773 H   0  0  0  0  0  0  0  0  0  0  0  0
   -7.5812    0.1488    2.7411 H   0  0  0  0  0  0  0  0  0  0  0  0
  1  2  1  0
  2  3  1  0
  3  4  1  0
  4  5  1  0
  5  6  1  0
  6  7  1  0
  7  8  2  0
  8  9  1  0
  9 10  2  0
 10 11  1  0
 11 12  2  0
 12 13  1  0
 13 14  2  0
 14 15  1  0
 15 16  1  0
 16 17  2  0
 17 18  1  0
 18 19  2  0
 19 20  1  0
 20 21  2  0
 21 22  1  0
 22 23  1  0
 23 24  2  0
 24 25  1  0
 25 26  2  0
 17 27  1  0
 27 28  2  0
 10 29  1  0
 29 30  2  0
  5 31  1  0
 31 32  1  0
 32  2  1  0
 30  7  1  0
 28 11  1  0
 27 14  1  0
 26 18  1  0
 25 21  1  0
  1 33  1  0
  1 34  1  0
  1 35  1  0
  3 36  1  0
  3 37  1  0
  4 38  1  0
  4 39  1  0
  6 40  1  0
  6 41  1  0
  8 42  1  0
  9 43  1  0
 12 44  1  0
 15 45  1  0
 16 46  1  0
 19 47  1  0
 20 48  1  0
 22 49  1  0
 23 50  1  0
 24 51  1  0
 26 52  1  0
 28 53  1  0
 29 54  1  0
 30 55  1  0
 31 56  1  0
 31 57  1  0
 32 58  1  0
 32 59  1  0
M  END
$$$$
