@<TRIPOS>MOLECULE
*****
 52 55 0 0 0
SMALL
GASTEIGER

@<TRIPOS>ATOM
      1 C          -5.5614    1.0927    3.6995 C.3     1  UNL1        0.0790
      2 O          -5.9329    0.8272    2.3670 O.3     1  UNL1       -0.4914
      3 C          -5.1096    0.0971    1.5335 C.ar    1  UNL1        0.1618
      4 C          -3.9011   -0.3943    1.9759 C.ar    1  UNL1       -0.0123
      5 C          -3.1025   -1.1261    1.1001 C.ar    1  UNL1       -0.0292
      6 C          -3.4702   -1.3825   -0.1986 C.ar    1  UNL1        0.0282
      7 C          -4.6943   -0.8823   -0.6394 C.ar    1  UNL1       -0.0054
      8 C          -5.4794   -0.1612    0.2260 C.ar    1  UNL1        0.1622
      9 O          -6.6864    0.3237   -0.2321 O.3     1  UNL1       -0.4914
     10 C          -7.1370    0.1078   -1.5430 C.3     1  UNL1        0.0790
     11 C          -2.4233   -2.1643   -0.8276 C.2     1  UNL1        0.2040
     12 O          -2.5275   -2.8897   -1.8467 O.2     1  UNL1       -0.2881
     13 C          -1.1846   -1.9294   -0.0099 C.3     1  UNL1        0.1661
     14 O          -0.6801   -0.6951   -0.4064 O.3     1  UNL1       -0.4807
     15 C           0.6015   -0.4888   -0.8222 C.ar    1  UNL1        0.1216
     16 C           0.9868    0.7881   -1.1950 C.ar    1  UNL1       -0.0196
     17 C           2.2638    1.0399   -1.6183 C.ar    1  UNL1       -0.0539
     18 C           3.2307    0.0527   -1.6987 C.ar    1  UNL1       -0.0331
     19 C           4.5567    0.4178   -2.1599 C.3     1  UNL1        0.0240
     20 N           5.4931    0.8289   -1.1982 N.3     1  UNL1       -0.2982
     21 C           5.8433   -0.0782   -0.1762 C.3     1  UNL1       -0.0007
     22 C           6.1573    0.7245    1.0772 C.3     1  UNL1       -0.0390
     23 C           6.2931    2.1451    0.5136 C.3     1  UNL1       -0.0390
     24 C           5.3349    2.1372   -0.6599 C.3     1  UNL1       -0.0007
     25 C           2.8298   -1.2062   -1.3251 C.ar    1  UNL1       -0.0539
     26 C           1.5318   -1.4678   -0.8936 C.ar    1  UNL1       -0.0196
     27 C          -1.7772   -1.7333    1.3839 C.3     1  UNL1        0.0177
     28 H          -5.1635    0.1951    4.2092 H       1  UNL1        0.0660
     29 H          -6.4348    1.4215    4.3121 H       1  UNL1        0.0660
     30 H          -4.8379    1.9502    3.7167 H       1  UNL1        0.0660
     31 H          -3.5861   -0.2098    2.9855 H       1  UNL1        0.0658
     32 H          -4.9746   -1.0929   -1.6725 H       1  UNL1        0.0662
     33 H          -8.2181    0.3297   -1.6494 H       1  UNL1        0.0660
     34 H          -6.5268    0.7095   -2.2626 H       1  UNL1        0.0660
     35 H          -7.0035   -0.9483   -1.8254 H       1  UNL1        0.0660
     36 H          -0.5153   -2.7829   -0.0481 H       1  UNL1        0.0821
     37 H           0.2402    1.5658   -1.1362 H       1  UNL1        0.0654
     38 H           2.4812    2.0818   -1.8943 H       1  UNL1        0.0622
     39 H           4.9775   -0.4297   -2.7402 H       1  UNL1        0.0476
     40 H           4.4497    1.2520   -2.9139 H       1  UNL1        0.0476
     41 H           6.8268   -0.5552   -0.4673 H       1  UNL1        0.0427
     42 H           5.1600   -0.9046    0.0165 H       1  UNL1        0.0427
     43 H           7.1186    0.4339    1.5369 H       1  UNL1        0.0278
     44 H           5.3241    0.7338    1.7928 H       1  UNL1        0.0278
     45 H           7.3333    2.3505    0.2043 H       1  UNL1        0.0278
     46 H           5.9974    2.8776    1.2879 H       1  UNL1        0.0278
     47 H           5.7182    2.8790   -1.3895 H       1  UNL1        0.0427
     48 H           4.3214    2.4193   -0.3906 H       1  UNL1        0.0427
     49 H           3.5403   -1.9988   -1.3713 H       1  UNL1        0.0622
     50 H           1.3174   -2.4818   -0.6242 H       1  UNL1        0.0654
     51 H          -1.1838   -0.9698    1.9319 H       1  UNL1        0.0354
     52 H          -1.8174   -2.6532    1.9660 H       1  UNL1        0.0354
@<TRIPOS>BOND
     1     1     2    1
     2     2     3    1
     3     3     4   ar
     4     4     5   ar
     5     5     6   ar
     6     6     7   ar
     7     7     8   ar
     8     8     9    1
     9     9    10    1
    10     6    11    1
    11    11    12    2
    12    11    13    1
    13    13    14    1
    14    14    15    1
    15    15    16   ar
    16    16    17   ar
    17    17    18   ar
    18    18    19    1
    19    19    20    1
    20    20    21    1
    21    21    22    1
    22    22    23    1
    23    23    24    1
    24    18    25   ar
    25    25    26   ar
    26    13    27    1
    27     8     3   ar
    28    26    15   ar
    29    27     5    1
    30    24    20    1
    31     1    28    1
    32     1    29    1
    33     1    30    1
    34     4    31    1
    35     7    32    1
    36    10    33    1
    37    10    34    1
    38    10    35    1
    39    13    36    1
    40    16    37    1
    41    17    38    1
    42    19    39    1
    43    19    40    1
    44    21    41    1
    45    21    42    1
    46    22    43    1
    47    22    44    1
    48    23    45    1
    49    23    46    1
    50    24    47    1
    51    24    48    1
    52    25    49    1
    53    26    50    1
    54    27    51    1
    55    27    52    1
