
     RDKit          3D

 52 55  0  0  0  0  0  0  0  0999 V2000
   -5.5614    1.0927    3.6995 C   0  0  0  0  0  0  0  0  0  0  0  0
   -5.9329    0.8272    2.3670 O   0  0  0  0  0  0  0  0  0  0  0  0
   -5.1096    0.0971    1.5335 C   0  0  0  0  0  0  0  0  0  0  0  0
   -3.9011   -0.3943    1.9759 C   0  0  0  0  0  0  0  0  0  0  0  0
   -3.1025   -1.1261    1.1001 C   0  0  0  0  0  0  0  0  0  0  0  0
   -3.4702   -1.3825   -0.1986 C   0  0  0  0  0  0  0  0  0  0  0  0
   -4.6943   -0.8823   -0.6394 C   0  0  0  0  0  0  0  0  0  0  0  0
   -5.4794   -0.1612    0.2260 C   0  0  0  0  0  0  0  0  0  0  0  0
   -6.6864    0.3237   -0.2321 O   0  0  0  0  0  0  0  0  0  0  0  0
   -7.1370    0.1078   -1.5430 C   0  0  0  0  0  0  0  0  0  0  0  0
   -2.4233   -2.1643   -0.8276 C   0  0  0  0  0  0  0  0  0  0  0  0
   -2.5275   -2.8897   -1.8467 O   0  0  0  0  0  0  0  0  0  0  0  0
   -1.1846   -1.9294   -0.0099 C   0  0  0  0  0  0  0  0  0  0  0  0
   -0.6801   -0.6951   -0.4064 O   0  0  0  0  0  0  0  0  0  0  0  0
    0.6015   -0.4888   -0.8222 C   0  0  0  0  0  0  0  0  0  0  0  0
    0.9868    0.7881   -1.1950 C   0  0  0  0  0  0  0  0  0  0  0  0
    2.2638    1.0399   -1.6183 C   0  0  0  0  0  0  0  0  0  0  0  0
    3.2307    0.0527   -1.6987 C   0  0  0  0  0  0  0  0  0  0  0  0
    4.5567    0.4178   -2.1599 C   0  0  0  0  0  0  0  0  0  0  0  0
    5.4931    0.8289   -1.1982 N   0  0  0  0  0  0  0  0  0  0  0  0
    5.8433   -0.0782   -0.1762 C   0  0  0  0  0  0  0  0  0  0  0  0
    6.1573    0.7245    1.0772 C   0  0  0  0  0  0  0  0  0  0  0  0
    6.2931    2.1451    0.5136 C   0  0  0  0  0  0  0  0  0  0  0  0
    5.3349    2.1372   -0.6599 C   0  0  0  0  0  0  0  0  0  0  0  0
    2.8298   -1.2062   -1.3251 C   0  0  0  0  0  0  0  0  0  0  0  0
    1.5318   -1.4678   -0.8936 C   0  0  0  0  0  0  0  0  0  0  0  0
   -1.7772   -1.7333    1.3839 C   0  0  0  0  0  0  0  0  0  0  0  0
   -5.1635    0.1951    4.2092 H   0  0  0  0  0  0  0  0  0  0  0  0
   -6.4348    1.4215    4.3121 H   0  0  0  0  0  0  0  0  0  0  0  0
   -4.8379    1.9502    3.7167 H   0  0  0  0  0  0  0  0  0  0  0  0
   -3.5861   -0.2098    2.9855 H   0  0  0  0  0  0  0  0  0  0  0  0
   -4.9746   -1.0929   -1.6725 H   0  0  0  0  0  0  0  0  0  0  0  0
   -8.2181    0.3297   -1.6494 H   0  0  0  0  0  0  0  0  0  0  0  0
   -6.5268    0.7095   -2.2626 H   0  0  0  0  0  0  0  0  0  0  0  0
   -7.0035   -0.9483   -1.8254 H   0  0  0  0  0  0  0  0  0  0  0  0
   -0.5153   -2.7829   -0.0481 H   0  0  0  0  0  0  0  0  0  0  0  0
    0.2402    1.5658   -1.1362 H   0  0  0  0  0  0  0  0  0  0  0  0
    2.4812    2.0818   -1.8943 H   0  0  0  0  0  0  0  0  0  0  0  0
    4.9775   -0.4297   -2.7402 H   0  0  0  0  0  0  0  0  0  0  0  0
    4.4497    1.2520   -2.9139 H   0  0  0  0  0  0  0  0  0  0  0  0
    6.8268   -0.5552   -0.4673 H   0  0  0  0  0  0  0  0  0  0  0  0
    5.1600   -0.9046    0.0165 H   0  0  0  0  0  0  0  0  0  0  0  0
    7.1186    0.4339    1.5369 H   0  0  0  0  0  0  0  0  0  0  0  0
    5.3241    0.7338    1.7928 H   0  0  0  0  0  0  0  0  0  0  0  0
    7.3333    2.3505    0.2043 H   0  0  0  0  0  0  0  0  0  0  0  0
    5.9974    2.8776    1.2879 H   0  0  0  0  0  0  0  0  0  0  0  0
    5.7182    2.8790   -1.3895 H   0  0  0  0  0  0  0  0  0  0  0  0
    4.3214    2.4193   -0.3906 H   0  0  0  0  0  0  0  0  0  0  0  0
    3.5403   -1.9988   -1.3713 H   0  0  0  0  0  0  0  0  0  0  0  0
    1.3174   -2.4818   -0.6242 H   0  0  0  0  0  0  0  0  0  0  0  0
   -1.1838   -0.9698    1.9319 H   0  0  0  0  0  0  0  0  0  0  0  0
   -1.8174   -2.6532    1.9660 H   0  0  0  0  0  0  0  0  0  0  0  0
  1  2  1  0
  2  3  1  0
  3  4  2  0
  4  5  1  0
  5  6  2  0
  6  7  1  0
  7  8  2  0
  8  9  1  0
  9 10  1  0
  6 11  1  0
 11 12  2  0
 11 13  1  0
 13 14  1  0
 14 15  1  0
 15 16  2  0
 16 17  1  0
 17 18  2  0
 18 19  1  0
 19 20  1  0
 20 21  1  0
 21 22  1  0
 22 23  1  0
 23 24  1  0
 18 25  1  0
 25 26  2  0
 13 27  1  0
  8  3  1  0
 26 15  1  0
 27  5  1  0
 24 20  1  0
  1 28  1  0
  1 29  1  0
  1 30  1  0
  4 31  1  0
  7 32  1  0
 10 33  1  0
 10 34  1  0
 10 35  1  0
 13 36  1  0
 16 37  1  0
 17 38  1  0
 19 39  1  0
 19 40  1  0
 21 41  1  0
 21 42  1  0
 22 43  1  0
 22 44  1  0
 23 45  1  0
 23 46  1  0
 24 47  1  0
 24 48  1  0
 25 49  1  0
 26 50  1  0
 27 51  1  0
 27 52  1  0
M  END
$$$$
