@<TRIPOS>MOLECULE
*****
 27 26 0 0 0
SMALL
GASTEIGER

@<TRIPOS>ATOM
      1 C          -4.6329   -0.2431   -0.0093 C.3     1  UNL1       -0.0653
      2 C          -3.3404   -0.0162   -0.7608 C.3     1  UNL1       -0.0559
      3 C          -2.1746   -0.1915    0.2224 C.3     1  UNL1       -0.0533
      4 C          -0.8509    0.0236   -0.4713 C.3     1  UNL1       -0.0530
      5 C           0.3162   -0.1496    0.5036 C.3     1  UNL1       -0.0516
      6 C           1.5720    0.0802   -0.2687 C.3     1  UNL1       -0.0374
      7 C           2.8225   -0.0562    0.5609 C.3     1  UNL1        0.0113
      8 N           3.9473    0.1965   -0.3355 N.am    1  UNL1       -0.3179
      9 C           5.1775    0.0864    0.3759 C.2     1  UNL1        0.1999
     10 O           5.2664   -0.1858    1.5836 O.2     1  UNL1       -0.2795
     11 H          -5.3536   -0.7402   -0.6970 H       1  UNL1        0.0230
     12 H          -4.4449   -0.9143    0.8510 H       1  UNL1        0.0230
     13 H          -5.1044    0.7051    0.3326 H       1  UNL1        0.0230
     14 H          -3.3300    1.0099   -1.1710 H       1  UNL1        0.0263
     15 H          -3.2434   -0.7144   -1.6020 H       1  UNL1        0.0263
     16 H          -2.3011    0.4828    1.0827 H       1  UNL1        0.0265
     17 H          -2.2633   -1.2271    0.6128 H       1  UNL1        0.0265
     18 H          -0.8021   -0.6916   -1.3182 H       1  UNL1        0.0265
     19 H          -0.8643    1.0356   -0.8982 H       1  UNL1        0.0265
     20 H           0.2134    0.7087    1.2240 H       1  UNL1        0.0266
     21 H           0.2496   -1.0810    1.0592 H       1  UNL1        0.0266
     22 H           1.5506    1.0880   -0.6961 H       1  UNL1        0.0280
     23 H           1.6438   -0.6580   -1.0968 H       1  UNL1        0.0280
     24 H           2.9613   -1.0842    0.9555 H       1  UNL1        0.0462
     25 H           2.8414    0.6595    1.4085 H       1  UNL1        0.0462
     26 H           3.9847    0.4324   -1.3608 H       1  UNL1        0.1484
     27 H           6.1592    0.2339   -0.0869 H       1  UNL1        0.1251
@<TRIPOS>BOND
     1     1     2    1
     2     2     3    1
     3     3     4    1
     4     4     5    1
     5     5     6    1
     6     6     7    1
     7     7     8    1
     8     8     9   am
     9     9    10    2
    10     1    11    1
    11     1    12    1
    12     1    13    1
    13     2    14    1
    14     2    15    1
    15     3    16    1
    16     3    17    1
    17     4    18    1
    18     4    19    1
    19     5    20    1
    20     5    21    1
    21     6    22    1
    22     6    23    1
    23     7    24    1
    24     7    25    1
    25     8    26    1
    26     9    27    1
