
     RDKit          3D

 27 26  0  0  0  0  0  0  0  0999 V2000
   -4.6329   -0.2431   -0.0093 C   0  0  0  0  0  0  0  0  0  0  0  0
   -3.3404   -0.0162   -0.7608 C   0  0  0  0  0  0  0  0  0  0  0  0
   -2.1746   -0.1915    0.2224 C   0  0  0  0  0  0  0  0  0  0  0  0
   -0.8509    0.0236   -0.4713 C   0  0  0  0  0  0  0  0  0  0  0  0
    0.3162   -0.1496    0.5036 C   0  0  0  0  0  0  0  0  0  0  0  0
    1.5720    0.0802   -0.2687 C   0  0  0  0  0  0  0  0  0  0  0  0
    2.8225   -0.0562    0.5609 C   0  0  0  0  0  0  0  0  0  0  0  0
    3.9473    0.1965   -0.3355 N   0  0  0  0  0  0  0  0  0  0  0  0
    5.1775    0.0864    0.3759 C   0  0  0  0  0  0  0  0  0  0  0  0
    5.2664   -0.1858    1.5836 O   0  0  0  0  0  0  0  0  0  0  0  0
   -5.3536   -0.7402   -0.6970 H   0  0  0  0  0  0  0  0  0  0  0  0
   -4.4449   -0.9143    0.8510 H   0  0  0  0  0  0  0  0  0  0  0  0
   -5.1044    0.7051    0.3326 H   0  0  0  0  0  0  0  0  0  0  0  0
   -3.3300    1.0099   -1.1710 H   0  0  0  0  0  0  0  0  0  0  0  0
   -3.2434   -0.7144   -1.6020 H   0  0  0  0  0  0  0  0  0  0  0  0
   -2.3011    0.4828    1.0827 H   0  0  0  0  0  0  0  0  0  0  0  0
   -2.2633   -1.2271    0.6128 H   0  0  0  0  0  0  0  0  0  0  0  0
   -0.8021   -0.6916   -1.3182 H   0  0  0  0  0  0  0  0  0  0  0  0
   -0.8643    1.0356   -0.8982 H   0  0  0  0  0  0  0  0  0  0  0  0
    0.2134    0.7087    1.2240 H   0  0  0  0  0  0  0  0  0  0  0  0
    0.2496   -1.0810    1.0592 H   0  0  0  0  0  0  0  0  0  0  0  0
    1.5506    1.0880   -0.6961 H   0  0  0  0  0  0  0  0  0  0  0  0
    1.6438   -0.6580   -1.0968 H   0  0  0  0  0  0  0  0  0  0  0  0
    2.9613   -1.0842    0.9555 H   0  0  0  0  0  0  0  0  0  0  0  0
    2.8414    0.6595    1.4085 H   0  0  0  0  0  0  0  0  0  0  0  0
    3.9847    0.4324   -1.3608 H   0  0  0  0  0  0  0  0  0  0  0  0
    6.1592    0.2339   -0.0869 H   0  0  0  0  0  0  0  0  0  0  0  0
  1  2  1  0
  2  3  1  0
  3  4  1  0
  4  5  1  0
  5  6  1  0
  6  7  1  0
  7  8  1  0
  8  9  1  0
  9 10  2  0
  1 11  1  0
  1 12  1  0
  1 13  1  0
  2 14  1  0
  2 15  1  0
  3 16  1  0
  3 17  1  0
  4 18  1  0
  4 19  1  0
  5 20  1  0
  5 21  1  0
  6 22  1  0
  6 23  1  0
  7 24  1  0
  7 25  1  0
  8 26  1  0
  9 27  1  0
M  END
$$$$
