@<TRIPOS>MOLECULE
*****
 111 110 0 0 0
SMALL
GASTEIGER

@<TRIPOS>ATOM
      1 C         -10.6694    0.2525    0.1819 C.3     1  UNL1       -0.0622
      2 C         -10.5047    1.6627   -0.3366 C.3     1  UNL1       -0.0385
      3 C         -10.5503    1.6148   -1.8528 C.3     1  UNL1       -0.0622
      4 C          -9.2068    2.2865    0.1501 C.3     1  UNL1        0.0263
      5 C          -8.0615    1.4637   -0.3479 C.2     1  UNL1        0.2139
      6 O          -8.2024    0.4985   -1.1085 O.2     1  UNL1       -0.2758
      7 N          -6.7124    1.7912    0.0667 N.am    1  UNL1       -0.3037
      8 C          -5.5871    1.0467   -0.3827 C.3     1  UNL1        0.1017
      9 C          -5.0769    0.1938    0.7159 C.2     1  UNL1        0.2342
     10 O          -5.6322    0.2530    1.8489 O.2     1  UNL1       -0.2738
     11 N          -3.9613   -0.6899    0.4853 N.am    1  UNL1       -0.3022
     12 C          -3.5026   -1.4991    1.5622 C.3     1  UNL1        0.1017
     13 C          -2.0363   -1.3705    1.8259 C.2     1  UNL1        0.2339
     14 O          -1.4947   -2.0426    2.7484 O.2     1  UNL1       -0.2738
     15 N          -1.1614   -0.5079    1.0921 N.am    1  UNL1       -0.3084
     16 C           0.2141   -0.3798    1.3647 C.3     1  UNL1        0.0498
     17 C           0.6023   -0.2169    2.8398 C.3     1  UNL1       -0.0297
     18 C           0.0452    1.0166    3.4549 C.3     1  UNL1       -0.0450
     19 C           0.5672    2.2292    2.6979 C.3     1  UNL1       -0.0626
     20 C          -1.4314    1.1286    3.5710 C.3     1  UNL1       -0.0626
     21 C           1.2043   -1.1974    0.6645 C.3     1  UNL1        0.0817
     22 O           1.0550   -2.5752    0.7379 O.3     1  UNL1       -0.3895
     23 C           1.6975   -0.6986   -0.6811 C.3     1  UNL1        0.0517
     24 C           2.6841   -1.6408   -1.2418 C.2     1  UNL1        0.2161
     25 O           2.8234   -2.8178   -0.8341 O.2     1  UNL1       -0.2757
     26 N           3.5471   -1.2371   -2.2976 N.am    1  UNL1       -0.3042
     27 C           4.5227   -2.1812   -2.8451 C.3     1  UNL1        0.0966
     28 C           4.4373   -2.0668   -4.3450 C.3     1  UNL1       -0.0381
     29 C           5.8814   -1.8948   -2.3304 C.2     1  UNL1        0.2334
     30 O           6.7687   -2.7680   -2.4528 O.2     1  UNL1       -0.2738
     31 N           6.2293   -0.6699   -1.6998 N.am    1  UNL1       -0.3085
     32 C           7.5425   -0.4102   -1.1666 C.3     1  UNL1        0.0498
     33 C           8.4560    0.0259   -2.3134 C.3     1  UNL1       -0.0297
     34 C           9.8524    0.3019   -1.7964 C.3     1  UNL1       -0.0450
     35 C          10.4039   -0.9717   -1.1390 C.3     1  UNL1       -0.0626
     36 C          10.8078    0.6084   -2.9558 C.3     1  UNL1       -0.0626
     37 C           7.5531    0.5581   -0.0440 C.3     1  UNL1        0.0836
     38 O           7.0482    1.8230   -0.4525 O.3     1  UNL1       -0.3894
     39 C           6.6269    0.1617    1.1076 C.3     1  UNL1        0.0724
     40 C           6.7108    1.1957    2.1658 C.2     1  UNL1        0.3072
     41 O           7.4500    2.2212    2.0903 O.2     1  UNL1       -0.2509
     42 O           5.9484    1.0688    3.3257 O.3     1  UNL1       -0.4806
     43 C          -3.8006   -2.9694    1.3666 C.3     1  UNL1       -0.0197
     44 C          -5.2927   -3.2128    1.2273 C.3     1  UNL1       -0.0605
     45 C          -3.3818   -3.6957    2.6400 C.3     1  UNL1       -0.0605
     46 C          -4.5180    1.9067   -1.0181 C.3     1  UNL1       -0.0197
     47 C          -3.9818    2.9526   -0.0898 C.3     1  UNL1       -0.0605
     48 C          -5.0253    2.5045   -2.3158 C.3     1  UNL1       -0.0605
     49 H         -11.6475    0.1188    0.7298 H       1  UNL1        0.0232
     50 H          -9.8148   -0.0819    0.8200 H       1  UNL1        0.0232
     51 H         -10.7276   -0.4667   -0.6605 H       1  UNL1        0.0232
     52 H         -11.3535    2.2636    0.0175 H       1  UNL1        0.0300
     53 H          -9.8798    2.3510   -2.3197 H       1  UNL1        0.0232
     54 H         -11.5723    1.8667   -2.1667 H       1  UNL1        0.0232
     55 H         -10.3671    0.5788   -2.2137 H       1  UNL1        0.0232
     56 H          -9.2155    2.2676    1.2403 H       1  UNL1        0.0361
     57 H          -9.1403    3.3283   -0.2090 H       1  UNL1        0.0361
     58 H          -6.6328    2.6021    0.7128 H       1  UNL1        0.1495
     59 H          -5.8701    0.3039   -1.1960 H       1  UNL1        0.0597
     60 H          -3.5517   -0.6800   -0.4773 H       1  UNL1        0.1495
     61 H          -4.0848   -1.2143    2.4849 H       1  UNL1        0.0597
     62 H          -1.6366    0.0375    0.3119 H       1  UNL1        0.1491
     63 H           0.4655    0.7268    1.0120 H       1  UNL1        0.0524
     64 H           1.7220   -0.0875    2.8342 H       1  UNL1        0.0286
     65 H           0.4429   -1.1447    3.4126 H       1  UNL1        0.0286
     66 H           0.4718    1.1057    4.4852 H       1  UNL1        0.0296
     67 H           0.6559    3.1064    3.3577 H       1  UNL1        0.0232
     68 H          -0.1670    2.4996    1.8890 H       1  UNL1        0.0232
     69 H           1.5520    2.0324    2.2281 H       1  UNL1        0.0232
     70 H          -1.6543    2.0260    4.2374 H       1  UNL1        0.0232
     71 H          -1.9195    1.3312    2.5923 H       1  UNL1        0.0232
     72 H          -1.8523    0.2779    4.1324 H       1  UNL1        0.0232
     73 H           2.1824   -1.0576    1.3029 H       1  UNL1        0.0616
     74 H           0.9090   -2.9125    1.6319 H       1  UNL1        0.2099
     75 H           2.1635    0.3084   -0.5260 H       1  UNL1        0.0384
     76 H           0.8934   -0.5638   -1.4266 H       1  UNL1        0.0384
     77 H           3.4939   -0.3034   -2.6744 H       1  UNL1        0.1494
     78 H           4.1805   -3.1911   -2.5427 H       1  UNL1        0.0592
     79 H           3.5689   -2.6691   -4.6789 H       1  UNL1        0.0252
     80 H           4.3348   -1.0007   -4.6657 H       1  UNL1        0.0252
     81 H           5.3324   -2.5227   -4.8230 H       1  UNL1        0.0252
     82 H           5.4539    0.0409   -1.6560 H       1  UNL1        0.1491
     83 H           7.9790   -1.3795   -0.8477 H       1  UNL1        0.0524
     84 H           8.5097   -0.8322   -3.0129 H       1  UNL1        0.0286
     85 H           8.1079    0.8994   -2.8538 H       1  UNL1        0.0286
     86 H           9.9362    1.1138   -1.0855 H       1  UNL1        0.0296
     87 H          10.0686   -1.8635   -1.7144 H       1  UNL1        0.0232
     88 H          10.0571   -1.0504   -0.0947 H       1  UNL1        0.0232
     89 H          11.5099   -0.9136   -1.2090 H       1  UNL1        0.0232
     90 H          10.4050    0.1043   -3.8462 H       1  UNL1        0.0232
     91 H          10.8975    1.7047   -3.1327 H       1  UNL1        0.0232
     92 H          11.8026    0.1474   -2.7581 H       1  UNL1        0.0232
     93 H           8.5547    0.7311    0.3927 H       1  UNL1        0.0617
     94 H           7.6546    2.1910   -1.1649 H       1  UNL1        0.2099
     95 H           6.8162   -0.8465    1.4839 H       1  UNL1        0.0404
     96 H           5.5853    0.2290    0.6772 H       1  UNL1        0.0404
     97 H           5.4555    1.8860    3.7215 H       1  UNL1        0.2951
     98 H          -3.3015   -3.3205    0.4710 H       1  UNL1        0.0318
     99 H          -5.6913   -3.0219    0.2352 H       1  UNL1        0.0233
    100 H          -5.8614   -2.7052    2.0542 H       1  UNL1        0.0233
    101 H          -5.4416   -4.3077    1.4414 H       1  UNL1        0.0233
    102 H          -2.4104   -4.1638    2.5185 H       1  UNL1        0.0233
    103 H          -3.4066   -3.0495    3.5325 H       1  UNL1        0.0233
    104 H          -4.1078   -4.5293    2.8595 H       1  UNL1        0.0233
    105 H          -3.6460    1.2551   -1.3261 H       1  UNL1        0.0318
    106 H          -2.8668    2.9598   -0.0996 H       1  UNL1        0.0233
    107 H          -4.4042    3.9429   -0.2658 H       1  UNL1        0.0233
    108 H          -4.2860    2.6566    0.9481 H       1  UNL1        0.0233
    109 H          -4.9969    1.7327   -3.1422 H       1  UNL1        0.0233
    110 H          -4.4205    3.3482   -2.6474 H       1  UNL1        0.0233
    111 H          -6.1227    2.7520   -2.2152 H       1  UNL1        0.0233
@<TRIPOS>BOND
     1     1     2    1
     2     2     3    1
     3     2     4    1
     4     4     5    1
     5     5     6    2
     6     5     7   am
     7     7     8    1
     8     8     9    1
     9     9    10    2
    10     9    11   am
    11    11    12    1
    12    12    13    1
    13    13    14    2
    14    13    15   am
    15    15    16    1
    16    16    17    1
    17    17    18    1
    18    18    19    1
    19    18    20    1
    20    16    21    1
    21    21    22    1
    22    21    23    1
    23    23    24    1
    24    24    25    2
    25    24    26   am
    26    26    27    1
    27    27    28    1
    28    27    29    1
    29    29    30    2
    30    29    31   am
    31    31    32    1
    32    32    33    1
    33    33    34    1
    34    34    35    1
    35    34    36    1
    36    32    37    1
    37    37    38    1
    38    37    39    1
    39    39    40    1
    40    40    41    2
    41    40    42    1
    42    12    43    1
    43    43    44    1
    44    43    45    1
    45     8    46    1
    46    46    47    1
    47    46    48    1
    48     1    49    1
    49     1    50    1
    50     1    51    1
    51     2    52    1
    52     3    53    1
    53     3    54    1
    54     3    55    1
    55     4    56    1
    56     4    57    1
    57     7    58    1
    58     8    59    1
    59    11    60    1
    60    12    61    1
    61    15    62    1
    62    16    63    1
    63    17    64    1
    64    17    65    1
    65    18    66    1
    66    19    67    1
    67    19    68    1
    68    19    69    1
    69    20    70    1
    70    20    71    1
    71    20    72    1
    72    21    73    1
    73    22    74    1
    74    23    75    1
    75    23    76    1
    76    26    77    1
    77    27    78    1
    78    28    79    1
    79    28    80    1
    80    28    81    1
    81    31    82    1
    82    32    83    1
    83    33    84    1
    84    33    85    1
    85    34    86    1
    86    35    87    1
    87    35    88    1
    88    35    89    1
    89    36    90    1
    90    36    91    1
    91    36    92    1
    92    37    93    1
    93    38    94    1
    94    39    95    1
    95    39    96    1
    96    42    97    1
    97    43    98    1
    98    44    99    1
    99    44   100    1
   100    44   101    1
   101    45   102    1
   102    45   103    1
   103    45   104    1
   104    46   105    1
   105    47   106    1
   106    47   107    1
   107    47   108    1
   108    48   109    1
   109    48   110    1
   110    48   111    1
