
     RDKit          3D

111110  0  0  0  0  0  0  0  0999 V2000
  -10.6694    0.2525    0.1819 C   0  0  0  0  0  0  0  0  0  0  0  0
  -10.5047    1.6627   -0.3366 C   0  0  0  0  0  0  0  0  0  0  0  0
  -10.5503    1.6148   -1.8528 C   0  0  0  0  0  0  0  0  0  0  0  0
   -9.2068    2.2865    0.1501 C   0  0  0  0  0  0  0  0  0  0  0  0
   -8.0615    1.4637   -0.3479 C   0  0  0  0  0  0  0  0  0  0  0  0
   -8.2024    0.4985   -1.1085 O   0  0  0  0  0  0  0  0  0  0  0  0
   -6.7124    1.7912    0.0667 N   0  0  0  0  0  0  0  0  0  0  0  0
   -5.5871    1.0467   -0.3827 C   0  0  2  0  0  0  0  0  0  0  0  0
   -5.0769    0.1938    0.7159 C   0  0  0  0  0  0  0  0  0  0  0  0
   -5.6322    0.2530    1.8489 O   0  0  0  0  0  0  0  0  0  0  0  0
   -3.9613   -0.6899    0.4853 N   0  0  0  0  0  0  0  0  0  0  0  0
   -3.5026   -1.4991    1.5622 C   0  0  2  0  0  0  0  0  0  0  0  0
   -2.0363   -1.3705    1.8259 C   0  0  0  0  0  0  0  0  0  0  0  0
   -1.4947   -2.0426    2.7484 O   0  0  0  0  0  0  0  0  0  0  0  0
   -1.1614   -0.5079    1.0921 N   0  0  0  0  0  0  0  0  0  0  0  0
    0.2141   -0.3798    1.3647 C   0  0  1  0  0  0  0  0  0  0  0  0
    0.6023   -0.2169    2.8398 C   0  0  0  0  0  0  0  0  0  0  0  0
    0.0452    1.0166    3.4549 C   0  0  0  0  0  0  0  0  0  0  0  0
    0.5672    2.2292    2.6979 C   0  0  0  0  0  0  0  0  0  0  0  0
   -1.4314    1.1286    3.5710 C   0  0  0  0  0  0  0  0  0  0  0  0
    1.2043   -1.1974    0.6645 C   0  0  1  0  0  0  0  0  0  0  0  0
    1.0550   -2.5752    0.7379 O   0  0  0  0  0  0  0  0  0  0  0  0
    1.6975   -0.6986   -0.6811 C   0  0  0  0  0  0  0  0  0  0  0  0
    2.6841   -1.6408   -1.2418 C   0  0  0  0  0  0  0  0  0  0  0  0
    2.8234   -2.8178   -0.8341 O   0  0  0  0  0  0  0  0  0  0  0  0
    3.5471   -1.2371   -2.2976 N   0  0  0  0  0  0  0  0  0  0  0  0
    4.5227   -2.1812   -2.8451 C   0  0  1  0  0  0  0  0  0  0  0  0
    4.4373   -2.0668   -4.3450 C   0  0  0  0  0  0  0  0  0  0  0  0
    5.8814   -1.8948   -2.3304 C   0  0  0  0  0  0  0  0  0  0  0  0
    6.7687   -2.7680   -2.4528 O   0  0  0  0  0  0  0  0  0  0  0  0
    6.2293   -0.6699   -1.6998 N   0  0  0  0  0  0  0  0  0  0  0  0
    7.5425   -0.4102   -1.1666 C   0  0  1  0  0  0  0  0  0  0  0  0
    8.4560    0.0259   -2.3134 C   0  0  0  0  0  0  0  0  0  0  0  0
    9.8524    0.3019   -1.7964 C   0  0  0  0  0  0  0  0  0  0  0  0
   10.4039   -0.9717   -1.1390 C   0  0  0  0  0  0  0  0  0  0  0  0
   10.8078    0.6084   -2.9558 C   0  0  0  0  0  0  0  0  0  0  0  0
    7.5531    0.5581   -0.0440 C   0  0  1  0  0  0  0  0  0  0  0  0
    7.0482    1.8230   -0.4525 O   0  0  0  0  0  0  0  0  0  0  0  0
    6.6269    0.1617    1.1076 C   0  0  0  0  0  0  0  0  0  0  0  0
    6.7108    1.1957    2.1658 C   0  0  0  0  0  0  0  0  0  0  0  0
    7.4500    2.2212    2.0903 O   0  0  0  0  0  0  0  0  0  0  0  0
    5.9484    1.0688    3.3257 O   0  0  0  0  0  0  0  0  0  0  0  0
   -3.8006   -2.9694    1.3666 C   0  0  0  0  0  0  0  0  0  0  0  0
   -5.2927   -3.2128    1.2273 C   0  0  0  0  0  0  0  0  0  0  0  0
   -3.3818   -3.6957    2.6400 C   0  0  0  0  0  0  0  0  0  0  0  0
   -4.5180    1.9067   -1.0181 C   0  0  0  0  0  0  0  0  0  0  0  0
   -3.9818    2.9526   -0.0898 C   0  0  0  0  0  0  0  0  0  0  0  0
   -5.0253    2.5045   -2.3158 C   0  0  0  0  0  0  0  0  0  0  0  0
  -11.6475    0.1188    0.7298 H   0  0  0  0  0  0  0  0  0  0  0  0
   -9.8148   -0.0819    0.8200 H   0  0  0  0  0  0  0  0  0  0  0  0
  -10.7276   -0.4667   -0.6605 H   0  0  0  0  0  0  0  0  0  0  0  0
  -11.3535    2.2636    0.0175 H   0  0  0  0  0  0  0  0  0  0  0  0
   -9.8798    2.3510   -2.3197 H   0  0  0  0  0  0  0  0  0  0  0  0
  -11.5723    1.8667   -2.1667 H   0  0  0  0  0  0  0  0  0  0  0  0
  -10.3671    0.5788   -2.2137 H   0  0  0  0  0  0  0  0  0  0  0  0
   -9.2155    2.2676    1.2403 H   0  0  0  0  0  0  0  0  0  0  0  0
   -9.1403    3.3283   -0.2090 H   0  0  0  0  0  0  0  0  0  0  0  0
   -6.6328    2.6021    0.7128 H   0  0  0  0  0  0  0  0  0  0  0  0
   -5.8701    0.3039   -1.1960 H   0  0  0  0  0  0  0  0  0  0  0  0
   -3.5517   -0.6800   -0.4773 H   0  0  0  0  0  0  0  0  0  0  0  0
   -4.0848   -1.2143    2.4849 H   0  0  0  0  0  0  0  0  0  0  0  0
   -1.6366    0.0375    0.3119 H   0  0  0  0  0  0  0  0  0  0  0  0
    0.4655    0.7268    1.0120 H   0  0  0  0  0  0  0  0  0  0  0  0
    1.7220   -0.0875    2.8342 H   0  0  0  0  0  0  0  0  0  0  0  0
    0.4429   -1.1447    3.4126 H   0  0  0  0  0  0  0  0  0  0  0  0
    0.4718    1.1057    4.4852 H   0  0  0  0  0  0  0  0  0  0  0  0
    0.6559    3.1064    3.3577 H   0  0  0  0  0  0  0  0  0  0  0  0
   -0.1670    2.4996    1.8890 H   0  0  0  0  0  0  0  0  0  0  0  0
    1.5520    2.0324    2.2281 H   0  0  0  0  0  0  0  0  0  0  0  0
   -1.6543    2.0260    4.2374 H   0  0  0  0  0  0  0  0  0  0  0  0
   -1.9195    1.3312    2.5923 H   0  0  0  0  0  0  0  0  0  0  0  0
   -1.8523    0.2779    4.1324 H   0  0  0  0  0  0  0  0  0  0  0  0
    2.1824   -1.0576    1.3029 H   0  0  0  0  0  0  0  0  0  0  0  0
    0.9090   -2.9125    1.6319 H   0  0  0  0  0  0  0  0  0  0  0  0
    2.1635    0.3084   -0.5260 H   0  0  0  0  0  0  0  0  0  0  0  0
    0.8934   -0.5638   -1.4266 H   0  0  0  0  0  0  0  0  0  0  0  0
    3.4939   -0.3034   -2.6744 H   0  0  0  0  0  0  0  0  0  0  0  0
    4.1805   -3.1911   -2.5427 H   0  0  0  0  0  0  0  0  0  0  0  0
    3.5689   -2.6691   -4.6789 H   0  0  0  0  0  0  0  0  0  0  0  0
    4.3348   -1.0007   -4.6657 H   0  0  0  0  0  0  0  0  0  0  0  0
    5.3324   -2.5227   -4.8230 H   0  0  0  0  0  0  0  0  0  0  0  0
    5.4539    0.0409   -1.6560 H   0  0  0  0  0  0  0  0  0  0  0  0
    7.9790   -1.3795   -0.8477 H   0  0  0  0  0  0  0  0  0  0  0  0
    8.5097   -0.8322   -3.0129 H   0  0  0  0  0  0  0  0  0  0  0  0
    8.1079    0.8994   -2.8538 H   0  0  0  0  0  0  0  0  0  0  0  0
    9.9362    1.1138   -1.0855 H   0  0  0  0  0  0  0  0  0  0  0  0
   10.0686   -1.8635   -1.7144 H   0  0  0  0  0  0  0  0  0  0  0  0
   10.0571   -1.0504   -0.0947 H   0  0  0  0  0  0  0  0  0  0  0  0
   11.5099   -0.9136   -1.2090 H   0  0  0  0  0  0  0  0  0  0  0  0
   10.4050    0.1043   -3.8462 H   0  0  0  0  0  0  0  0  0  0  0  0
   10.8975    1.7047   -3.1327 H   0  0  0  0  0  0  0  0  0  0  0  0
   11.8026    0.1474   -2.7581 H   0  0  0  0  0  0  0  0  0  0  0  0
    8.5547    0.7311    0.3927 H   0  0  0  0  0  0  0  0  0  0  0  0
    7.6546    2.1910   -1.1649 H   0  0  0  0  0  0  0  0  0  0  0  0
    6.8162   -0.8465    1.4839 H   0  0  0  0  0  0  0  0  0  0  0  0
    5.5853    0.2290    0.6772 H   0  0  0  0  0  0  0  0  0  0  0  0
    5.4555    1.8860    3.7215 H   0  0  0  0  0  0  0  0  0  0  0  0
   -3.3015   -3.3205    0.4710 H   0  0  0  0  0  0  0  0  0  0  0  0
   -5.6913   -3.0219    0.2352 H   0  0  0  0  0  0  0  0  0  0  0  0
   -5.8614   -2.7052    2.0542 H   0  0  0  0  0  0  0  0  0  0  0  0
   -5.4416   -4.3077    1.4414 H   0  0  0  0  0  0  0  0  0  0  0  0
   -2.4104   -4.1638    2.5185 H   0  0  0  0  0  0  0  0  0  0  0  0
   -3.4066   -3.0495    3.5325 H   0  0  0  0  0  0  0  0  0  0  0  0
   -4.1078   -4.5293    2.8595 H   0  0  0  0  0  0  0  0  0  0  0  0
   -3.6460    1.2551   -1.3261 H   0  0  0  0  0  0  0  0  0  0  0  0
   -2.8668    2.9598   -0.0996 H   0  0  0  0  0  0  0  0  0  0  0  0
   -4.4042    3.9429   -0.2658 H   0  0  0  0  0  0  0  0  0  0  0  0
   -4.2860    2.6566    0.9481 H   0  0  0  0  0  0  0  0  0  0  0  0
   -4.9969    1.7327   -3.1422 H   0  0  0  0  0  0  0  0  0  0  0  0
   -4.4205    3.3482   -2.6474 H   0  0  0  0  0  0  0  0  0  0  0  0
   -6.1227    2.7520   -2.2152 H   0  0  0  0  0  0  0  0  0  0  0  0
  1  2  1  0
  2  3  1  0
  2  4  1  0
  4  5  1  0
  5  6  2  0
  5  7  1  0
  7  8  1  0
  8  9  1  0
  9 10  2  0
  9 11  1  0
 11 12  1  0
 12 13  1  0
 13 14  2  0
 13 15  1  0
 15 16  1  0
 16 17  1  0
 17 18  1  0
 18 19  1  0
 18 20  1  0
 16 21  1  0
 21 22  1  0
 21 23  1  0
 23 24  1  0
 24 25  2  0
 24 26  1  0
 26 27  1  0
 27 28  1  0
 27 29  1  0
 29 30  2  0
 29 31  1  0
 31 32  1  0
 32 33  1  0
 33 34  1  0
 34 35  1  0
 34 36  1  0
 32 37  1  0
 37 38  1  0
 37 39  1  0
 39 40  1  0
 40 41  2  0
 40 42  1  0
 12 43  1  0
 43 44  1  0
 43 45  1  0
  8 46  1  0
 46 47  1  0
 46 48  1  0
  1 49  1  0
  1 50  1  0
  1 51  1  0
  2 52  1  0
  3 53  1  0
  3 54  1  0
  3 55  1  0
  4 56  1  0
  4 57  1  0
  7 58  1  0
  8 59  1  6
 11 60  1  0
 12 61  1  1
 15 62  1  0
 16 63  1  6
 17 64  1  0
 17 65  1  0
 18 66  1  0
 19 67  1  0
 19 68  1  0
 19 69  1  0
 20 70  1  0
 20 71  1  0
 20 72  1  0
 21 73  1  1
 22 74  1  0
 23 75  1  0
 23 76  1  0
 26 77  1  0
 27 78  1  6
 28 79  1  0
 28 80  1  0
 28 81  1  0
 31 82  1  0
 32 83  1  1
 33 84  1  0
 33 85  1  0
 34 86  1  0
 35 87  1  0
 35 88  1  0
 35 89  1  0
 36 90  1  0
 36 91  1  0
 36 92  1  0
 37 93  1  1
 38 94  1  0
 39 95  1  0
 39 96  1  0
 42 97  1  0
 43 98  1  0
 44 99  1  0
 44100  1  0
 44101  1  0
 45102  1  0
 45103  1  0
 45104  1  0
 46105  1  0
 47106  1  0
 47107  1  0
 47108  1  0
 48109  1  0
 48110  1  0
 48111  1  0
M  END
$$$$
