
     RDKit          3D

 60 64  0  0  0  0  0  0  0  0999 V2000
   -0.0219   -3.5814    0.6464 C   0  0  0  0  0  0  0  0  0  0  0  0
   -0.0334   -2.0220    0.6014 C   0  0  2  0  0  0  0  0  0  0  0  0
    1.0146   -1.6529   -0.4256 C   0  0  0  0  0  0  0  0  0  0  0  0
    2.2102   -1.0347   -0.0271 C   0  0  0  0  0  0  0  0  0  0  0  0
    3.0679   -0.7928   -1.1148 C   0  0  0  0  0  0  0  0  0  0  0  0
    4.3018   -0.0334   -0.9059 C   0  0  0  0  0  0  0  0  0  0  0  0
    5.0888    0.0047    0.1852 C   0  0  0  0  0  0  0  0  0  0  0  0
    4.7746   -0.7157    1.2302 F   0  0  0  0  0  0  0  0  0  0  0  0
    6.1224    1.0650    0.1538 C   0  0  0  0  0  0  0  0  0  0  0  0
    7.2146    1.3671    0.7085 C   0  0  0  0  0  0  0  0  0  0  0  0
    7.8936    2.5701    0.6739 C   0  0  0  0  0  0  0  0  0  0  0  0
    7.5264    3.6083    0.0673 C   0  0  0  0  0  0  0  0  0  0  0  0
    7.8735    4.8995   -0.0908 C   0  0  0  0  0  0  0  0  0  0  0  0
    8.2425    6.2177   -0.2713 N   0  0  0  0  0  0  0  0  0  0  0  0
    6.1507    3.3925   -0.6986 C   0  0  0  0  0  0  0  0  0  0  0  0
    5.6006    2.2355   -0.6049 N   0  0  0  0  0  0  0  0  0  0  0  0
    2.7908   -1.1011   -2.3861 C   0  0  0  0  0  0  0  0  0  0  0  0
    1.5854   -1.7129   -2.7897 C   0  0  0  0  0  0  0  0  0  0  0  0
    0.7155   -1.9756   -1.7668 C   0  0  0  0  0  0  0  0  0  0  0  0
   -0.4904   -2.5256   -1.9752 F   0  0  0  0  0  0  0  0  0  0  0  0
    0.3026   -1.6267    1.9034 N   0  0  0  0  0  0  0  0  0  0  0  0
   -0.2742   -1.1145    2.8481 C   0  0  0  0  0  0  0  0  0  0  0  0
    0.4543   -0.8615    4.1225 N   0  0  0  0  0  0  0  0  0  0  0  0
   -1.9560   -0.6106    2.6901 S   0  0  0  0  0  0  0  0  0  0  0  0
   -2.3397   -0.7882    0.9104 C   0  0  1  0  0  0  0  0  0  0  0  0
   -3.7331   -0.9866    0.4831 C   0  0  0  0  0  0  0  0  0  0  0  0
   -3.9326   -2.3349    0.3046 O   0  0  0  0  0  0  0  0  0  0  0  0
   -4.8373   -0.2059    0.2149 N   0  0  0  0  0  0  0  0  0  0  0  0
   -5.9419   -0.7817   -0.4511 C   0  0  0  0  0  0  0  0  0  0  0  0
   -7.2414    0.0072   -0.3680 C   0  0  0  0  0  0  0  0  0  0  0  0
   -6.9458    1.4844   -0.6237 C   0  0  0  0  0  0  0  0  0  0  0  0
   -6.0064    1.9928    0.4773 C   0  0  0  0  0  0  0  0  0  0  0  0
   -5.5915    3.2782    0.1276 F   0  0  0  0  0  0  0  0  0  0  0  0
   -6.8379    2.2100    1.5694 F   0  0  0  0  0  0  0  0  0  0  0  0
   -4.8406    1.1473    0.7528 C   0  0  0  0  0  0  0  0  0  0  0  0
   -1.4494   -0.0922   -0.0701 C   0  0  0  0  0  0  0  0  0  0  0  0
   -1.3513   -1.5530    0.1142 C   0  0  1  0  0  0  0  0  0  0  0  0
   -0.0248   -3.9883   -0.3647 H   0  0  0  0  0  0  0  0  0  0  0  0
   -0.9792   -3.9089    1.1494 H   0  0  0  0  0  0  0  0  0  0  0  0
    0.8814   -3.9384    1.1673 H   0  0  0  0  0  0  0  0  0  0  0  0
    2.5097   -0.7490    0.9062 H   0  0  0  0  0  0  0  0  0  0  0  0
    4.6851    0.5347   -1.8021 H   0  0  0  0  0  0  0  0  0  0  0  0
    7.7196    0.5330    1.3220 H   0  0  0  0  0  0  0  0  0  0  0  0
    8.8814    2.6170    1.2435 H   0  0  0  0  0  0  0  0  0  0  0  0
    5.8879    4.2536   -1.2223 H   0  0  0  0  0  0  0  0  0  0  0  0
    3.4588   -0.9234   -3.2653 H   0  0  0  0  0  0  0  0  0  0  0  0
    1.3587   -1.9250   -3.7857 H   0  0  0  0  0  0  0  0  0  0  0  0
   -0.1674   -0.8015    4.9902 H   0  0  0  0  0  0  0  0  0  0  0  0
    1.4581   -0.7548    4.1245 H   0  0  0  0  0  0  0  0  0  0  0  0
   -5.6826   -0.8250   -1.5798 H   0  0  0  0  0  0  0  0  0  0  0  0
   -6.0452   -1.8435   -0.1562 H   0  0  0  0  0  0  0  0  0  0  0  0
   -7.9190   -0.3393   -1.1631 H   0  0  0  0  0  0  0  0  0  0  0  0
   -7.6846   -0.1660    0.6367 H   0  0  0  0  0  0  0  0  0  0  0  0
   -6.4648    1.6193   -1.6314 H   0  0  0  0  0  0  0  0  0  0  0  0
   -7.8532    2.0405   -0.5840 H   0  0  0  0  0  0  0  0  0  0  0  0
   -4.8682    0.9998    1.8951 H   0  0  0  0  0  0  0  0  0  0  0  0
   -3.8303    1.6008    0.4946 H   0  0  0  0  0  0  0  0  0  0  0  0
   -0.6593    0.5728    0.3287 H   0  0  0  0  0  0  0  0  0  0  0  0
   -1.9116    0.3301   -0.9822 H   0  0  0  0  0  0  0  0  0  0  0  0
   -1.8563   -2.3146   -0.5282 H   0  0  0  0  0  0  0  0  0  0  0  0
  2  1  1  1
  2  3  1  0
  3  4  2  0
  4  5  1  0
  5  6  1  0
  6  7  2  0
  7  8  1  0
  7  9  1  0
  9 10  2  0
 10 11  1  0
 11 12  2  0
 12 13  1  0
 13 14  3  0
 12 15  1  0
 15 16  2  0
  5 17  2  0
 17 18  1  0
 18 19  2  0
 19 20  1  0
  2 21  1  0
 21 22  2  0
 22 23  1  0
 22 24  1  0
 24 25  1  0
 25 26  1  1
 26 27  2  0
 26 28  1  0
 28 29  1  0
 29 30  1  0
 30 31  1  0
 31 32  1  0
 32 33  1  0
 32 34  1  0
 32 35  1  0
 25 36  1  0
 36 37  1  0
 37  2  1  0
 19  3  1  0
 37 25  1  0
 16  9  1  0
 35 28  1  0
  1 38  1  0
  1 39  1  0
  1 40  1  0
  4 41  1  0
  6 42  1  0
 10 43  1  0
 11 44  1  0
 15 45  1  0
 17 46  1  0
 18 47  1  0
 23 48  1  0
 23 49  1  0
 29 50  1  0
 29 51  1  0
 30 52  1  0
 30 53  1  0
 31 54  1  0
 31 55  1  0
 35 56  1  0
 35 57  1  0
 36 58  1  0
 36 59  1  0
 37 60  1  6
M  END
$$$$
