@<TRIPOS>MOLECULE
*****
 60 64 0 0 0
SMALL
GASTEIGER

@<TRIPOS>ATOM
      1 C          -0.0219   -3.5814    0.6464 C.3     1  UNL1       -0.0351
      2 C          -0.0334   -2.0220    0.6014 C.3     1  UNL1        0.0935
      3 C           1.0146   -1.6529   -0.4256 C.ar    1  UNL1        0.0158
      4 C           2.2102   -1.0347   -0.0271 C.ar    1  UNL1       -0.0463
      5 C           3.0679   -0.7928   -1.1148 C.ar    1  UNL1       -0.0217
      6 C           4.3018   -0.0334   -0.9059 C.2     1  UNL1       -0.0172
      7 C           5.0888    0.0047    0.1852 C.2     1  UNL1        0.1492
      8 F           4.7746   -0.7157    1.2302 F       1  UNL1       -0.2032
      9 C           6.1224    1.0650    0.1538 C.ar    1  UNL1        0.0990
     10 C           7.2146    1.3671    0.7085 C.ar    1  UNL1       -0.0322
     11 C           7.8936    2.5701    0.6739 C.ar    1  UNL1       -0.0408
     12 C           7.5264    3.6083    0.0673 C.ar    1  UNL1        0.0699
     13 C           7.8735    4.8995   -0.0908 C.1     1  UNL1        0.1007
     14 N           8.2425    6.2177   -0.2713 N.1     1  UNL1       -0.1908
     15 C           6.1507    3.3925   -0.6986 C.ar    1  UNL1        0.0457
     16 N           5.6006    2.2355   -0.6049 N.ar    1  UNL1       -0.2514
     17 C           2.7908   -1.1011   -2.3861 C.ar    1  UNL1       -0.0518
     18 C           1.5854   -1.7129   -2.7897 C.ar    1  UNL1       -0.0255
     19 C           0.7155   -1.9756   -1.7668 C.ar    1  UNL1        0.1289
     20 F          -0.4904   -2.5256   -1.9752 F       1  UNL1       -0.2051
     21 N           0.3026   -1.6267    1.9034 N.2     1  UNL1       -0.2521
     22 C          -0.2742   -1.1145    2.8481 C.2     1  UNL1        0.1485
     23 N           0.4543   -0.8615    4.1225 N.pl3   1  UNL1       -0.3380
     24 S          -1.9560   -0.6106    2.6901 S.3     1  UNL1       -0.0746
     25 C          -2.3397   -0.7882    0.9104 C.3     1  UNL1        0.1054
     26 C          -3.7331   -0.9866    0.4831 C.2     1  UNL1        0.2326
     27 O          -3.9326   -2.3349    0.3046 O.2     1  UNL1       -0.2741
     28 N          -4.8373   -0.2059    0.2149 N.am    1  UNL1       -0.2946
     29 C          -5.9419   -0.7817   -0.4511 C.3     1  UNL1        0.0151
     30 C          -7.2414    0.0072   -0.3680 C.3     1  UNL1       -0.0317
     31 C          -6.9458    1.4844   -0.6237 C.3     1  UNL1        0.0137
     32 C          -6.0064    1.9928    0.4773 C.3     1  UNL1        0.2643
     33 F          -5.5915    3.2782    0.1276 F       1  UNL1       -0.2040
     34 F          -6.8379    2.2100    1.5694 F       1  UNL1       -0.2040
     35 C          -4.8406    1.1473    0.7528 C.3     1  UNL1        0.0781
     36 C          -1.4494   -0.0922   -0.0701 C.3     1  UNL1       -0.0220
     37 C          -1.3513   -1.5530    0.1142 C.3     1  UNL1        0.0134
     38 H          -0.0248   -3.9883   -0.3647 H       1  UNL1        0.0256
     39 H          -0.9792   -3.9089    1.1494 H       1  UNL1        0.0256
     40 H           0.8814   -3.9384    1.1673 H       1  UNL1        0.0256
     41 H           2.5097   -0.7490    0.9062 H       1  UNL1        0.0628
     42 H           4.6851    0.5347   -1.8021 H       1  UNL1        0.0653
     43 H           7.7196    0.5330    1.3220 H       1  UNL1        0.0640
     44 H           8.8814    2.6170    1.2435 H       1  UNL1        0.0631
     45 H           5.8879    4.2536   -1.2223 H       1  UNL1        0.0843
     46 H           3.4588   -0.9234   -3.2653 H       1  UNL1        0.0624
     47 H           1.3587   -1.9250   -3.7857 H       1  UNL1        0.0646
     48 H          -0.1674   -0.8015    4.9902 H       1  UNL1        0.1442
     49 H           1.4581   -0.7548    4.1245 H       1  UNL1        0.1442
     50 H          -5.6826   -0.8250   -1.5798 H       1  UNL1        0.0464
     51 H          -6.0452   -1.8435   -0.1562 H       1  UNL1        0.0464
     52 H          -7.9190   -0.3393   -1.1631 H       1  UNL1        0.0282
     53 H          -7.6846   -0.1660    0.6367 H       1  UNL1        0.0282
     54 H          -6.4648    1.6193   -1.6314 H       1  UNL1        0.0324
     55 H          -7.8532    2.0405   -0.5840 H       1  UNL1        0.0324
     56 H          -4.8682    0.9998    1.8951 H       1  UNL1        0.0523
     57 H          -3.8303    1.6008    0.4946 H       1  UNL1        0.0523
     58 H          -0.6593    0.5728    0.3287 H       1  UNL1        0.0287
     59 H          -1.9116    0.3301   -0.9822 H       1  UNL1        0.0287
     60 H          -1.8563   -2.3146   -0.5282 H       1  UNL1        0.0346
@<TRIPOS>BOND
     1     2     1    1
     2     2     3    1
     3     3     4   ar
     4     4     5   ar
     5     5     6    1
     6     6     7    2
     7     7     8    1
     8     7     9    1
     9     9    10   ar
    10    10    11   ar
    11    11    12   ar
    12    12    13    1
    13    13    14    3
    14    12    15   ar
    15    15    16   ar
    16     5    17   ar
    17    17    18   ar
    18    18    19   ar
    19    19    20    1
    20     2    21    1
    21    21    22    2
    22    22    23    1
    23    22    24    1
    24    24    25    1
    25    25    26    1
    26    26    27    2
    27    26    28   am
    28    28    29    1
    29    29    30    1
    30    30    31    1
    31    31    32    1
    32    32    33    1
    33    32    34    1
    34    32    35    1
    35    25    36    1
    36    36    37    1
    37    37     2    1
    38    19     3   ar
    39    37    25    1
    40    16     9   ar
    41    35    28    1
    42     1    38    1
    43     1    39    1
    44     1    40    1
    45     4    41    1
    46     6    42    1
    47    10    43    1
    48    11    44    1
    49    15    45    1
    50    17    46    1
    51    18    47    1
    52    23    48    1
    53    23    49    1
    54    29    50    1
    55    29    51    1
    56    30    52    1
    57    30    53    1
    58    31    54    1
    59    31    55    1
    60    35    56    1
    61    35    57    1
    62    36    58    1
    63    36    59    1
    64    37    60    1
