@<TRIPOS>MOLECULE
*****
 42 44 0 0 0
SMALL
GASTEIGER

@<TRIPOS>ATOM
      1 C           3.5683   -1.3650   -1.9031 C.3     1  UNL1       -0.0226
      2 C           3.6873   -0.2356   -0.9420 C.ar    1  UNL1        0.0373
      3 C           4.8737    0.2321   -0.4097 C.ar    1  UNL1       -0.0069
      4 C           4.5036    1.2642    0.4120 C.ar    1  UNL1        0.1693
      5 C           5.3825    2.0975    1.2147 C.2     1  UNL1        0.3571
      6 O           6.6274    1.9067    1.2017 O.2     1  UNL1       -0.2433
      7 O           4.9179    3.1249    2.0212 O.3     1  UNL1       -0.4760
      8 N           3.1740    1.3918    0.3619 N.ar    1  UNL1       -0.1640
      9 N           2.6486    0.4930   -0.4539 N.ar    1  UNL1       -0.2633
     10 C           1.2492    0.3146   -0.7688 C.3     1  UNL1        0.0703
     11 C           0.5879   -0.6345    0.1605 C.ar    1  UNL1        0.0166
     12 C           1.3066   -1.2216    1.1684 C.ar    1  UNL1       -0.0393
     13 C           0.6837   -2.1034    2.0284 C.ar    1  UNL1        0.0184
     14 BR          1.7065   -2.9038    3.4192 Br      1  UNL1       -0.0503
     15 C          -0.6557   -2.3624    1.8369 C.ar    1  UNL1       -0.0443
     16 C          -1.3753   -1.7624    0.8124 C.ar    1  UNL1       -0.0185
     17 C          -0.7711   -0.8810   -0.0537 C.ar    1  UNL1        0.1260
     18 O          -1.4225   -0.2712   -1.0658 O.3     1  UNL1       -0.4870
     19 C          -2.6686   -0.2364   -1.5765 C.3     1  UNL1        0.1146
     20 C          -3.7782    0.2461   -0.7444 C.ar    1  UNL1       -0.0104
     21 C          -3.9737    1.6179   -0.6661 C.ar    1  UNL1       -0.0554
     22 C          -5.0078    2.1494    0.0718 C.ar    1  UNL1       -0.0614
     23 C          -5.8941    1.3566    0.7645 C.ar    1  UNL1       -0.0617
     24 C          -5.6997   -0.0006    0.6860 C.ar    1  UNL1       -0.0614
     25 C          -4.6663   -0.5384   -0.0514 C.ar    1  UNL1       -0.0554
     26 H           3.5065   -2.3459   -1.4051 H       1  UNL1        0.0292
     27 H           2.6637   -1.2511   -2.5342 H       1  UNL1        0.0292
     28 H           4.4493   -1.3078   -2.6067 H       1  UNL1        0.0292
     29 H           5.8557   -0.1273   -0.5950 H       1  UNL1        0.0659
     30 H           5.4570    3.9895    2.1139 H       1  UNL1        0.2955
     31 H           1.1477   -0.0932   -1.8040 H       1  UNL1        0.0560
     32 H           0.7688    1.3084   -0.7706 H       1  UNL1        0.0560
     33 H           2.3543   -0.9702    1.2572 H       1  UNL1        0.0633
     34 H          -1.1374   -3.0600    2.5216 H       1  UNL1        0.0630
     35 H          -2.4114   -2.0451    0.7546 H       1  UNL1        0.0654
     36 H          -2.6778    0.4136   -2.5015 H       1  UNL1        0.0748
     37 H          -2.9087   -1.2617   -1.9902 H       1  UNL1        0.0748
     38 H          -3.2951    2.2884   -1.1995 H       1  UNL1        0.0621
     39 H          -5.1407    3.2341    0.1178 H       1  UNL1        0.0618
     40 H          -6.6963    1.8045    1.3355 H       1  UNL1        0.0618
     41 H          -6.3807   -0.6459    1.2199 H       1  UNL1        0.0618
     42 H          -4.5590   -1.6088   -0.0904 H       1  UNL1        0.0621
@<TRIPOS>BOND
     1     1     2    1
     2     2     3   ar
     3     3     4   ar
     4     4     5    1
     5     5     6    2
     6     5     7    1
     7     4     8   ar
     8     8     9   ar
     9     9    10    1
    10    10    11    1
    11    11    12   ar
    12    12    13   ar
    13    13    14    1
    14    13    15   ar
    15    15    16   ar
    16    16    17   ar
    17    17    18    1
    18    18    19    1
    19    19    20    1
    20    20    21   ar
    21    21    22   ar
    22    22    23   ar
    23    23    24   ar
    24    24    25   ar
    25     9     2   ar
    26    17    11   ar
    27    25    20   ar
    28     1    26    1
    29     1    27    1
    30     1    28    1
    31     3    29    1
    32     7    30    1
    33    10    31    1
    34    10    32    1
    35    12    33    1
    36    15    34    1
    37    16    35    1
    38    19    36    1
    39    19    37    1
    40    21    38    1
    41    22    39    1
    42    23    40    1
    43    24    41    1
    44    25    42    1
