
     RDKit          3D

 42 44  0  0  0  0  0  0  0  0999 V2000
    3.5683   -1.3650   -1.9031 C   0  0  0  0  0  0  0  0  0  0  0  0
    3.6873   -0.2356   -0.9420 C   0  0  0  0  0  0  0  0  0  0  0  0
    4.8737    0.2321   -0.4097 C   0  0  0  0  0  0  0  0  0  0  0  0
    4.5036    1.2642    0.4120 C   0  0  0  0  0  0  0  0  0  0  0  0
    5.3825    2.0975    1.2147 C   0  0  0  0  0  0  0  0  0  0  0  0
    6.6274    1.9067    1.2017 O   0  0  0  0  0  0  0  0  0  0  0  0
    4.9179    3.1249    2.0212 O   0  0  0  0  0  0  0  0  0  0  0  0
    3.1740    1.3918    0.3619 N   0  0  0  0  0  0  0  0  0  0  0  0
    2.6486    0.4930   -0.4539 N   0  0  0  0  0  0  0  0  0  0  0  0
    1.2492    0.3146   -0.7688 C   0  0  0  0  0  0  0  0  0  0  0  0
    0.5879   -0.6345    0.1605 C   0  0  0  0  0  0  0  0  0  0  0  0
    1.3066   -1.2216    1.1684 C   0  0  0  0  0  0  0  0  0  0  0  0
    0.6837   -2.1034    2.0284 C   0  0  0  0  0  0  0  0  0  0  0  0
    1.7065   -2.9038    3.4192 Br  0  0  0  0  0  0  0  0  0  0  0  0
   -0.6557   -2.3624    1.8369 C   0  0  0  0  0  0  0  0  0  0  0  0
   -1.3753   -1.7624    0.8124 C   0  0  0  0  0  0  0  0  0  0  0  0
   -0.7711   -0.8810   -0.0537 C   0  0  0  0  0  0  0  0  0  0  0  0
   -1.4225   -0.2712   -1.0658 O   0  0  0  0  0  0  0  0  0  0  0  0
   -2.6686   -0.2364   -1.5765 C   0  0  0  0  0  0  0  0  0  0  0  0
   -3.7782    0.2461   -0.7444 C   0  0  0  0  0  0  0  0  0  0  0  0
   -3.9737    1.6179   -0.6661 C   0  0  0  0  0  0  0  0  0  0  0  0
   -5.0078    2.1494    0.0718 C   0  0  0  0  0  0  0  0  0  0  0  0
   -5.8941    1.3566    0.7645 C   0  0  0  0  0  0  0  0  0  0  0  0
   -5.6997   -0.0006    0.6860 C   0  0  0  0  0  0  0  0  0  0  0  0
   -4.6663   -0.5384   -0.0514 C   0  0  0  0  0  0  0  0  0  0  0  0
    3.5065   -2.3459   -1.4051 H   0  0  0  0  0  0  0  0  0  0  0  0
    2.6637   -1.2511   -2.5342 H   0  0  0  0  0  0  0  0  0  0  0  0
    4.4493   -1.3078   -2.6067 H   0  0  0  0  0  0  0  0  0  0  0  0
    5.8557   -0.1273   -0.5950 H   0  0  0  0  0  0  0  0  0  0  0  0
    5.4570    3.9895    2.1139 H   0  0  0  0  0  0  0  0  0  0  0  0
    1.1477   -0.0932   -1.8040 H   0  0  0  0  0  0  0  0  0  0  0  0
    0.7688    1.3084   -0.7706 H   0  0  0  0  0  0  0  0  0  0  0  0
    2.3543   -0.9702    1.2572 H   0  0  0  0  0  0  0  0  0  0  0  0
   -1.1374   -3.0600    2.5216 H   0  0  0  0  0  0  0  0  0  0  0  0
   -2.4114   -2.0451    0.7546 H   0  0  0  0  0  0  0  0  0  0  0  0
   -2.6778    0.4136   -2.5015 H   0  0  0  0  0  0  0  0  0  0  0  0
   -2.9087   -1.2617   -1.9902 H   0  0  0  0  0  0  0  0  0  0  0  0
   -3.2951    2.2884   -1.1995 H   0  0  0  0  0  0  0  0  0  0  0  0
   -5.1407    3.2341    0.1178 H   0  0  0  0  0  0  0  0  0  0  0  0
   -6.6963    1.8045    1.3355 H   0  0  0  0  0  0  0  0  0  0  0  0
   -6.3807   -0.6459    1.2199 H   0  0  0  0  0  0  0  0  0  0  0  0
   -4.5590   -1.6088   -0.0904 H   0  0  0  0  0  0  0  0  0  0  0  0
  1  2  1  0
  2  3  2  0
  3  4  1  0
  4  5  1  0
  5  6  2  0
  5  7  1  0
  4  8  2  0
  8  9  1  0
  9 10  1  0
 10 11  1  0
 11 12  2  0
 12 13  1  0
 13 14  1  0
 13 15  2  0
 15 16  1  0
 16 17  2  0
 17 18  1  0
 18 19  1  0
 19 20  1  0
 20 21  2  0
 21 22  1  0
 22 23  2  0
 23 24  1  0
 24 25  2  0
  9  2  1  0
 17 11  1  0
 25 20  1  0
  1 26  1  0
  1 27  1  0
  1 28  1  0
  3 29  1  0
  7 30  1  0
 10 31  1  0
 10 32  1  0
 12 33  1  0
 15 34  1  0
 16 35  1  0
 19 36  1  0
 19 37  1  0
 21 38  1  0
 22 39  1  0
 23 40  1  0
 24 41  1  0
 25 42  1  0
M  END
$$$$
