@<TRIPOS>MOLECULE
*****
 46 49 0 0 0
SMALL
GASTEIGER

@<TRIPOS>ATOM
      1 C           5.7559   -2.1754   -0.0074 C.3     1  UNL1       -0.0455
      2 C           4.5907   -2.4733   -0.9112 C.3     1  UNL1        0.0387
      3 N           3.3502   -1.9364   -0.4093 N.ar    1  UNL1       -0.2713
      4 C           2.7945   -0.7252   -0.6403 C.ar    1  UNL1        0.0332
      5 C           1.6059   -0.6407    0.0460 C.ar    1  UNL1        0.0480
      6 C           0.6262    0.4706    0.1184 C.3     1  UNL1        0.2674
      7 C          -0.6133    0.0412   -0.5732 C.ar    1  UNL1        0.0113
      8 C          -0.5627   -0.2610   -1.9114 C.ar    1  UNL1       -0.0540
      9 C          -1.7046   -0.6687   -2.6110 C.ar    1  UNL1       -0.0608
     10 C          -2.8886   -0.7554   -1.9009 C.ar    1  UNL1       -0.0539
     11 C          -2.9659   -0.4578   -0.5583 C.ar    1  UNL1       -0.0146
     12 C          -4.2293   -0.5614    0.1394 C.ar    1  UNL1        0.0183
     13 C          -5.4366   -0.3182   -0.4734 C.ar    1  UNL1        0.0385
     14 N          -6.5956   -0.4316    0.2401 N.ar    1  UNL1       -0.2431
     15 C          -6.5966   -0.7778    1.5389 C.ar    1  UNL1        0.1159
     16 N          -5.4195   -1.0141    2.1322 N.ar    1  UNL1       -0.2431
     17 C          -4.2630   -0.9127    1.4643 C.ar    1  UNL1        0.0385
     18 C          -1.8109   -0.0600    0.0874 C.ar    1  UNL1       -0.0462
     19 N           0.3799    0.9118    1.4559 N.2     1  UNL1       -0.0890
     20 C           0.6375    2.1659    1.5985 C.2     1  UNL1        0.3731
     21 N           0.4940    2.9087    2.8123 N.pl3   1  UNL1       -0.2512
     22 N           1.0928    2.7203    0.3711 N.am    1  UNL1       -0.1614
     23 C           1.4772    4.1246    0.1640 C.3     1  UNL1        0.0573
     24 C           1.1038    1.6787   -0.5956 C.2     1  UNL1        0.3304
     25 O           1.4550    1.8045   -1.7979 O.2     1  UNL1       -0.2520
     26 C           1.4876   -1.8543    0.6901 C.ar    1  UNL1        0.0571
     27 N           2.5467   -2.6123    0.4002 N.ar    1  UNL1       -0.1792
     28 H           6.3353   -1.2897   -0.3026 H       1  UNL1        0.0247
     29 H           6.4564   -3.0417   -0.0556 H       1  UNL1        0.0247
     30 H           5.4699   -2.0824    1.0611 H       1  UNL1        0.0247
     31 H           4.8045   -2.0017   -1.8955 H       1  UNL1        0.0506
     32 H           4.4811   -3.5720   -0.9998 H       1  UNL1        0.0506
     33 H           3.2242    0.0375   -1.2626 H       1  UNL1        0.0830
     34 H           0.3453   -0.2066   -2.5069 H       1  UNL1        0.0622
     35 H          -1.6385   -0.9004   -3.6595 H       1  UNL1        0.0618
     36 H          -3.7617   -1.0710   -2.4542 H       1  UNL1        0.0624
     37 H          -5.5031   -0.0394   -1.5000 H       1  UNL1        0.0837
     38 H          -7.5423   -0.8607    2.0863 H       1  UNL1        0.1047
     39 H          -3.2956   -1.1047    1.9434 H       1  UNL1        0.0837
     40 H          -1.8647    0.1703    1.1229 H       1  UNL1        0.0628
     41 H           1.2807    3.0329    3.4941 H       1  UNL1        0.2412
     42 H          -0.4117    3.3703    3.0848 H       1  UNL1        0.2412
     43 H           0.9763    4.7338    0.9157 H       1  UNL1        0.0602
     44 H           2.5659    4.2615    0.1948 H       1  UNL1        0.0602
     45 H           1.1307    4.4841   -0.8357 H       1  UNL1        0.0602
     46 H           0.6362   -2.1104    1.3309 H       1  UNL1        0.0852
@<TRIPOS>BOND
     1     1     2    1
     2     2     3    1
     3     3     4   ar
     4     4     5   ar
     5     5     6    1
     6     6     7    1
     7     7     8   ar
     8     8     9   ar
     9     9    10   ar
    10    10    11   ar
    11    11    12    1
    12    12    13   ar
    13    13    14   ar
    14    14    15   ar
    15    15    16   ar
    16    16    17   ar
    17    11    18   ar
    18     6    19    1
    19    19    20    2
    20    20    21    1
    21    20    22    1
    22    22    23    1
    23    22    24   am
    24    24    25    2
    25     5    26   ar
    26    26    27   ar
    27    27     3   ar
    28    24     6    1
    29    18     7   ar
    30    17    12   ar
    31     1    28    1
    32     1    29    1
    33     1    30    1
    34     2    31    1
    35     2    32    1
    36     4    33    1
    37     8    34    1
    38     9    35    1
    39    10    36    1
    40    13    37    1
    41    15    38    1
    42    17    39    1
    43    18    40    1
    44    21    41    1
    45    21    42    1
    46    23    43    1
    47    23    44    1
    48    23    45    1
    49    26    46    1
