
     RDKit          3D

 53 56  0  0  0  0  0  0  0  0999 V2000
    4.3625   -1.4443    0.6813 O   0  0  0  0  0  0  0  0  0  0  0  0
    3.6592   -0.4121    0.4723 C   0  0  0  0  0  0  0  0  0  0  0  0
    4.3337    0.6616   -0.1582 N   0  0  0  0  0  0  0  0  0  0  0  0
    5.6902    0.6229   -0.5417 C   0  0  0  0  0  0  0  0  0  0  0  0
    6.7020    1.0188    0.2919 C   0  0  0  0  0  0  0  0  0  0  0  0
    8.0409    0.9782   -0.0929 C   0  0  0  0  0  0  0  0  0  0  0  0
    8.3491    0.5226   -1.3575 C   0  0  0  0  0  0  0  0  0  0  0  0
   10.0221    0.4725   -1.8367 Cl  0  0  0  0  0  0  0  0  0  0  0  0
    7.3603    0.1245   -2.2016 C   0  0  0  0  0  0  0  0  0  0  0  0
    7.7251   -0.4547   -3.8037 Cl  0  0  0  0  0  0  0  0  0  0  0  0
    6.0211    0.1724   -1.7975 C   0  0  0  0  0  0  0  0  0  0  0  0
    2.3020   -0.4074    0.8694 N   0  0  0  0  0  0  0  0  0  0  0  0
    1.7711   -1.5963    1.5078 C   0  0  0  0  0  0  0  0  0  0  0  0
    0.4424   -1.3444    2.1647 C   0  0  0  0  0  0  0  0  0  0  0  0
   -0.4303   -0.5180    1.3566 N   0  0  0  0  0  0  0  0  0  0  0  0
   -1.7942   -0.4357    1.7329 C   0  0  0  0  0  0  0  0  0  0  0  0
   -2.2083   -1.0656    2.7656 O   0  0  0  0  0  0  0  0  0  0  0  0
   -2.8174    0.3559    0.9925 C   0  0  1  0  0  0  0  0  0  0  0  0
   -3.0481   -0.3133   -0.3465 C   0  0  0  0  0  0  0  0  0  0  0  0
   -4.1862    0.2138   -1.0592 N   0  0  0  0  0  0  0  0  0  0  0  0
   -5.0337   -0.7811   -1.6109 C   0  0  0  0  0  0  0  0  0  0  0  0
   -6.2289   -0.4083   -2.3885 C   0  0  0  0  0  0  0  0  0  0  0  0
   -6.3700   -1.1013   -1.0655 C   0  0  0  0  0  0  0  0  0  0  0  0
   -4.7952    1.3353   -0.4510 C   0  0  0  0  0  0  0  0  0  0  0  0
   -4.9719    1.2484    1.0430 C   0  0  0  0  0  0  0  0  0  0  0  0
   -4.1033    0.3039    1.6690 N   0  0  0  0  0  0  0  0  0  0  0  0
    0.0911    0.1901    0.2252 C   0  0  0  0  0  0  0  0  0  0  0  0
    1.4599    0.7500    0.6481 C   0  0  0  0  0  0  0  0  0  0  0  0
    3.7999    1.5327   -0.3507 H   0  0  0  0  0  0  0  0  0  0  0  0
    6.4971    1.3795    1.2850 H   0  0  0  0  0  0  0  0  0  0  0  0
    8.8434    1.2898    0.5620 H   0  0  0  0  0  0  0  0  0  0  0  0
    5.2651   -0.1576   -2.5106 H   0  0  0  0  0  0  0  0  0  0  0  0
    1.7416   -2.4223    0.7846 H   0  0  0  0  0  0  0  0  0  0  0  0
    2.4895   -1.8793    2.3050 H   0  0  0  0  0  0  0  0  0  0  0  0
    0.5458   -0.8678    3.1594 H   0  0  0  0  0  0  0  0  0  0  0  0
   -0.0645   -2.3245    2.2848 H   0  0  0  0  0  0  0  0  0  0  0  0
   -2.5281    1.3936    0.8541 H   0  0  0  0  0  0  0  0  0  0  0  0
   -2.1821   -0.2369   -1.0275 H   0  0  0  0  0  0  0  0  0  0  0  0
   -3.2354   -1.4089   -0.1871 H   0  0  0  0  0  0  0  0  0  0  0  0
   -4.4528   -1.6573   -2.0248 H   0  0  0  0  0  0  0  0  0  0  0  0
   -6.5033   -1.0421   -3.2850 H   0  0  0  0  0  0  0  0  0  0  0  0
   -6.5627    0.6264   -2.5345 H   0  0  0  0  0  0  0  0  0  0  0  0
   -6.6911   -2.1805   -1.0851 H   0  0  0  0  0  0  0  0  0  0  0  0
   -6.8628   -0.5379   -0.2757 H   0  0  0  0  0  0  0  0  0  0  0  0
   -5.7434    1.5762   -0.9437 H   0  0  0  0  0  0  0  0  0  0  0  0
   -4.1273    2.2250   -0.6519 H   0  0  0  0  0  0  0  0  0  0  0  0
   -4.7483    2.2521    1.5108 H   0  0  0  0  0  0  0  0  0  0  0  0
   -6.0306    1.0493    1.3160 H   0  0  0  0  0  0  0  0  0  0  0  0
   -4.5424   -0.6295    1.6469 H   0  0  0  0  0  0  0  0  0  0  0  0
   -0.5049    1.0952   -0.0110 H   0  0  0  0  0  0  0  0  0  0  0  0
    0.1730   -0.4211   -0.6728 H   0  0  0  0  0  0  0  0  0  0  0  0
    1.7928    1.3864   -0.1686 H   0  0  0  0  0  0  0  0  0  0  0  0
    1.2863    1.2712    1.6006 H   0  0  0  0  0  0  0  0  0  0  0  0
  1  2  2  0
  2  3  1  0
  3  4  1  0
  4  5  2  0
  5  6  1  0
  6  7  2  0
  7  8  1  0
  7  9  1  0
  9 10  1  0
  9 11  2  0
  2 12  1  0
 12 13  1  0
 13 14  1  0
 14 15  1  0
 15 16  1  0
 16 17  2  0
 16 18  1  0
 18 19  1  0
 19 20  1  0
 20 21  1  0
 21 22  1  0
 22 23  1  0
 20 24  1  0
 24 25  1  0
 25 26  1  0
 15 27  1  0
 27 28  1  0
 11  4  1  0
 28 12  1  0
 26 18  1  0
 23 21  1  0
  3 29  1  0
  5 30  1  0
  6 31  1  0
 11 32  1  0
 13 33  1  0
 13 34  1  0
 14 35  1  0
 14 36  1  0
 18 37  1  6
 19 38  1  0
 19 39  1  0
 21 40  1  0
 22 41  1  0
 22 42  1  0
 23 43  1  0
 23 44  1  0
 24 45  1  0
 24 46  1  0
 25 47  1  0
 25 48  1  0
 26 49  1  0
 27 50  1  0
 27 51  1  0
 28 52  1  0
 28 53  1  0
M  END
$$$$
