@<TRIPOS>MOLECULE
*****
 53 56 0 0 0
SMALL
GASTEIGER

@<TRIPOS>ATOM
      1 O           4.3625   -1.4443    0.6813 O.2     1  UNL1       -0.2523
      2 C           3.6592   -0.4121    0.4723 C.2     1  UNL1        0.3065
      3 N           4.3337    0.6616   -0.1582 N.am    1  UNL1       -0.2693
      4 C           5.6902    0.6229   -0.5417 C.ar    1  UNL1        0.0362
      5 C           6.7020    1.0188    0.2919 C.ar    1  UNL1       -0.0390
      6 C           8.0409    0.9782   -0.0929 C.ar    1  UNL1       -0.0402
      7 C           8.3491    0.5226   -1.3575 C.ar    1  UNL1        0.0594
      8 CL         10.0221    0.4725   -1.8367 Cl      1  UNL1       -0.0820
      9 C           7.3603    0.1245   -2.2016 C.ar    1  UNL1        0.0610
     10 CL          7.7251   -0.4547   -3.8037 Cl      1  UNL1       -0.0820
     11 C           6.0211    0.1724   -1.7975 C.ar    1  UNL1       -0.0207
     12 N           2.3020   -0.4074    0.8694 N.am    1  UNL1       -0.2824
     13 C           1.7711   -1.5963    1.5078 C.3     1  UNL1        0.0320
     14 C           0.4424   -1.3444    2.1647 C.3     1  UNL1        0.0306
     15 N          -0.4303   -0.5180    1.3566 N.am    1  UNL1       -0.2972
     16 C          -1.7942   -0.4357    1.7329 C.2     1  UNL1        0.2339
     17 O          -2.2083   -1.0656    2.7656 O.2     1  UNL1       -0.2738
     18 C          -2.8174    0.3559    0.9925 C.3     1  UNL1        0.0978
     19 C          -3.0481   -0.3133   -0.3465 C.3     1  UNL1        0.0231
     20 N          -4.1862    0.2138   -1.0592 N.3     1  UNL1       -0.2962
     21 C          -5.0337   -0.7811   -1.6109 C.3     1  UNL1        0.0106
     22 C          -6.2289   -0.4083   -2.3885 C.3     1  UNL1       -0.0359
     23 C          -6.3700   -1.1013   -1.0655 C.3     1  UNL1       -0.0359
     24 C          -4.7952    1.3353   -0.4510 C.3     1  UNL1        0.0118
     25 C          -4.9719    1.2484    1.0430 C.3     1  UNL1        0.0094
     26 N          -4.1033    0.3039    1.6690 N.3     1  UNL1       -0.3034
     27 C           0.0911    0.1901    0.2252 C.3     1  UNL1        0.0306
     28 C           1.4599    0.7500    0.6481 C.3     1  UNL1        0.0320
     29 H           3.7999    1.5327   -0.3507 H       1  UNL1        0.1564
     30 H           6.4971    1.3795    1.2850 H       1  UNL1        0.0636
     31 H           8.8434    1.2898    0.5620 H       1  UNL1        0.0633
     32 H           5.2651   -0.1576   -2.5106 H       1  UNL1        0.0651
     33 H           1.7416   -2.4223    0.7846 H       1  UNL1        0.0480
     34 H           2.4895   -1.8793    2.3050 H       1  UNL1        0.0480
     35 H           0.5458   -0.8678    3.1594 H       1  UNL1        0.0480
     36 H          -0.0645   -2.3245    2.2848 H       1  UNL1        0.0480
     37 H          -2.5281    1.3936    0.8541 H       1  UNL1        0.0569
     38 H          -2.1821   -0.2369   -1.0275 H       1  UNL1        0.0447
     39 H          -3.2354   -1.4089   -0.1871 H       1  UNL1        0.0447
     40 H          -4.4528   -1.6573   -2.0248 H       1  UNL1        0.0462
     41 H          -6.5033   -1.0421   -3.2850 H       1  UNL1        0.0281
     42 H          -6.5627    0.6264   -2.5345 H       1  UNL1        0.0281
     43 H          -6.6911   -2.1805   -1.0851 H       1  UNL1        0.0281
     44 H          -6.8628   -0.5379   -0.2757 H       1  UNL1        0.0281
     45 H          -5.7434    1.5762   -0.9437 H       1  UNL1        0.0439
     46 H          -4.1273    2.2250   -0.6519 H       1  UNL1        0.0439
     47 H          -4.7483    2.2521    1.5108 H       1  UNL1        0.0437
     48 H          -6.0306    1.0493    1.3160 H       1  UNL1        0.0437
     49 H          -4.5424   -0.6295    1.6469 H       1  UNL1        0.1227
     50 H          -0.5049    1.0952   -0.0110 H       1  UNL1        0.0480
     51 H           0.1730   -0.4211   -0.6728 H       1  UNL1        0.0480
     52 H           1.7928    1.3864   -0.1686 H       1  UNL1        0.0480
     53 H           1.2863    1.2712    1.6006 H       1  UNL1        0.0480
@<TRIPOS>BOND
     1     1     2    2
     2     2     3   am
     3     3     4    1
     4     4     5   ar
     5     5     6   ar
     6     6     7   ar
     7     7     8    1
     8     7     9   ar
     9     9    10    1
    10     9    11   ar
    11     2    12   am
    12    12    13    1
    13    13    14    1
    14    14    15    1
    15    15    16   am
    16    16    17    2
    17    16    18    1
    18    18    19    1
    19    19    20    1
    20    20    21    1
    21    21    22    1
    22    22    23    1
    23    20    24    1
    24    24    25    1
    25    25    26    1
    26    15    27    1
    27    27    28    1
    28    11     4   ar
    29    28    12    1
    30    26    18    1
    31    23    21    1
    32     3    29    1
    33     5    30    1
    34     6    31    1
    35    11    32    1
    36    13    33    1
    37    13    34    1
    38    14    35    1
    39    14    36    1
    40    18    37    1
    41    19    38    1
    42    19    39    1
    43    21    40    1
    44    22    41    1
    45    22    42    1
    46    23    43    1
    47    23    44    1
    48    24    45    1
    49    24    46    1
    50    25    47    1
    51    25    48    1
    52    26    49    1
    53    27    50    1
    54    27    51    1
    55    28    52    1
    56    28    53    1
