
     RDKit          3D

 43 46  0  0  0  0  0  0  0  0999 V2000
   -5.7523    1.1790   -0.0170 C   0  0  0  0  0  0  0  0  0  0  0  0
   -4.5982    1.6850   -0.7052 N   0  0  0  0  0  0  0  0  0  0  0  0
   -4.5001    2.9256   -1.1618 N   0  0  0  0  0  0  0  0  0  0  0  0
   -3.3024    3.1020   -1.7601 C   0  0  0  0  0  0  0  0  0  0  0  0
   -2.6558    1.8833   -1.6465 C   0  0  0  0  0  0  0  0  0  0  0  0
   -3.4790    0.9985   -0.9815 C   0  0  0  0  0  0  0  0  0  0  0  0
   -3.1922   -0.3868   -0.6504 C   0  0  0  0  0  0  0  0  0  0  0  0
   -4.1078   -1.3996   -0.8437 C   0  0  0  0  0  0  0  0  0  0  0  0
   -3.7813   -2.7188   -0.5076 C   0  0  0  0  0  0  0  0  0  0  0  0
   -4.9369   -4.0230   -0.7476 Cl  0  0  0  0  0  0  0  0  0  0  0  0
   -2.5483   -3.0355    0.0199 C   0  0  0  0  0  0  0  0  0  0  0  0
   -1.6514   -1.9858    0.2001 C   0  0  0  0  0  0  0  0  0  0  0  0
   -1.9568   -0.6831   -0.1253 C   0  0  0  0  0  0  0  0  0  0  0  0
   -1.0580    0.3202    0.0623 O   0  0  0  0  0  0  0  0  0  0  0  0
    0.2218    0.2381    0.5544 C   0  0  0  0  0  0  0  0  0  0  0  0
    0.5629    0.9242    1.7203 C   0  0  0  0  0  0  0  0  0  0  0  0
    1.8350    0.8736    2.2536 C   0  0  0  0  0  0  0  0  0  0  0  0
    2.1239    1.5637    3.4004 F   0  0  0  0  0  0  0  0  0  0  0  0
    2.8372    0.1392    1.6582 C   0  0  0  0  0  0  0  0  0  0  0  0
    4.4077    0.1240    2.4031 S   0  0  0  0  0  6  0  0  0  0  0  0
    4.8998    1.5548    2.4337 O   0  0  0  0  0  0  0  0  0  0  0  0
    4.2830   -0.3663    3.7985 O   0  0  0  0  0  0  0  0  0  0  0  0
    5.5489   -0.7888    1.5289 N   0  0  0  0  0  0  0  0  0  0  0  0
    5.9370   -0.4283    0.1486 C   0  0  0  0  0  0  0  0  0  0  0  0
    6.6018   -0.7479   -0.7157 N   0  0  0  0  0  0  0  0  0  0  0  0
    6.7836   -0.2198   -1.9018 C   0  0  0  0  0  0  0  0  0  0  0  0
    6.0694    0.8970   -2.1666 N   0  0  0  0  0  0  0  0  0  0  0  0
    5.1337    1.1095   -0.5838 S   0  0  0  0  0  0  0  0  0  0  0  0
    2.5194   -0.5462    0.5047 C   0  0  0  0  0  0  0  0  0  0  0  0
    1.2294   -0.4948   -0.0365 C   0  0  0  0  0  0  0  0  0  0  0  0
    0.9518   -1.1765   -1.1770 F   0  0  0  0  0  0  0  0  0  0  0  0
   -6.5029    0.7825   -0.7544 H   0  0  0  0  0  0  0  0  0  0  0  0
   -6.2993    1.9899    0.5396 H   0  0  0  0  0  0  0  0  0  0  0  0
   -5.5425    0.3875    0.7044 H   0  0  0  0  0  0  0  0  0  0  0  0
   -2.9154    4.0123   -2.2370 H   0  0  0  0  0  0  0  0  0  0  0  0
   -1.6688    1.6787   -2.0233 H   0  0  0  0  0  0  0  0  0  0  0  0
   -5.0633   -1.1776   -1.2486 H   0  0  0  0  0  0  0  0  0  0  0  0
   -2.2846   -4.0529    0.2836 H   0  0  0  0  0  0  0  0  0  0  0  0
   -0.6917   -2.2868    0.6233 H   0  0  0  0  0  0  0  0  0  0  0  0
   -0.2238    1.5133    2.2060 H   0  0  0  0  0  0  0  0  0  0  0  0
    6.0240   -1.6313    1.9117 H   0  0  0  0  0  0  0  0  0  0  0  0
    7.4665   -0.6025   -2.7057 H   0  0  0  0  0  0  0  0  0  0  0  0
    3.2758   -1.1295    0.0221 H   0  0  0  0  0  0  0  0  0  0  0  0
  1  2  1  0
  2  3  1  0
  3  4  2  0
  4  5  1  0
  5  6  2  0
  6  7  1  0
  7  8  2  0
  8  9  1  0
  9 10  1  0
  9 11  2  0
 11 12  1  0
 12 13  2  0
 13 14  1  0
 14 15  1  0
 15 16  2  0
 16 17  1  0
 17 18  1  0
 17 19  2  0
 19 20  1  0
 20 21  2  0
 20 22  2  0
 20 23  1  0
 23 24  1  0
 24 25  2  0
 25 26  1  0
 26 27  2  0
 27 28  1  0
 19 29  1  0
 29 30  2  0
 30 31  1  0
  6  2  1  0
 13  7  1  0
 30 15  1  0
 28 24  1  0
  1 32  1  0
  1 33  1  0
  1 34  1  0
  4 35  1  0
  5 36  1  0
  8 37  1  0
 11 38  1  0
 12 39  1  0
 16 40  1  0
 23 41  1  0
 26 42  1  0
 29 43  1  0
M  END
$$$$
