@<TRIPOS>MOLECULE
*****
 43 46 0 0 0
SMALL
GASTEIGER

@<TRIPOS>ATOM
      1 C          -5.7523    1.1790   -0.0170 C.3     1  UNL1        0.0309
      2 N          -4.5982    1.6850   -0.7052 N.ar    1  UNL1       -0.2667
      3 N          -4.5001    2.9256   -1.1618 N.ar    1  UNL1       -0.1793
      4 C          -3.3024    3.1020   -1.7601 C.ar    1  UNL1        0.0500
      5 C          -2.6558    1.8833   -1.6465 C.ar    1  UNL1       -0.0162
      6 C          -3.4790    0.9985   -0.9815 C.ar    1  UNL1        0.0721
      7 C          -3.1922   -0.3868   -0.6504 C.ar    1  UNL1        0.0436
      8 C          -4.1078   -1.3996   -0.8437 C.ar    1  UNL1       -0.0307
      9 C          -3.7813   -2.7188   -0.5076 C.ar    1  UNL1        0.0418
     10 CL         -4.9369   -4.0230   -0.7476 Cl      1  UNL1       -0.0835
     11 C          -2.5483   -3.0355    0.0199 C.ar    1  UNL1       -0.0399
     12 C          -1.6514   -1.9858    0.2001 C.ar    1  UNL1       -0.0173
     13 C          -1.9568   -0.6831   -0.1253 C.ar    1  UNL1        0.1378
     14 O          -1.0580    0.3202    0.0623 O.3     1  UNL1       -0.4524
     15 C           0.2218    0.2381    0.5544 C.ar    1  UNL1        0.1663
     16 C           0.5629    0.9242    1.7203 C.ar    1  UNL1        0.0207
     17 C           1.8350    0.8736    2.2536 C.ar    1  UNL1        0.1536
     18 F           2.1239    1.5637    3.4004 F       1  UNL1       -0.2033
     19 C           2.8372    0.1392    1.6582 C.ar    1  UNL1        0.1465
     20 S           4.4077    0.1240    2.4031 S.O2    1  UNL1        0.0767
     21 O           4.8998    1.5548    2.4337 O.2     1  UNL1       -0.1498
     22 O           4.2830   -0.3663    3.7985 O.2     1  UNL1       -0.1498
     23 N           5.5489   -0.7888    1.5289 N.pl3   1  UNL1       -0.1925
     24 C           5.9370   -0.4283    0.1486 C.ar    1  UNL1        0.1970
     25 N           6.6018   -0.7479   -0.7157 N.ar    1  UNL1       -0.2109
     26 C           6.7836   -0.2198   -1.9018 C.ar    1  UNL1        0.1273
     27 N           6.0694    0.8970   -2.1666 N.ar    1  UNL1       -0.1958
     28 S           5.1337    1.1095   -0.5838 S.2     1  UNL1        0.0500
     29 C           2.5194   -0.5462    0.5047 C.ar    1  UNL1        0.0067
     30 C           1.2294   -0.4948   -0.0365 C.ar    1  UNL1        0.1674
     31 F           0.9518   -1.1765   -1.1770 F       1  UNL1       -0.2016
     32 H          -6.5029    0.7825   -0.7544 H       1  UNL1        0.0473
     33 H          -6.2993    1.9899    0.5396 H       1  UNL1        0.0473
     34 H          -5.5425    0.3875    0.7044 H       1  UNL1        0.0473
     35 H          -2.9154    4.0123   -2.2370 H       1  UNL1        0.0848
     36 H          -1.6688    1.6787   -2.0233 H       1  UNL1        0.0654
     37 H          -5.0633   -1.1776   -1.2486 H       1  UNL1        0.0640
     38 H          -2.2846   -4.0529    0.2836 H       1  UNL1        0.0633
     39 H          -0.6917   -2.2868    0.6233 H       1  UNL1        0.0655
     40 H          -0.2238    1.5133    2.2060 H       1  UNL1        0.0685
     41 H           6.0240   -1.6313    1.9117 H       1  UNL1        0.1758
     42 H           7.4665   -0.6025   -2.7057 H       1  UNL1        0.1054
     43 H           3.2758   -1.1295    0.0221 H       1  UNL1        0.0668
@<TRIPOS>BOND
     1     1     2    1
     2     2     3   ar
     3     3     4   ar
     4     4     5   ar
     5     5     6   ar
     6     6     7    1
     7     7     8   ar
     8     8     9   ar
     9     9    10    1
    10     9    11   ar
    11    11    12   ar
    12    12    13   ar
    13    13    14    1
    14    14    15    1
    15    15    16   ar
    16    16    17   ar
    17    17    18    1
    18    17    19   ar
    19    19    20    1
    20    20    21    2
    21    20    22    2
    22    20    23    1
    23    23    24    1
    24    24    25   ar
    25    25    26   ar
    26    26    27   ar
    27    27    28   ar
    28    19    29   ar
    29    29    30   ar
    30    30    31    1
    31     6     2   ar
    32    13     7   ar
    33    30    15   ar
    34    28    24   ar
    35     1    32    1
    36     1    33    1
    37     1    34    1
    38     4    35    1
    39     5    36    1
    40     8    37    1
    41    11    38    1
    42    12    39    1
    43    16    40    1
    44    23    41    1
    45    26    42    1
    46    29    43    1
