@<TRIPOS>MOLECULE
*****
 57 61 0 0 0
SMALL
GASTEIGER

@<TRIPOS>ATOM
      1 C          -4.6460    3.2854   -4.1676 C.3     1  UNL1       -0.0396
      2 C          -4.1946    2.5176   -2.9852 C.ar    1  UNL1       -0.0469
      3 C          -3.0390    1.7803   -3.0381 C.ar    1  UNL1       -0.0579
      4 C          -2.6058    1.0552   -1.9321 C.ar    1  UNL1       -0.0471
      5 C          -3.3842    1.1131   -0.7960 C.ar    1  UNL1        0.0660
      6 C          -3.2080    0.5158    0.4120 C.ar    1  UNL1        0.1922
      7 N          -2.1864   -0.3490    0.8996 N.ar    1  UNL1       -0.2413
      8 C          -1.1039   -0.0708    1.6158 C.ar    1  UNL1        0.3362
      9 O          -0.8235    1.1174    1.9877 O.2     1  UNL1       -0.2459
     10 N          -0.3801   -1.1739    1.8794 N.ar    1  UNL1       -0.2873
     11 C           0.8332   -1.1846    2.6299 C.3     1  UNL1        0.0533
     12 C           2.0531   -0.9920    1.8288 C.ar    1  UNL1       -0.0241
     13 C           2.6968   -2.0932    1.3322 C.ar    1  UNL1       -0.0553
     14 C           3.8211   -1.9149    0.5928 C.ar    1  UNL1       -0.0395
     15 C           4.3222   -0.6427    0.3359 C.ar    1  UNL1        0.0826
     16 CL          5.7994   -0.5209   -0.6425 Cl      1  UNL1       -0.0798
     17 C           3.7236    0.4963    0.8047 C.ar    1  UNL1        0.1402
     18 O           4.1188    1.7579    0.6177 O.3     1  UNL1       -0.4765
     19 C           5.1268    2.3818   -0.0168 C.3     1  UNL1        0.1931
     20 C           6.0148    3.1956    0.9861 C.3     1  UNL1       -0.0172
     21 C           4.6400    3.4763   -0.9494 C.2     1  UNL1        0.3456
     22 O           5.4853    4.1108   -1.5799 O.2     1  UNL1       -0.2468
     23 O           3.3054    3.7158   -1.0558 O.3     1  UNL1       -0.4781
     24 C           2.5453    0.2484    1.5759 C.ar    1  UNL1       -0.0136
     25 C          -1.0682   -2.1794    1.2858 C.ar    1  UNL1        0.0712
     26 C          -0.8064   -3.5361    1.2220 C.ar    1  UNL1       -0.0244
     27 C          -1.6461   -4.4133    0.5567 C.ar    1  UNL1        0.0569
     28 C          -1.2902   -5.8461    0.5383 C.3     1  UNL1        0.4175
     29 F          -2.0285   -6.5638   -0.3715 F       1  UNL1       -0.1659
     30 F           0.0597   -6.0464    0.3487 F       1  UNL1       -0.1659
     31 F          -1.5950   -6.3511    1.8032 F       1  UNL1       -0.1659
     32 C          -2.7547   -3.9134   -0.0460 C.ar    1  UNL1       -0.0480
     33 C          -3.0377   -2.5453    0.0067 C.ar    1  UNL1       -0.0351
     34 C          -2.1989   -1.6821    0.6693 C.ar    1  UNL1        0.0766
     35 N          -4.2539    0.8962    1.1794 N.ar    1  UNL1       -0.0587
     36 O          -5.0349    1.6883    0.4784 O.2     1  UNL1       -0.3526
     37 C          -4.5530    1.8505   -0.7219 C.ar    1  UNL1        0.1696
     38 C          -4.9576    2.5615   -1.8391 C.ar    1  UNL1       -0.0131
     39 H          -4.5943    2.6468   -5.0844 H       1  UNL1        0.0278
     40 H          -5.6551    3.7018   -4.0202 H       1  UNL1        0.0278
     41 H          -3.9512    4.1605   -4.2676 H       1  UNL1        0.0278
     42 H          -2.4578    1.7611   -3.9463 H       1  UNL1        0.0620
     43 H          -1.7098    0.4709   -1.9418 H       1  UNL1        0.0626
     44 H           0.9189   -2.1219    3.2593 H       1  UNL1        0.0543
     45 H           0.7781   -0.3666    3.3794 H       1  UNL1        0.0543
     46 H           2.3149   -3.0783    1.5279 H       1  UNL1        0.0621
     47 H           4.3351   -2.7779    0.1973 H       1  UNL1        0.0633
     48 H           5.8946    1.7932   -0.5606 H       1  UNL1        0.0849
     49 H           6.4159    2.5346    1.7538 H       1  UNL1        0.0271
     50 H           5.3586    3.9969    1.3515 H       1  UNL1        0.0271
     51 H           6.7795    3.6665    0.3336 H       1  UNL1        0.0271
     52 H           2.9128    4.2005   -1.8576 H       1  UNL1        0.2952
     53 H           2.0712    1.1412    1.9467 H       1  UNL1        0.0658
     54 H           0.0707   -3.8887    1.7071 H       1  UNL1        0.0644
     55 H          -3.4461   -4.5716   -0.5832 H       1  UNL1        0.0624
     56 H          -3.9168   -2.1404   -0.4697 H       1  UNL1        0.0639
     57 H          -5.8680    3.1260   -1.7563 H       1  UNL1        0.0658
@<TRIPOS>BOND
     1     1     2    1
     2     2     3   ar
     3     3     4   ar
     4     4     5   ar
     5     5     6   ar
     6     6     7    1
     7     7     8   ar
     8     8     9    2
     9     8    10   ar
    10    10    11    1
    11    11    12    1
    12    12    13   ar
    13    13    14   ar
    14    14    15   ar
    15    15    16    1
    16    15    17   ar
    17    17    18    1
    18    18    19    1
    19    19    20    1
    20    19    21    1
    21    21    22    2
    22    21    23    1
    23    17    24   ar
    24    10    25   ar
    25    25    26   ar
    26    26    27   ar
    27    27    28    1
    28    28    29    1
    29    28    30    1
    30    28    31    1
    31    27    32   ar
    32    32    33   ar
    33    33    34   ar
    34     6    35   ar
    35    35    36   ar
    36    36    37   ar
    37    37    38   ar
    38    38     2   ar
    39    37     5   ar
    40    34     7   ar
    41    24    12   ar
    42    34    25   ar
    43     1    39    1
    44     1    40    1
    45     1    41    1
    46     3    42    1
    47     4    43    1
    48    11    44    1
    49    11    45    1
    50    13    46    1
    51    14    47    1
    52    19    48    1
    53    20    49    1
    54    20    50    1
    55    20    51    1
    56    23    52    1
    57    24    53    1
    58    26    54    1
    59    32    55    1
    60    33    56    1
    61    38    57    1
