
     RDKit          3D

 72 75  0  0  0  0  0  0  0  0999 V2000
   -1.2518   -2.1227   -2.5731 C   0  0  0  0  0  0  0  0  0  0  0  0
    0.0185   -1.4354   -2.2030 C   0  0  0  0  0  0  0  0  0  0  0  0
    0.3321   -1.5468   -0.6956 C   0  0  1  0  0  0  0  0  0  0  0  0
    1.5897   -0.8467   -0.4647 C   0  0  0  0  0  0  0  0  0  0  0  0
    2.6525   -1.5177    0.1277 C   0  0  0  0  0  0  0  0  0  0  0  0
    3.8604   -0.9278    0.3446 C   0  0  0  0  0  0  0  0  0  0  0  0
    4.0840    0.3897   -0.0231 C   0  0  0  0  0  0  0  0  0  0  0  0
    5.3918    1.0036    0.2206 C   0  0  0  0  0  0  0  0  0  0  0  0
    5.4802    2.3540    0.4803 C   0  0  0  0  0  0  0  0  0  0  0  0
    6.7145    2.9356    0.7107 C   0  0  0  0  0  0  0  0  0  0  0  0
    7.8560    2.1654    0.6808 C   0  0  0  0  0  0  0  0  0  0  0  0
    8.9500    2.7245    0.8932 O   0  0  0  0  0  0  0  0  0  0  0  0
    7.7608    0.8490    0.4268 N   0  0  0  0  0  0  0  0  0  0  0  0
    8.9945    0.0820    0.4065 C   0  0  0  0  0  0  0  0  0  0  0  0
    9.3078   -0.4607    1.8034 C   0  0  0  0  0  0  0  0  0  0  0  0
    6.5561    0.2767    0.2010 C   0  0  0  0  0  0  0  0  0  0  0  0
    3.0490    1.0732   -0.6106 C   0  0  0  0  0  0  0  0  0  0  0  0
    1.8180    0.4561   -0.8267 C   0  0  0  0  0  0  0  0  0  0  0  0
   -0.8190   -1.0658   -0.0181 N   0  0  0  0  0  0  0  0  0  0  0  0
   -1.2089    0.2960    0.0001 C   0  0  0  0  0  0  0  0  0  0  0  0
   -2.4483    0.5825    0.8011 C   0  0  0  0  0  0  0  0  0  0  0  0
   -3.5441   -0.4201    0.6806 C   0  0  2  0  0  0  0  0  0  0  0  0
   -4.2449   -0.4342   -0.6243 C   0  0  0  0  0  0  0  0  0  0  0  0
   -4.9332    0.7581   -1.1127 C   0  0  0  0  0  0  0  0  0  0  0  0
   -6.0400    1.3339   -0.3174 C   0  0  0  0  0  0  0  0  0  0  0  0
   -5.5328    0.3873   -2.4846 C   0  0  0  0  0  0  0  0  0  0  0  0
   -4.0436    1.8189   -1.4199 O   0  0  0  0  0  0  0  0  0  0  0  0
   -4.5103   -0.3183    1.8038 C   0  0  0  0  0  0  0  0  0  0  0  0
   -5.5076   -1.3009    1.8466 C   0  0  0  0  0  0  0  0  0  0  0  0
   -6.4415   -1.2908    2.8357 C   0  0  0  0  0  0  0  0  0  0  0  0
   -6.4247   -0.3273    3.8012 C   0  0  0  0  0  0  0  0  0  0  0  0
   -5.4233    0.6558    3.7545 C   0  0  0  0  0  0  0  0  0  0  0  0
   -4.4795    0.6552    2.7647 C   0  0  0  0  0  0  0  0  0  0  0  0
   -2.9543   -1.7061    0.8524 O   0  0  0  0  0  0  0  0  0  0  0  0
   -1.6265   -1.9949    0.6991 C   0  0  0  0  0  0  0  0  0  0  0  0
   -1.1537   -3.0678    1.1924 O   0  0  0  0  0  0  0  0  0  0  0  0
   -1.0234   -3.0305   -3.1975 H   0  0  0  0  0  0  0  0  0  0  0  0
   -1.9058   -1.4950   -3.2390 H   0  0  0  0  0  0  0  0  0  0  0  0
   -1.8197   -2.5067   -1.7040 H   0  0  0  0  0  0  0  0  0  0  0  0
    0.8710   -1.8247   -2.7827 H   0  0  0  0  0  0  0  0  0  0  0  0
   -0.0804   -0.3565   -2.4824 H   0  0  0  0  0  0  0  0  0  0  0  0
    0.4728   -2.6589   -0.5509 H   0  0  0  0  0  0  0  0  0  0  0  0
    2.4864   -2.5459    0.4174 H   0  0  0  0  0  0  0  0  0  0  0  0
    4.7071   -1.4518    0.8131 H   0  0  0  0  0  0  0  0  0  0  0  0
    4.6197    3.0015    0.5152 H   0  0  0  0  0  0  0  0  0  0  0  0
    6.8011    4.0046    0.9181 H   0  0  0  0  0  0  0  0  0  0  0  0
    8.9604   -0.7833   -0.2635 H   0  0  0  0  0  0  0  0  0  0  0  0
    9.8419    0.7433    0.1376 H   0  0  0  0  0  0  0  0  0  0  0  0
    9.3271    0.4412    2.4724 H   0  0  0  0  0  0  0  0  0  0  0  0
   10.3297   -0.8789    1.7460 H   0  0  0  0  0  0  0  0  0  0  0  0
    8.5536   -1.1864    2.1375 H   0  0  0  0  0  0  0  0  0  0  0  0
    6.5135   -0.7779    0.0008 H   0  0  0  0  0  0  0  0  0  0  0  0
    3.1991    2.1107   -0.9091 H   0  0  0  0  0  0  0  0  0  0  0  0
    1.0785    1.0769   -1.3114 H   0  0  0  0  0  0  0  0  0  0  0  0
   -0.3510    0.8537    0.4916 H   0  0  0  0  0  0  0  0  0  0  0  0
   -1.2472    0.6890   -1.0311 H   0  0  0  0  0  0  0  0  0  0  0  0
   -2.7640    1.6167    0.5958 H   0  0  0  0  0  0  0  0  0  0  0  0
   -2.0968    0.5517    1.8757 H   0  0  0  0  0  0  0  0  0  0  0  0
   -4.9375   -1.2990   -0.6584 H   0  0  0  0  0  0  0  0  0  0  0  0
   -3.4598   -0.6982   -1.3990 H   0  0  0  0  0  0  0  0  0  0  0  0
   -6.7557    0.6232    0.1099 H   0  0  0  0  0  0  0  0  0  0  0  0
   -5.6932    1.9900    0.5127 H   0  0  0  0  0  0  0  0  0  0  0  0
   -6.6925    2.0308   -0.9305 H   0  0  0  0  0  0  0  0  0  0  0  0
   -6.5983    0.0755   -2.3516 H   0  0  0  0  0  0  0  0  0  0  0  0
   -5.5442    1.2546   -3.1621 H   0  0  0  0  0  0  0  0  0  0  0  0
   -5.0019   -0.4682   -2.9299 H   0  0  0  0  0  0  0  0  0  0  0  0
   -4.5650    2.5743   -1.7896 H   0  0  0  0  0  0  0  0  0  0  0  0
   -5.5408   -2.0911    1.0820 H   0  0  0  0  0  0  0  0  0  0  0  0
   -7.1975   -2.0659    2.8372 H   0  0  0  0  0  0  0  0  0  0  0  0
   -7.1759   -0.3370    4.5788 H   0  0  0  0  0  0  0  0  0  0  0  0
   -5.4191    1.4108    4.5206 H   0  0  0  0  0  0  0  0  0  0  0  0
   -3.7202    1.3940    2.7183 H   0  0  0  0  0  0  0  0  0  0  0  0
  1  2  1  0
  2  3  1  0
  3  4  1  0
  4  5  2  0
  5  6  1  0
  6  7  2  0
  7  8  1  0
  8  9  1  0
  9 10  2  0
 10 11  1  0
 11 12  2  0
 11 13  1  0
 13 14  1  0
 14 15  1  0
 13 16  1  0
  7 17  1  0
 17 18  2  0
  3 19  1  0
 19 20  1  0
 20 21  1  0
 21 22  1  0
 22 23  1  6
 23 24  1  0
 24 25  1  0
 24 26  1  0
 24 27  1  0
 22 28  1  0
 28 29  2  0
 29 30  1  0
 30 31  2  0
 31 32  1  0
 32 33  2  0
 22 34  1  0
 34 35  1  0
 35 36  2  0
 18  4  1  0
 35 19  1  0
 16  8  2  0
 33 28  1  0
  1 37  1  0
  1 38  1  0
  1 39  1  0
  2 40  1  0
  2 41  1  0
  3 42  1  1
  5 43  1  0
  6 44  1  0
  9 45  1  0
 10 46  1  0
 14 47  1  0
 14 48  1  0
 15 49  1  0
 15 50  1  0
 15 51  1  0
 16 52  1  0
 17 53  1  0
 18 54  1  0
 20 55  1  0
 20 56  1  0
 21 57  1  0
 21 58  1  0
 23 59  1  0
 23 60  1  0
 25 61  1  0
 25 62  1  0
 25 63  1  0
 26 64  1  0
 26 65  1  0
 26 66  1  0
 27 67  1  0
 29 68  1  0
 30 69  1  0
 31 70  1  0
 32 71  1  0
 33 72  1  0
M  END
$$$$
