@<TRIPOS>MOLECULE
*****
 72 75 0 0 0
SMALL
GASTEIGER

@<TRIPOS>ATOM
      1 C          -1.2518   -2.1227   -2.5731 C.3     1  UNL1       -0.0633
      2 C           0.0185   -1.4354   -2.2030 C.3     1  UNL1       -0.0329
      3 C           0.3321   -1.5468   -0.6956 C.3     1  UNL1        0.0540
      4 C           1.5897   -0.8467   -0.4647 C.ar    1  UNL1       -0.0269
      5 C           2.6525   -1.5177    0.1277 C.ar    1  UNL1       -0.0562
      6 C           3.8604   -0.9278    0.3446 C.ar    1  UNL1       -0.0537
      7 C           4.0840    0.3897   -0.0231 C.ar    1  UNL1       -0.0165
      8 C           5.3918    1.0036    0.2206 C.ar    1  UNL1       -0.0015
      9 C           5.4802    2.3540    0.4803 C.ar    1  UNL1       -0.0475
     10 C           6.7145    2.9356    0.7107 C.ar    1  UNL1        0.0036
     11 C           7.8560    2.1654    0.6808 C.ar    1  UNL1        0.2513
     12 O           8.9500    2.7245    0.8932 O.2     1  UNL1       -0.2677
     13 N           7.7608    0.8490    0.4268 N.ar    1  UNL1       -0.3149
     14 C           8.9945    0.0820    0.4065 C.3     1  UNL1        0.0233
     15 C           9.3078   -0.4607    1.8034 C.3     1  UNL1       -0.0470
     16 C           6.5561    0.2767    0.2010 C.ar    1  UNL1        0.0156
     17 C           3.0490    1.0732   -0.6106 C.ar    1  UNL1       -0.0537
     18 C           1.8180    0.4561   -0.8267 C.ar    1  UNL1       -0.0562
     19 N          -0.8190   -1.0658   -0.0181 N.am    1  UNL1       -0.2602
     20 C          -1.2089    0.2960    0.0001 C.3     1  UNL1        0.0224
     21 C          -2.4483    0.5825    0.8011 C.3     1  UNL1        0.0076
     22 C          -3.5441   -0.4201    0.6806 C.3     1  UNL1        0.1440
     23 C          -4.2449   -0.4342   -0.6243 C.3     1  UNL1        0.0199
     24 C          -4.9332    0.7581   -1.1127 C.3     1  UNL1        0.0645
     25 C          -6.0400    1.3339   -0.3174 C.3     1  UNL1       -0.0362
     26 C          -5.5328    0.3873   -2.4846 C.3     1  UNL1       -0.0362
     27 O          -4.0436    1.8189   -1.4199 O.3     1  UNL1       -0.3890
     28 C          -4.5103   -0.3183    1.8038 C.ar    1  UNL1       -0.0040
     29 C          -5.5076   -1.3009    1.8466 C.ar    1  UNL1       -0.0548
     30 C          -6.4415   -1.2908    2.8357 C.ar    1  UNL1       -0.0614
     31 C          -6.4247   -0.3273    3.8012 C.ar    1  UNL1       -0.0617
     32 C          -5.4233    0.6558    3.7545 C.ar    1  UNL1       -0.0614
     33 C          -4.4795    0.6552    2.7647 C.ar    1  UNL1       -0.0548
     34 O          -2.9543   -1.7061    0.8524 O.3     1  UNL1       -0.4387
     35 C          -1.6265   -1.9949    0.6991 C.2     1  UNL1        0.4042
     36 O          -1.1537   -3.0678    1.1924 O.2     1  UNL1       -0.2262
     37 H          -1.0234   -3.0305   -3.1975 H       1  UNL1        0.0230
     38 H          -1.9058   -1.4950   -3.2390 H       1  UNL1        0.0230
     39 H          -1.8197   -2.5067   -1.7040 H       1  UNL1        0.0230
     40 H           0.8710   -1.8247   -2.7827 H       1  UNL1        0.0284
     41 H          -0.0804   -0.3565   -2.4824 H       1  UNL1        0.0284
     42 H           0.4728   -2.6589   -0.5509 H       1  UNL1        0.0551
     43 H           2.4864   -2.5459    0.4174 H       1  UNL1        0.0621
     44 H           4.7071   -1.4518    0.8131 H       1  UNL1        0.0624
     45 H           4.6197    3.0015    0.5152 H       1  UNL1        0.0626
     46 H           6.8011    4.0046    0.9181 H       1  UNL1        0.0672
     47 H           8.9604   -0.7833   -0.2635 H       1  UNL1        0.0490
     48 H           9.8419    0.7433    0.1376 H       1  UNL1        0.0490
     49 H           9.3271    0.4412    2.4724 H       1  UNL1        0.0247
     50 H          10.3297   -0.8789    1.7460 H       1  UNL1        0.0247
     51 H           8.5536   -1.1864    2.1375 H       1  UNL1        0.0247
     52 H           6.5135   -0.7779    0.0008 H       1  UNL1        0.0816
     53 H           3.1991    2.1107   -0.9091 H       1  UNL1        0.0624
     54 H           1.0785    1.0769   -1.3114 H       1  UNL1        0.0621
     55 H          -0.3510    0.8537    0.4916 H       1  UNL1        0.0467
     56 H          -1.2472    0.6890   -1.0311 H       1  UNL1        0.0467
     57 H          -2.7640    1.6167    0.5958 H       1  UNL1        0.0322
     58 H          -2.0968    0.5517    1.8757 H       1  UNL1        0.0322
     59 H          -4.9375   -1.2990   -0.6584 H       1  UNL1        0.0335
     60 H          -3.4598   -0.6982   -1.3990 H       1  UNL1        0.0335
     61 H          -6.7557    0.6232    0.1099 H       1  UNL1        0.0257
     62 H          -5.6932    1.9900    0.5127 H       1  UNL1        0.0257
     63 H          -6.6925    2.0308   -0.9305 H       1  UNL1        0.0257
     64 H          -6.5983    0.0755   -2.3516 H       1  UNL1        0.0257
     65 H          -5.5442    1.2546   -3.1621 H       1  UNL1        0.0257
     66 H          -5.0019   -0.4682   -2.9299 H       1  UNL1        0.0257
     67 H          -4.5650    2.5743   -1.7896 H       1  UNL1        0.2101
     68 H          -5.5408   -2.0911    1.0820 H       1  UNL1        0.0622
     69 H          -7.1975   -2.0659    2.8372 H       1  UNL1        0.0618
     70 H          -7.1759   -0.3370    4.5788 H       1  UNL1        0.0618
     71 H          -5.4191    1.4108    4.5206 H       1  UNL1        0.0618
     72 H          -3.7202    1.3940    2.7183 H       1  UNL1        0.0622
@<TRIPOS>BOND
     1     1     2    1
     2     2     3    1
     3     3     4    1
     4     4     5   ar
     5     5     6   ar
     6     6     7   ar
     7     7     8    1
     8     8     9   ar
     9     9    10   ar
    10    10    11   ar
    11    11    12    2
    12    11    13   ar
    13    13    14    1
    14    14    15    1
    15    13    16   ar
    16     7    17   ar
    17    17    18   ar
    18     3    19    1
    19    19    20    1
    20    20    21    1
    21    21    22    1
    22    22    23    1
    23    23    24    1
    24    24    25    1
    25    24    26    1
    26    24    27    1
    27    22    28    1
    28    28    29   ar
    29    29    30   ar
    30    30    31   ar
    31    31    32   ar
    32    32    33   ar
    33    22    34    1
    34    34    35    1
    35    35    36    2
    36    18     4   ar
    37    35    19   am
    38    16     8   ar
    39    33    28   ar
    40     1    37    1
    41     1    38    1
    42     1    39    1
    43     2    40    1
    44     2    41    1
    45     3    42    1
    46     5    43    1
    47     6    44    1
    48     9    45    1
    49    10    46    1
    50    14    47    1
    51    14    48    1
    52    15    49    1
    53    15    50    1
    54    15    51    1
    55    16    52    1
    56    17    53    1
    57    18    54    1
    58    20    55    1
    59    20    56    1
    60    21    57    1
    61    21    58    1
    62    23    59    1
    63    23    60    1
    64    25    61    1
    65    25    62    1
    66    25    63    1
    67    26    64    1
    68    26    65    1
    69    26    66    1
    70    27    67    1
    71    29    68    1
    72    30    69    1
    73    31    70    1
    74    32    71    1
    75    33    72    1
