@<TRIPOS>MOLECULE
*****
 55 60 0 0 0
SMALL
GASTEIGER

@<TRIPOS>ATOM
      1 C           3.0195    3.2706    0.9188 C.3     1  UNL1       -0.0202
      2 C           2.8444    1.7964    1.0197 C.ar    1  UNL1        0.0664
      3 N           3.7463    0.8823    1.3777 N.ar    1  UNL1       -0.1692
      4 N           3.2307   -0.3335    1.3525 N.ar    1  UNL1       -0.2093
      5 C           3.8480   -1.5757    1.6611 C.ar    1  UNL1        0.1530
      6 C           4.3544   -2.0278    2.8715 C.ar    1  UNL1        0.0020
      7 C           4.8604   -3.2975    2.6995 C.ar    1  UNL1        0.0515
      8 N           4.6640   -3.6071    1.4112 N.ar    1  UNL1       -0.1780
      9 N           4.0605   -2.5794    0.7939 N.ar    1  UNL1       -0.2500
     10 C           3.6936   -2.5653   -0.6126 C.3     1  UNL1        0.0324
     11 C           1.9326   -0.1871    0.9580 C.ar    1  UNL1        0.1367
     12 C           1.6458    1.1360    0.7374 C.ar    1  UNL1        0.0309
     13 C           0.2524    1.2812    0.3116 C.3     1  UNL1        0.0854
     14 C           0.1201    2.0143   -0.9713 C.ar    1  UNL1       -0.0221
     15 C          -0.3248    3.3245   -0.9489 C.ar    1  UNL1       -0.0551
     16 C          -0.4695    4.0720   -2.1009 C.ar    1  UNL1       -0.0431
     17 C          -0.1705    3.5291   -3.3338 C.ar    1  UNL1        0.0410
     18 CL         -0.3507    4.4700   -4.8060 Cl      1  UNL1       -0.0835
     19 C           0.2724    2.2225   -3.3481 C.ar    1  UNL1       -0.0431
     20 C           0.4157    1.4781   -2.1917 C.ar    1  UNL1       -0.0551
     21 N          -0.2889   -0.0364    0.2997 N.am    1  UNL1       -0.2531
     22 C          -1.6087   -0.4799   -0.0195 C.ar    1  UNL1        0.0545
     23 C          -1.9948   -0.8582   -1.2819 C.ar    1  UNL1       -0.0324
     24 C          -3.2921   -1.2774   -1.5304 C.ar    1  UNL1       -0.0041
     25 C          -3.7220   -1.6870   -2.8818 C.3     1  UNL1       -0.0361
     26 C          -4.1923   -1.3113   -0.4986 C.ar    1  UNL1        0.1641
     27 N          -5.4811   -1.6526   -0.3931 N.ar    1  UNL1       -0.1292
     28 N          -5.9016   -1.5020    0.8689 N.ar    1  UNL1       -0.1340
     29 C          -4.8372   -1.0524    1.5685 C.ar    1  UNL1        0.1347
     30 C          -4.8710   -0.7515    3.0237 C.3     1  UNL1       -0.0041
     31 N          -3.7901   -0.9354    0.7316 N.ar    1  UNL1       -0.2846
     32 C          -2.5309   -0.5273    0.9786 C.ar    1  UNL1        0.0344
     33 C           0.7249   -0.9493    0.6875 C.2     1  UNL1        0.2705
     34 O           0.6262   -2.2224    0.7907 O.2     1  UNL1       -0.2679
     35 H           2.1363    3.7648    1.3693 H       1  UNL1        0.0293
     36 H           3.1161    3.5095   -0.1508 H       1  UNL1        0.0293
     37 H           3.9623    3.5792    1.4051 H       1  UNL1        0.0293
     38 H           4.3404   -1.4520    3.7893 H       1  UNL1        0.0670
     39 H           5.3288   -3.9560    3.4135 H       1  UNL1        0.0848
     40 H           2.7656   -3.1877   -0.7407 H       1  UNL1        0.0473
     41 H           3.5749   -1.5522   -1.0007 H       1  UNL1        0.0473
     42 H           4.4835   -3.0824   -1.2007 H       1  UNL1        0.0473
     43 H          -0.2902    1.8375    1.1126 H       1  UNL1        0.0606
     44 H          -0.5726    3.7911    0.0123 H       1  UNL1        0.0621
     45 H          -0.8196    5.1051   -2.0916 H       1  UNL1        0.0632
     46 H           0.5110    1.7817   -4.3046 H       1  UNL1        0.0632
     47 H           0.7647    0.4501   -2.2088 H       1  UNL1        0.0621
     48 H          -1.2997   -0.8361   -2.0874 H       1  UNL1        0.0640
     49 H          -4.7673   -1.3538   -3.0748 H       1  UNL1        0.0279
     50 H          -3.7649   -2.8137   -2.8749 H       1  UNL1        0.0279
     51 H          -3.0215   -1.3773   -3.6766 H       1  UNL1        0.0279
     52 H          -4.0980    0.0158    3.2602 H       1  UNL1        0.0308
     53 H          -4.6982   -1.6690    3.6148 H       1  UNL1        0.0308
     54 H          -5.8799   -0.3788    3.3101 H       1  UNL1        0.0308
     55 H          -2.2575   -0.2363    1.9810 H       1  UNL1        0.0833
@<TRIPOS>BOND
     1     1     2    1
     2     2     3   ar
     3     3     4   ar
     4     4     5    1
     5     5     6   ar
     6     6     7   ar
     7     7     8   ar
     8     8     9   ar
     9     9    10    1
    10     4    11   ar
    11    11    12   ar
    12    12    13    1
    13    13    14    1
    14    14    15   ar
    15    15    16   ar
    16    16    17   ar
    17    17    18    1
    18    17    19   ar
    19    19    20   ar
    20    13    21    1
    21    21    22    1
    22    22    23   ar
    23    23    24   ar
    24    24    25    1
    25    24    26   ar
    26    26    27   ar
    27    27    28   ar
    28    28    29   ar
    29    29    30    1
    30    29    31   ar
    31    31    32   ar
    32    21    33   am
    33    33    34    2
    34    12     2   ar
    35    20    14   ar
    36    32    22   ar
    37     9     5   ar
    38    33    11    1
    39    31    26   ar
    40     1    35    1
    41     1    36    1
    42     1    37    1
    43     6    38    1
    44     7    39    1
    45    10    40    1
    46    10    41    1
    47    10    42    1
    48    13    43    1
    49    15    44    1
    50    16    45    1
    51    19    46    1
    52    20    47    1
    53    23    48    1
    54    25    49    1
    55    25    50    1
    56    25    51    1
    57    30    52    1
    58    30    53    1
    59    30    54    1
    60    32    55    1
