
     RDKit          3D

 44 46  0  0  0  0  0  0  0  0999 V2000
   -2.8346   -4.1239    1.8524 C   0  0  0  0  0  0  0  0  0  0  0  0
   -2.9826   -2.8733    1.2605 O   0  0  0  0  0  0  0  0  0  0  0  0
   -1.9545   -2.0997    0.7932 C   0  0  0  0  0  0  0  0  0  0  0  0
   -0.6619   -2.5147    0.8771 C   0  0  0  0  0  0  0  0  0  0  0  0
    0.3430   -1.6937    0.3892 C   0  0  0  0  0  0  0  0  0  0  0  0
    0.0749   -0.4649   -0.1787 C   0  0  0  0  0  0  0  0  0  0  0  0
   -1.2506   -0.0315   -0.2712 C   0  0  0  0  0  0  0  0  0  0  0  0
   -2.2293   -0.8677    0.2214 C   0  0  0  0  0  0  0  0  0  0  0  0
   -1.2539    1.1908   -0.8934 C   0  0  0  0  0  0  0  0  0  0  0  0
   -2.4720    1.9844   -1.1778 C   0  0  0  0  0  0  0  0  0  0  0  0
   -3.0173    2.6732    0.0246 C   0  0  0  0  0  0  0  0  0  0  0  0
   -4.2272    3.4376   -0.3528 C   0  0  0  0  0  0  0  0  0  0  0  0
   -4.6079    3.4113   -1.5467 O   0  0  0  0  0  0  0  0  0  0  0  0
   -4.9640    4.1859    0.5548 O   0  0  0  0  0  0  0  0  0  0  0  0
    0.0568    1.4801   -1.1655 C   0  0  0  0  0  0  0  0  0  0  0  0
    0.5176    2.7367   -1.8443 C   0  0  0  0  0  0  0  0  0  0  0  0
    0.8698    0.4637   -0.7235 N   0  0  0  0  0  0  0  0  0  0  0  0
    2.2566    0.4957   -0.9319 C   0  0  0  0  0  0  0  0  0  0  0  0
    2.7016    1.4072   -1.7753 O   0  0  0  0  0  0  0  0  0  0  0  0
    3.3220   -0.2818   -0.3935 C   0  0  0  0  0  0  0  0  0  0  0  0
    4.4111   -0.6142   -1.1787 C   0  0  0  0  0  0  0  0  0  0  0  0
    5.5170   -1.2742   -0.6974 C   0  0  0  0  0  0  0  0  0  0  0  0
    5.5484   -1.6257    0.6352 C   0  0  0  0  0  0  0  0  0  0  0  0
    6.9295   -2.4653    1.3025 Cl  0  0  0  0  0  0  0  0  0  0  0  0
    4.4907   -1.3174    1.4578 C   0  0  0  0  0  0  0  0  0  0  0  0
    3.3989   -0.6509    0.9239 C   0  0  0  0  0  0  0  0  0  0  0  0
   -3.8452   -4.4704    2.1975 H   0  0  0  0  0  0  0  0  0  0  0  0
   -2.1339   -4.0568    2.7244 H   0  0  0  0  0  0  0  0  0  0  0  0
   -2.3971   -4.8353    1.1141 H   0  0  0  0  0  0  0  0  0  0  0  0
   -0.3595   -3.4665    1.3097 H   0  0  0  0  0  0  0  0  0  0  0  0
    1.3409   -2.0535    0.4280 H   0  0  0  0  0  0  0  0  0  0  0  0
   -3.2748   -0.5550    0.1640 H   0  0  0  0  0  0  0  0  0  0  0  0
   -2.3305    2.7272   -1.9757 H   0  0  0  0  0  0  0  0  0  0  0  0
   -3.2508    1.2742   -1.5449 H   0  0  0  0  0  0  0  0  0  0  0  0
   -2.2797    3.4541    0.3761 H   0  0  0  0  0  0  0  0  0  0  0  0
   -3.2666    1.9917    0.8618 H   0  0  0  0  0  0  0  0  0  0  0  0
   -5.9760    4.2052    0.4062 H   0  0  0  0  0  0  0  0  0  0  0  0
   -0.3469    3.3910   -2.0458 H   0  0  0  0  0  0  0  0  0  0  0  0
    1.3252    3.2368   -1.2865 H   0  0  0  0  0  0  0  0  0  0  0  0
    0.9299    2.4794   -2.8450 H   0  0  0  0  0  0  0  0  0  0  0  0
    4.4261   -0.3510   -2.2531 H   0  0  0  0  0  0  0  0  0  0  0  0
    6.3540   -1.5172   -1.3532 H   0  0  0  0  0  0  0  0  0  0  0  0
    4.5028   -1.5899    2.5135 H   0  0  0  0  0  0  0  0  0  0  0  0
    2.6000   -0.4317    1.6426 H   0  0  0  0  0  0  0  0  0  0  0  0
  1  2  1  0
  2  3  1  0
  3  4  2  0
  4  5  1  0
  5  6  2  0
  6  7  1  0
  7  8  2  0
  7  9  1  0
  9 10  1  0
 10 11  1  0
 11 12  1  0
 12 13  2  0
 12 14  1  0
  9 15  2  0
 15 16  1  0
 15 17  1  0
 17 18  1  0
 18 19  2  0
 18 20  1  0
 20 21  2  0
 21 22  1  0
 22 23  2  0
 23 24  1  0
 23 25  1  0
 25 26  2  0
  8  3  1  0
 26 20  1  0
 17  6  1  0
  1 27  1  0
  1 28  1  0
  1 29  1  0
  4 30  1  0
  5 31  1  0
  8 32  1  0
 10 33  1  0
 10 34  1  0
 11 35  1  0
 11 36  1  0
 14 37  1  0
 16 38  1  0
 16 39  1  0
 16 40  1  0
 21 41  1  0
 22 42  1  0
 25 43  1  0
 26 44  1  0
M  END
$$$$
