@<TRIPOS>MOLECULE
*****
 44 46 0 0 0
SMALL
GASTEIGER

@<TRIPOS>ATOM
      1 C          -2.8346   -4.1239    1.8524 C.3     1  UNL1        0.0788
      2 O          -2.9826   -2.8733    1.2605 O.3     1  UNL1       -0.4951
      3 C          -1.9545   -2.0997    0.7932 C.ar    1  UNL1        0.1208
      4 C          -0.6619   -2.5147    0.8771 C.ar    1  UNL1       -0.0180
      5 C           0.3430   -1.6937    0.3892 C.ar    1  UNL1       -0.0337
      6 C           0.0749   -0.4649   -0.1787 C.ar    1  UNL1        0.0574
      7 C          -1.2506   -0.0315   -0.2712 C.ar    1  UNL1        0.0072
      8 C          -2.2293   -0.8677    0.2214 C.ar    1  UNL1       -0.0105
      9 C          -1.2539    1.1908   -0.8934 C.ar    1  UNL1       -0.0181
     10 C          -2.4720    1.9844   -1.1778 C.3     1  UNL1       -0.0154
     11 C          -3.0173    2.6732    0.0246 C.3     1  UNL1        0.0488
     12 C          -4.2272    3.4376   -0.3528 C.2     1  UNL1        0.3050
     13 O          -4.6079    3.4113   -1.5467 O.2     1  UNL1       -0.2510
     14 O          -4.9640    4.1859    0.5548 O.3     1  UNL1       -0.4806
     15 C           0.0568    1.4801   -1.1655 C.ar    1  UNL1        0.0279
     16 C           0.5176    2.7367   -1.8443 C.3     1  UNL1       -0.0235
     17 N           0.8698    0.4637   -0.7235 N.ar    1  UNL1       -0.2801
     18 C           2.2566    0.4957   -0.9319 C.2     1  UNL1        0.2631
     19 O           2.7016    1.4072   -1.7753 O.2     1  UNL1       -0.2667
     20 C           3.3220   -0.2818   -0.3935 C.ar    1  UNL1        0.0399
     21 C           4.4111   -0.6142   -1.1787 C.ar    1  UNL1       -0.0480
     22 C           5.5170   -1.2742   -0.6974 C.ar    1  UNL1       -0.0427
     23 C           5.5484   -1.6257    0.6352 C.ar    1  UNL1        0.0410
     24 CL          6.9295   -2.4653    1.3025 Cl      1  UNL1       -0.0835
     25 C           4.4907   -1.3174    1.4578 C.ar    1  UNL1       -0.0427
     26 C           3.3989   -0.6509    0.9239 C.ar    1  UNL1       -0.0480
     27 H          -3.8452   -4.4704    2.1975 H       1  UNL1        0.0660
     28 H          -2.1339   -4.0568    2.7244 H       1  UNL1        0.0660
     29 H          -2.3971   -4.8353    1.1141 H       1  UNL1        0.0660
     30 H          -0.3595   -3.4665    1.3097 H       1  UNL1        0.0655
     31 H           1.3409   -2.0535    0.4280 H       1  UNL1        0.0640
     32 H          -3.2748   -0.5550    0.1640 H       1  UNL1        0.0661
     33 H          -2.3305    2.7272   -1.9757 H       1  UNL1        0.0319
     34 H          -3.2508    1.2742   -1.5449 H       1  UNL1        0.0319
     35 H          -2.2797    3.4541    0.3761 H       1  UNL1        0.0381
     36 H          -3.2666    1.9917    0.8618 H       1  UNL1        0.0381
     37 H          -5.9760    4.2052    0.4062 H       1  UNL1        0.2951
     38 H          -0.3469    3.3910   -2.0458 H       1  UNL1        0.0292
     39 H           1.3252    3.2368   -1.2865 H       1  UNL1        0.0292
     40 H           0.9299    2.4794   -2.8450 H       1  UNL1        0.0292
     41 H           4.4261   -0.3510   -2.2531 H       1  UNL1        0.0626
     42 H           6.3540   -1.5172   -1.3532 H       1  UNL1        0.0632
     43 H           4.5028   -1.5899    2.5135 H       1  UNL1        0.0632
     44 H           2.6000   -0.4317    1.6426 H       1  UNL1        0.0626
@<TRIPOS>BOND
     1     1     2    1
     2     2     3    1
     3     3     4   ar
     4     4     5   ar
     5     5     6   ar
     6     6     7   ar
     7     7     8   ar
     8     7     9   ar
     9     9    10    1
    10    10    11    1
    11    11    12    1
    12    12    13    2
    13    12    14    1
    14     9    15   ar
    15    15    16    1
    16    15    17   ar
    17    17    18   am
    18    18    19    2
    19    18    20    1
    20    20    21   ar
    21    21    22   ar
    22    22    23   ar
    23    23    24    1
    24    23    25   ar
    25    25    26   ar
    26     8     3   ar
    27    26    20   ar
    28    17     6   ar
    29     1    27    1
    30     1    28    1
    31     1    29    1
    32     4    30    1
    33     5    31    1
    34     8    32    1
    35    10    33    1
    36    10    34    1
    37    11    35    1
    38    11    36    1
    39    14    37    1
    40    16    38    1
    41    16    39    1
    42    16    40    1
    43    21    41    1
    44    22    42    1
    45    25    43    1
    46    26    44    1
