
     RDKit          3D

 50 53  0  0  0  0  0  0  0  0999 V2000
   11.4339   -0.7466   -0.3000 C   0  0  0  0  0  0  0  0  0  0  0  0
    9.9619   -0.3035   -0.3972 C   0  0  0  0  0  0  0  0  0  0  0  0
    8.9321    0.0063   -0.4463 C   0  0  0  0  0  0  0  0  0  0  0  0
    7.5324    0.4099   -0.4994 C   0  0  0  0  0  0  0  0  0  0  0  0
    6.8042    0.1986    0.6740 O   0  0  0  0  0  0  0  0  0  0  0  0
    5.3840    0.3079    0.5131 C   0  0  0  0  0  0  0  0  0  0  0  0
    4.4805    0.1963    1.4945 C   0  0  0  0  0  0  0  0  0  0  0  0
    3.1318    0.2797    1.2384 N   0  0  0  0  0  0  0  0  0  0  0  0
    2.6906    0.4720   -0.0257 C   0  0  0  0  0  0  0  0  0  0  0  0
    1.3169    0.5057   -0.4278 C   0  0  0  0  0  0  0  0  0  0  0  0
    1.1912    0.1228   -1.7074 O   0  0  0  0  0  0  0  0  0  0  0  0
    0.1171    0.8216    0.1626 N   0  0  0  0  0  0  0  0  0  0  0  0
   -1.1529    0.7068   -0.4459 C   0  0  0  0  0  0  0  0  0  0  0  0
   -1.2780    0.3881   -1.7886 C   0  0  0  0  0  0  0  0  0  0  0  0
   -2.5190    0.0408   -2.3329 C   0  0  0  0  0  0  0  0  0  0  0  0
   -3.6239    0.0200   -1.5424 C   0  0  0  0  0  0  0  0  0  0  0  0
   -4.8492   -0.2900   -1.9915 F   0  0  0  0  0  0  0  0  0  0  0  0
   -3.5263    0.3462   -0.1810 C   0  0  0  0  0  0  0  0  0  0  0  0
   -4.7008    0.1196    0.6462 C   0  0  1  0  0  0  0  0  0  0  0  0
   -4.4568    1.1027    1.8822 C   0  0  0  0  0  0  0  0  0  0  0  0
   -4.3623    2.3833    1.4199 F   0  0  0  0  0  0  0  0  0  0  0  0
   -5.9472    0.6700    0.1448 N   0  0  0  0  0  0  0  0  0  0  0  0
   -6.9058   -0.1554   -0.2033 C   0  0  0  0  0  0  0  0  0  0  0  0
   -8.1311    0.4264   -0.6975 N   0  0  0  0  0  0  0  0  0  0  0  0
   -6.7506   -1.5168   -0.1037 O   0  0  0  0  0  0  0  0  0  0  0  0
   -5.7485   -2.1329    0.6454 C   0  0  2  0  0  0  0  0  0  0  0  0
   -5.7940   -1.7018    2.1349 C   0  0  0  0  0  0  0  0  0  0  0  0
   -4.7318   -1.2469    1.1925 C   0  0  2  0  0  0  0  0  0  0  0  0
   -2.3120    0.6842    0.3471 C   0  0  0  0  0  0  0  0  0  0  0  0
    3.6665    0.5943   -1.0294 C   0  0  0  0  0  0  0  0  0  0  0  0
    4.9544    0.5104   -0.7367 N   0  0  0  0  0  0  0  0  0  0  0  0
   12.0305   -0.0739   -0.9073 H   0  0  0  0  0  0  0  0  0  0  0  0
   11.4679   -1.7979   -0.6246 H   0  0  0  0  0  0  0  0  0  0  0  0
   11.6847   -0.6545    0.7592 H   0  0  0  0  0  0  0  0  0  0  0  0
    7.4270    1.5198   -0.7908 H   0  0  0  0  0  0  0  0  0  0  0  0
    7.0309   -0.1434   -1.3580 H   0  0  0  0  0  0  0  0  0  0  0  0
    4.7936    0.0300    2.5237 H   0  0  0  0  0  0  0  0  0  0  0  0
    0.1708    1.2081    1.1557 H   0  0  0  0  0  0  0  0  0  0  0  0
   -0.4793    0.4239   -2.4930 H   0  0  0  0  0  0  0  0  0  0  0  0
   -2.6142   -0.1925   -3.3793 H   0  0  0  0  0  0  0  0  0  0  0  0
   -3.6572    0.7828    2.4969 H   0  0  0  0  0  0  0  0  0  0  0  0
   -5.4310    1.0649    2.4712 H   0  0  0  0  0  0  0  0  0  0  0  0
   -8.8480    0.8219   -0.0401 H   0  0  0  0  0  0  0  0  0  0  0  0
   -8.3236    0.4619   -1.7196 H   0  0  0  0  0  0  0  0  0  0  0  0
   -5.4187   -3.1686    0.4009 H   0  0  0  0  0  0  0  0  0  0  0  0
   -5.5345   -2.5182    2.8202 H   0  0  0  0  0  0  0  0  0  0  0  0
   -6.6262   -1.0616    2.4646 H   0  0  0  0  0  0  0  0  0  0  0  0
   -3.6975   -1.6616    1.3937 H   0  0  0  0  0  0  0  0  0  0  0  0
   -2.1421    0.9639    1.3847 H   0  0  0  0  0  0  0  0  0  0  0  0
    3.3597    0.7758   -2.0478 H   0  0  0  0  0  0  0  0  0  0  0  0
  1  2  1  0
  2  3  3  0
  3  4  1  0
  4  5  1  0
  5  6  1  0
  6  7  2  0
  7  8  1  0
  8  9  2  0
  9 10  1  0
 10 11  2  0
 10 12  1  0
 12 13  1  0
 13 14  2  0
 14 15  1  0
 15 16  2  0
 16 17  1  0
 16 18  1  0
 18 19  1  0
 19 20  1  1
 20 21  1  0
 19 22  1  0
 22 23  2  0
 23 24  1  0
 23 25  1  0
 25 26  1  0
 26 27  1  0
 27 28  1  0
 18 29  2  0
  9 30  1  0
 30 31  2  0
 31  6  1  0
 29 13  1  0
 28 19  1  0
 28 26  1  0
  1 32  1  0
  1 33  1  0
  1 34  1  0
  4 35  1  0
  4 36  1  0
  7 37  1  0
 12 38  1  0
 14 39  1  0
 15 40  1  0
 20 41  1  0
 20 42  1  0
 24 43  1  0
 24 44  1  0
 26 45  1  1
 27 46  1  0
 27 47  1  0
 28 48  1  1
 29 49  1  0
 30 50  1  0
M  END
$$$$
