@<TRIPOS>MOLECULE
*****
 50 53 0 0 0
SMALL
GASTEIGER

@<TRIPOS>ATOM
      1 C          11.4339   -0.7466   -0.3000 C.3     1  UNL1       -0.0025
      2 C           9.9619   -0.3035   -0.3972 C.1     1  UNL1       -0.1022
      3 C           8.9321    0.0063   -0.4463 C.1     1  UNL1       -0.0617
      4 C           7.5324    0.4099   -0.4994 C.3     1  UNL1        0.1516
      5 O           6.8042    0.1986    0.6740 O.3     1  UNL1       -0.4624
      6 C           5.3840    0.3079    0.5131 C.ar    1  UNL1        0.2344
      7 C           4.4805    0.1963    1.4945 C.ar    1  UNL1        0.0899
      8 N           3.1318    0.2797    1.2384 N.ar    1  UNL1       -0.2435
      9 C           2.6906    0.4720   -0.0257 C.ar    1  UNL1        0.1439
     10 C           1.3169    0.5057   -0.4278 C.2     1  UNL1        0.2681
     11 O           1.1912    0.1228   -1.7074 O.2     1  UNL1       -0.2681
     12 N           0.1171    0.8216    0.1626 N.am    1  UNL1       -0.2802
     13 C          -1.1529    0.7068   -0.4459 C.ar    1  UNL1        0.0342
     14 C          -1.2780    0.3881   -1.7886 C.ar    1  UNL1       -0.0377
     15 C          -2.5190    0.0408   -2.3329 C.ar    1  UNL1       -0.0243
     16 C          -3.6239    0.0200   -1.5424 C.ar    1  UNL1        0.1291
     17 F          -4.8492   -0.2900   -1.9915 F       1  UNL1       -0.2051
     18 C          -3.5263    0.3462   -0.1810 C.ar    1  UNL1        0.0198
     19 C          -4.7008    0.1196    0.6462 C.3     1  UNL1        0.1284
     20 C          -4.4568    1.1027    1.8822 C.3     1  UNL1        0.1199
     21 F          -4.3623    2.3833    1.4199 F       1  UNL1       -0.2462
     22 N          -5.9472    0.6700    0.1448 N.2     1  UNL1       -0.2225
     23 C          -6.9058   -0.1554   -0.2033 C.2     1  UNL1        0.2763
     24 N          -8.1311    0.4264   -0.6975 N.pl3   1  UNL1       -0.3134
     25 O          -6.7506   -1.5168   -0.1037 O.2     1  UNL1       -0.4622
     26 C          -5.7485   -2.1329    0.6454 C.3     1  UNL1        0.1090
     27 C          -5.7940   -1.7018    2.1349 C.3     1  UNL1       -0.0065
     28 C          -4.7318   -1.2469    1.1925 C.3     1  UNL1        0.0315
     29 C          -2.3120    0.6842    0.3471 C.ar    1  UNL1       -0.0322
     30 C           3.6665    0.5943   -1.0294 C.ar    1  UNL1        0.0619
     31 N           4.9544    0.5104   -0.7367 N.ar    1  UNL1       -0.2177
     32 H          12.0305   -0.0739   -0.9073 H       1  UNL1        0.0362
     33 H          11.4679   -1.7979   -0.6246 H       1  UNL1        0.0362
     34 H          11.6847   -0.6545    0.7592 H       1  UNL1        0.0362
     35 H           7.4270    1.5198   -0.7908 H       1  UNL1        0.0837
     36 H           7.0309   -0.1434   -1.3580 H       1  UNL1        0.0837
     37 H           4.7936    0.0300    2.5237 H       1  UNL1        0.0884
     38 H           0.1708    1.2081    1.1557 H       1  UNL1        0.1552
     39 H          -0.4793    0.4239   -2.4930 H       1  UNL1        0.0637
     40 H          -2.6142   -0.1925   -3.3793 H       1  UNL1        0.0647
     41 H          -3.6572    0.7828    2.4969 H       1  UNL1        0.0643
     42 H          -5.4310    1.0649    2.4712 H       1  UNL1        0.0643
     43 H          -8.8480    0.8219   -0.0401 H       1  UNL1        0.1466
     44 H          -8.3236    0.4619   -1.7196 H       1  UNL1        0.1466
     45 H          -5.4187   -3.1686    0.4009 H       1  UNL1        0.0737
     46 H          -5.5345   -2.5182    2.8202 H       1  UNL1        0.0306
     47 H          -6.6262   -1.0616    2.4646 H       1  UNL1        0.0306
     48 H          -3.6975   -1.6616    1.3937 H       1  UNL1        0.0365
     49 H          -2.1421    0.9639    1.3847 H       1  UNL1        0.0640
     50 H           3.3597    0.7758   -2.0478 H       1  UNL1        0.0854
@<TRIPOS>BOND
     1     1     2    1
     2     2     3    3
     3     3     4    1
     4     4     5    1
     5     5     6    1
     6     6     7   ar
     7     7     8   ar
     8     8     9   ar
     9     9    10    1
    10    10    11    2
    11    10    12   am
    12    12    13    1
    13    13    14   ar
    14    14    15   ar
    15    15    16   ar
    16    16    17    1
    17    16    18   ar
    18    18    19    1
    19    19    20    1
    20    20    21    1
    21    19    22    1
    22    22    23    2
    23    23    24    1
    24    23    25    1
    25    25    26    1
    26    26    27    1
    27    27    28    1
    28    18    29   ar
    29     9    30   ar
    30    30    31   ar
    31    31     6   ar
    32    29    13   ar
    33    28    19    1
    34    28    26    1
    35     1    32    1
    36     1    33    1
    37     1    34    1
    38     4    35    1
    39     4    36    1
    40     7    37    1
    41    12    38    1
    42    14    39    1
    43    15    40    1
    44    20    41    1
    45    20    42    1
    46    24    43    1
    47    24    44    1
    48    26    45    1
    49    27    46    1
    50    27    47    1
    51    28    48    1
    52    29    49    1
    53    30    50    1
