@<TRIPOS>MOLECULE
*****
 55 58 0 0 0
SMALL
GASTEIGER

@<TRIPOS>ATOM
      1 N           5.5792    0.2542    3.0889 N.pl3   1  UNL1       -0.3429
      2 C           6.1213   -0.7252    2.2126 C.ar    1  UNL1        0.1241
      3 C           7.4080   -1.1535    2.3169 C.ar    1  UNL1        0.0424
      4 C           7.8810   -2.1111    1.4375 C.ar    1  UNL1        0.2539
      5 O           9.0554   -2.5537    1.4735 O.2     1  UNL1       -0.2677
      6 N           7.0611   -2.5952    0.5028 N.ar    1  UNL1       -0.3019
      7 C           5.7914   -2.1674    0.4055 C.ar    1  UNL1        0.1708
      8 S           4.7697   -2.8731   -0.8771 S.3     1  UNL1       -0.0873
      9 C           4.9450   -1.8522   -2.3640 C.3     1  UNL1        0.0093
     10 C           4.3390   -0.4918   -2.0473 C.3     1  UNL1        0.0334
     11 C           2.8948   -0.6488   -1.6798 C.2     1  UNL1        0.2140
     12 O           2.3249   -1.7683   -1.6191 O.2     1  UNL1       -0.2758
     13 N           2.0943    0.4997   -1.3777 N.am    1  UNL1       -0.3124
     14 C           0.7026    0.3929   -1.0185 C.3     1  UNL1        0.0232
     15 C           0.4059    0.8920    0.3725 C.3     1  UNL1       -0.0338
     16 C          -1.0244    0.8407    0.7451 C.3     1  UNL1       -0.0401
     17 C          -2.0115    1.0404   -0.3668 C.3     1  UNL1        0.0373
     18 C          -3.3677    0.5138    0.0035 C.ar    1  UNL1        0.2208
     19 N          -3.6929   -0.7855    0.1110 N.ar    1  UNL1       -0.1118
     20 N          -4.9721   -0.9038    0.4543 N.ar    1  UNL1       -0.1073
     21 C          -5.4493    0.3603    0.5617 C.ar    1  UNL1        0.2483
     22 C          -6.8246    0.7083    0.9238 C.ar    1  UNL1        0.0385
     23 C          -7.2405    2.0175    1.0313 C.ar    1  UNL1       -0.0494
     24 C          -8.5550    2.3006    1.3709 C.ar    1  UNL1       -0.0610
     25 C          -9.4929    1.3142    1.6127 C.ar    1  UNL1       -0.0617
     26 C          -9.0637    0.0051    1.5019 C.ar    1  UNL1       -0.0610
     27 C          -7.7572   -0.2778    1.1646 C.ar    1  UNL1       -0.0494
     28 O          -4.4670    1.1689    0.2865 O.2     1  UNL1       -0.4199
     29 C          -1.6085    0.4727   -1.6808 C.3     1  UNL1       -0.0401
     30 C          -0.2272    1.0012   -2.0447 C.3     1  UNL1       -0.0338
     31 N           5.3293   -1.2402    1.2550 N.ar    1  UNL1       -0.2088
     32 H           4.7670    0.0802    3.6934 H       1  UNL1        0.1437
     33 H           6.0091    1.2013    3.1377 H       1  UNL1        0.1437
     34 H           8.0855   -0.7780    3.0629 H       1  UNL1        0.0706
     35 H           7.4313   -3.3313   -0.1696 H       1  UNL1        0.1708
     36 H           6.0185   -1.6919   -2.5919 H       1  UNL1        0.0385
     37 H           4.3810   -2.2610   -3.2160 H       1  UNL1        0.0385
     38 H           4.4521    0.1832   -2.9188 H       1  UNL1        0.0366
     39 H           4.8370   -0.0250   -1.1891 H       1  UNL1        0.0366
     40 H           2.5997    1.4332   -1.4398 H       1  UNL1        0.1490
     41 H           0.4556   -0.6999   -1.0121 H       1  UNL1        0.0498
     42 H           1.0149    0.3791    1.1407 H       1  UNL1        0.0283
     43 H           0.7397    1.9634    0.3996 H       1  UNL1        0.0283
     44 H          -1.2319   -0.1461    1.2086 H       1  UNL1        0.0273
     45 H          -1.1865    1.5812    1.5802 H       1  UNL1        0.0273
     46 H          -2.1353    2.1399   -0.4725 H       1  UNL1        0.0396
     47 H          -6.5274    2.7953    0.8471 H       1  UNL1        0.0625
     48 H          -8.8937    3.3324    1.4578 H       1  UNL1        0.0618
     49 H         -10.5180    1.5684    1.8761 H       1  UNL1        0.0618
     50 H          -9.7671   -0.7892    1.6817 H       1  UNL1        0.0618
     51 H          -7.4479   -1.3154    1.0843 H       1  UNL1        0.0625
     52 H          -1.4521   -0.6329   -1.5226 H       1  UNL1        0.0273
     53 H          -2.3696    0.6789   -2.4305 H       1  UNL1        0.0273
     54 H           0.0636    0.6048   -3.0378 H       1  UNL1        0.0283
     55 H          -0.2743    2.0943   -1.9890 H       1  UNL1        0.0283
@<TRIPOS>BOND
     1     1     2    1
     2     2     3   ar
     3     3     4   ar
     4     4     5    2
     5     4     6   ar
     6     6     7   ar
     7     7     8    1
     8     8     9    1
     9     9    10    1
    10    10    11    1
    11    11    12    2
    12    11    13   am
    13    13    14    1
    14    14    15    1
    15    15    16    1
    16    16    17    1
    17    17    18    1
    18    18    19   ar
    19    19    20   ar
    20    20    21   ar
    21    21    22    1
    22    22    23   ar
    23    23    24   ar
    24    24    25   ar
    25    25    26   ar
    26    26    27   ar
    27    21    28   ar
    28    17    29    1
    29    29    30    1
    30     7    31   ar
    31    31     2   ar
    32    30    14    1
    33    28    18   ar
    34    27    22   ar
    35     1    32    1
    36     1    33    1
    37     3    34    1
    38     6    35    1
    39     9    36    1
    40     9    37    1
    41    10    38    1
    42    10    39    1
    43    13    40    1
    44    14    41    1
    45    15    42    1
    46    15    43    1
    47    16    44    1
    48    16    45    1
    49    17    46    1
    50    23    47    1
    51    24    48    1
    52    25    49    1
    53    26    50    1
    54    27    51    1
    55    29    52    1
    56    29    53    1
    57    30    54    1
    58    30    55    1
