
     RDKit          3D

 55 58  0  0  0  0  0  0  0  0999 V2000
    5.5792    0.2542    3.0889 N   0  0  0  0  0  0  0  0  0  0  0  0
    6.1213   -0.7252    2.2126 C   0  0  0  0  0  0  0  0  0  0  0  0
    7.4080   -1.1535    2.3169 C   0  0  0  0  0  0  0  0  0  0  0  0
    7.8810   -2.1111    1.4375 C   0  0  0  0  0  0  0  0  0  0  0  0
    9.0554   -2.5537    1.4735 O   0  0  0  0  0  0  0  0  0  0  0  0
    7.0611   -2.5952    0.5028 N   0  0  0  0  0  0  0  0  0  0  0  0
    5.7914   -2.1674    0.4055 C   0  0  0  0  0  0  0  0  0  0  0  0
    4.7697   -2.8731   -0.8771 S   0  0  0  0  0  0  0  0  0  0  0  0
    4.9450   -1.8522   -2.3640 C   0  0  0  0  0  0  0  0  0  0  0  0
    4.3390   -0.4918   -2.0473 C   0  0  0  0  0  0  0  0  0  0  0  0
    2.8948   -0.6488   -1.6798 C   0  0  0  0  0  0  0  0  0  0  0  0
    2.3249   -1.7683   -1.6191 O   0  0  0  0  0  0  0  0  0  0  0  0
    2.0943    0.4997   -1.3777 N   0  0  0  0  0  0  0  0  0  0  0  0
    0.7026    0.3929   -1.0185 C   0  0  1  0  0  0  0  0  0  0  0  0
    0.4059    0.8920    0.3725 C   0  0  0  0  0  0  0  0  0  0  0  0
   -1.0244    0.8407    0.7451 C   0  0  0  0  0  0  0  0  0  0  0  0
   -2.0115    1.0404   -0.3668 C   0  0  2  0  0  0  0  0  0  0  0  0
   -3.3677    0.5138    0.0035 C   0  0  0  0  0  0  0  0  0  0  0  0
   -3.6929   -0.7855    0.1110 N   0  0  0  0  0  0  0  0  0  0  0  0
   -4.9721   -0.9038    0.4543 N   0  0  0  0  0  0  0  0  0  0  0  0
   -5.4493    0.3603    0.5617 C   0  0  0  0  0  0  0  0  0  0  0  0
   -6.8246    0.7083    0.9238 C   0  0  0  0  0  0  0  0  0  0  0  0
   -7.2405    2.0175    1.0313 C   0  0  0  0  0  0  0  0  0  0  0  0
   -8.5550    2.3006    1.3709 C   0  0  0  0  0  0  0  0  0  0  0  0
   -9.4929    1.3142    1.6127 C   0  0  0  0  0  0  0  0  0  0  0  0
   -9.0637    0.0051    1.5019 C   0  0  0  0  0  0  0  0  0  0  0  0
   -7.7572   -0.2778    1.1646 C   0  0  0  0  0  0  0  0  0  0  0  0
   -4.4670    1.1689    0.2865 O   0  0  0  0  0  0  0  0  0  0  0  0
   -1.6085    0.4727   -1.6808 C   0  0  0  0  0  0  0  0  0  0  0  0
   -0.2272    1.0012   -2.0447 C   0  0  0  0  0  0  0  0  0  0  0  0
    5.3293   -1.2402    1.2550 N   0  0  0  0  0  0  0  0  0  0  0  0
    4.7670    0.0802    3.6934 H   0  0  0  0  0  0  0  0  0  0  0  0
    6.0091    1.2013    3.1377 H   0  0  0  0  0  0  0  0  0  0  0  0
    8.0855   -0.7780    3.0629 H   0  0  0  0  0  0  0  0  0  0  0  0
    7.4313   -3.3313   -0.1696 H   0  0  0  0  0  0  0  0  0  0  0  0
    6.0185   -1.6919   -2.5919 H   0  0  0  0  0  0  0  0  0  0  0  0
    4.3810   -2.2610   -3.2160 H   0  0  0  0  0  0  0  0  0  0  0  0
    4.4521    0.1832   -2.9188 H   0  0  0  0  0  0  0  0  0  0  0  0
    4.8370   -0.0250   -1.1891 H   0  0  0  0  0  0  0  0  0  0  0  0
    2.5997    1.4332   -1.4398 H   0  0  0  0  0  0  0  0  0  0  0  0
    0.4556   -0.6999   -1.0121 H   0  0  0  0  0  0  0  0  0  0  0  0
    1.0149    0.3791    1.1407 H   0  0  0  0  0  0  0  0  0  0  0  0
    0.7397    1.9634    0.3996 H   0  0  0  0  0  0  0  0  0  0  0  0
   -1.2319   -0.1461    1.2086 H   0  0  0  0  0  0  0  0  0  0  0  0
   -1.1865    1.5812    1.5802 H   0  0  0  0  0  0  0  0  0  0  0  0
   -2.1353    2.1399   -0.4725 H   0  0  0  0  0  0  0  0  0  0  0  0
   -6.5274    2.7953    0.8471 H   0  0  0  0  0  0  0  0  0  0  0  0
   -8.8937    3.3324    1.4578 H   0  0  0  0  0  0  0  0  0  0  0  0
  -10.5180    1.5684    1.8761 H   0  0  0  0  0  0  0  0  0  0  0  0
   -9.7671   -0.7892    1.6817 H   0  0  0  0  0  0  0  0  0  0  0  0
   -7.4479   -1.3154    1.0843 H   0  0  0  0  0  0  0  0  0  0  0  0
   -1.4521   -0.6329   -1.5226 H   0  0  0  0  0  0  0  0  0  0  0  0
   -2.3696    0.6789   -2.4305 H   0  0  0  0  0  0  0  0  0  0  0  0
    0.0636    0.6048   -3.0378 H   0  0  0  0  0  0  0  0  0  0  0  0
   -0.2743    2.0943   -1.9890 H   0  0  0  0  0  0  0  0  0  0  0  0
  1  2  1  0
  2  3  2  0
  3  4  1  0
  4  5  2  0
  4  6  1  0
  6  7  1  0
  7  8  1  0
  8  9  1  0
  9 10  1  0
 10 11  1  0
 11 12  2  0
 11 13  1  0
 13 14  1  0
 14 15  1  0
 15 16  1  0
 16 17  1  0
 17 18  1  0
 18 19  2  0
 19 20  1  0
 20 21  2  0
 21 22  1  0
 22 23  2  0
 23 24  1  0
 24 25  2  0
 25 26  1  0
 26 27  2  0
 21 28  1  0
 17 29  1  0
 29 30  1  0
  7 31  2  0
 31  2  1  0
 30 14  1  0
 28 18  1  0
 27 22  1  0
  1 32  1  0
  1 33  1  0
  3 34  1  0
  6 35  1  0
  9 36  1  0
  9 37  1  0
 10 38  1  0
 10 39  1  0
 13 40  1  0
 14 41  1  1
 15 42  1  0
 15 43  1  0
 16 44  1  0
 16 45  1  0
 17 46  1  6
 23 47  1  0
 24 48  1  0
 25 49  1  0
 26 50  1  0
 27 51  1  0
 29 52  1  0
 29 53  1  0
 30 54  1  0
 30 55  1  0
M  END
$$$$
