@<TRIPOS>MOLECULE
*****
 68 72 0 0 0
SMALL
GASTEIGER

@<TRIPOS>ATOM
      1 C          -4.4640   -4.3243    1.8398 C.3     1  UNL1        0.0003
      2 N          -4.2843   -3.8836    0.4911 N.pl3   1  UNL1       -0.3165
      3 C          -3.4787   -2.7514    0.2042 C.ar    1  UNL1        0.2172
      4 N          -4.0681   -1.5464    0.1706 N.ar    1  UNL1       -0.2144
      5 C          -3.3692   -0.4099   -0.0948 C.ar    1  UNL1        0.0779
      6 C          -4.0705    0.8642   -0.1189 C.ar    1  UNL1        0.0026
      7 C          -5.4250    0.9113    0.1248 C.ar    1  UNL1       -0.0518
      8 C          -6.1431    2.1038    0.1109 C.ar    1  UNL1       -0.0486
      9 C          -5.5107    3.2867   -0.1503 C.ar    1  UNL1        0.0410
     10 C          -5.9600    4.5925   -0.2281 C.ar    1  UNL1        0.1456
     11 N          -7.2820    5.0835   -0.0451 N.pl3   1  UNL1       -0.3413
     12 N          -4.8620    5.3324   -0.5214 N.ar    1  UNL1       -0.1581
     13 N          -3.8114    4.5419   -0.6175 N.ar    1  UNL1       -0.2752
     14 C          -4.1542    3.2644   -0.3972 C.ar    1  UNL1        0.0682
     15 C          -3.4401    2.0584   -0.3812 C.ar    1  UNL1       -0.0270
     16 C          -2.0239   -0.5573   -0.3279 C.ar    1  UNL1        0.0045
     17 C          -1.3725   -1.7851   -0.3032 C.ar    1  UNL1        0.1272
     18 N           0.0035   -1.9514   -0.5407 N.pl3   1  UNL1       -0.3115
     19 C           0.9401   -0.9211   -0.8298 C.3     1  UNL1        0.0249
     20 C           2.1136   -1.2859   -1.6604 C.3     1  UNL1        0.0513
     21 C           3.3433   -0.9904   -0.8802 C.2     1  UNL1        0.2178
     22 O           4.1419   -1.9244   -0.6369 O.2     1  UNL1       -0.2755
     23 N           3.6845    0.2924   -0.3823 N.am    1  UNL1       -0.3122
     24 C           4.9219    0.5146    0.3837 C.3     1  UNL1        0.0231
     25 C           5.7892    1.4478   -0.3824 C.3     1  UNL1       -0.0345
     26 C           5.7092    2.8789    0.0222 C.3     1  UNL1       -0.0514
     27 C           5.9081    2.9431    1.5389 C.3     1  UNL1       -0.0529
     28 C           4.6529    2.3214    2.1281 C.3     1  UNL1       -0.0514
     29 C           4.6440    0.8757    1.7983 C.3     1  UNL1       -0.0345
     30 C           2.1903   -2.6652   -2.1666 C.3     1  UNL1       -0.0388
     31 C           1.0749   -3.5893   -1.8703 C.3     1  UNL1       -0.0338
     32 C           0.5359   -3.3227   -0.4871 C.3     1  UNL1        0.0221
     33 C           1.5349   -3.4832    0.6088 C.3     1  UNL1       -0.0465
     34 N          -2.1673   -2.8427   -0.0293 N.ar    1  UNL1       -0.1995
     35 H          -5.3853   -3.9346    2.2779 H       1  UNL1        0.0426
     36 H          -3.5653   -4.0539    2.4617 H       1  UNL1        0.0426
     37 H          -4.5061   -5.4262    1.8476 H       1  UNL1        0.0426
     38 H          -4.7354   -4.3773   -0.3000 H       1  UNL1        0.1486
     39 H          -5.9469   -0.0171    0.3342 H       1  UNL1        0.0624
     40 H          -7.2078    2.1373    0.3030 H       1  UNL1        0.0625
     41 H          -8.1189    4.6136   -0.4740 H       1  UNL1        0.1438
     42 H          -7.4788    5.9322    0.5241 H       1  UNL1        0.1438
     43 H          -2.8509    4.8644   -0.8343 H       1  UNL1        0.1890
     44 H          -2.3945    2.0970   -0.5782 H       1  UNL1        0.0645
     45 H          -1.4520    0.3141   -0.5366 H       1  UNL1        0.0673
     46 H           0.3709   -0.0655   -1.2998 H       1  UNL1        0.0472
     47 H           1.2497   -0.4852    0.1659 H       1  UNL1        0.0472
     48 H           2.1563   -0.5555   -2.5274 H       1  UNL1        0.0410
     49 H           3.0303    1.0777   -0.5754 H       1  UNL1        0.1490
     50 H           5.4695   -0.4762    0.4236 H       1  UNL1        0.0498
     51 H           6.8528    1.1311   -0.3382 H       1  UNL1        0.0283
     52 H           5.4988    1.3956   -1.4730 H       1  UNL1        0.0283
     53 H           6.5063    3.4334   -0.4977 H       1  UNL1        0.0266
     54 H           4.6974    3.3056   -0.1588 H       1  UNL1        0.0266
     55 H           6.0649    3.9750    1.8920 H       1  UNL1        0.0265
     56 H           6.7935    2.3242    1.7653 H       1  UNL1        0.0265
     57 H           4.7236    2.4376    3.2277 H       1  UNL1        0.0266
     58 H           3.7985    2.8666    1.6827 H       1  UNL1        0.0266
     59 H           5.3467    0.3584    2.5100 H       1  UNL1        0.0283
     60 H           3.6320    0.4715    2.0817 H       1  UNL1        0.0283
     61 H           3.1390   -3.1828   -1.8334 H       1  UNL1        0.0274
     62 H           2.3061   -2.6437   -3.2905 H       1  UNL1        0.0274
     63 H           0.2278   -3.4496   -2.5731 H       1  UNL1        0.0283
     64 H           1.4140   -4.6344   -1.9065 H       1  UNL1        0.0283
     65 H          -0.2909   -4.0682   -0.3152 H       1  UNL1        0.0497
     66 H           1.0838   -4.0498    1.4654 H       1  UNL1        0.0248
     67 H           1.7755   -2.4758    1.0511 H       1  UNL1        0.0248
     68 H           2.4944   -3.9181    0.2887 H       1  UNL1        0.0248
@<TRIPOS>BOND
     1     1     2    1
     2     2     3    1
     3     3     4   ar
     4     4     5   ar
     5     5     6    1
     6     6     7   ar
     7     7     8   ar
     8     8     9   ar
     9     9    10   ar
    10    10    11    1
    11    10    12   ar
    12    12    13   ar
    13    13    14   ar
    14    14    15   ar
    15     5    16   ar
    16    16    17   ar
    17    17    18    1
    18    18    19    1
    19    19    20    1
    20    20    21    1
    21    21    22    2
    22    21    23   am
    23    23    24    1
    24    24    25    1
    25    25    26    1
    26    26    27    1
    27    27    28    1
    28    28    29    1
    29    20    30    1
    30    30    31    1
    31    31    32    1
    32    32    33    1
    33    17    34   ar
    34    34     3   ar
    35    15     6   ar
    36    32    18    1
    37    14     9   ar
    38    29    24    1
    39     1    35    1
    40     1    36    1
    41     1    37    1
    42     2    38    1
    43     7    39    1
    44     8    40    1
    45    11    41    1
    46    11    42    1
    47    13    43    1
    48    15    44    1
    49    16    45    1
    50    19    46    1
    51    19    47    1
    52    20    48    1
    53    23    49    1
    54    24    50    1
    55    25    51    1
    56    25    52    1
    57    26    53    1
    58    26    54    1
    59    27    55    1
    60    27    56    1
    61    28    57    1
    62    28    58    1
    63    29    59    1
    64    29    60    1
    65    30    61    1
    66    30    62    1
    67    31    63    1
    68    31    64    1
    69    32    65    1
    70    33    66    1
    71    33    67    1
    72    33    68    1
