
     RDKit          3D

 61 65  0  0  0  0  0  0  0  0999 V2000
   -7.2206    2.6972   -2.5147 C   0  0  0  0  0  0  0  0  0  0  0  0
   -6.5462    1.8709   -1.5232 N   0  0  0  0  0  0  0  0  0  0  0  0
   -5.2544    1.5898   -1.5648 N   0  0  0  0  0  0  0  0  0  0  0  0
   -4.8859    0.8214   -0.5496 C   0  0  0  0  0  0  0  0  0  0  0  0
   -3.5835    0.3042   -0.2402 N   0  0  0  0  0  0  0  0  0  0  0  0
   -2.5201    0.6484   -1.1378 C   0  0  0  0  0  0  0  0  0  0  0  0
   -1.2604    0.0220   -0.6326 C   0  0  0  0  0  0  0  0  0  0  0  0
   -1.2664   -0.6660    0.4185 O   0  0  0  0  0  0  0  0  0  0  0  0
   -0.0181    0.1669   -1.2972 N   0  0  0  0  0  0  0  0  0  0  0  0
    1.1598   -0.4461   -0.7817 C   0  0  0  0  0  0  0  0  0  0  0  0
    2.3185    0.5264   -0.8576 C   0  0  0  0  0  0  0  0  0  0  0  0
    3.1545   -0.6127   -1.1897 N   0  0  0  0  0  0  0  0  0  0  0  0
    3.7274   -1.1606    0.0019 C   0  0  1  0  0  0  0  0  0  0  0  0
    4.6165   -2.3499   -0.2469 C   0  0  0  0  0  0  0  0  0  0  0  0
    5.9852   -1.9354   -0.7444 C   0  0  0  0  0  0  0  0  0  0  0  0
    6.7297   -1.2091    0.3482 C   0  0  1  0  0  0  0  0  0  0  0  0
    7.6827   -0.2932   -0.2400 C   0  0  0  0  0  0  0  0  0  0  0  0
    7.5699    0.7974   -1.0919 C   0  0  0  0  0  0  0  0  0  0  0  0
    8.7058    1.3740   -1.3960 N   0  0  0  0  0  0  0  0  0  0  0  0
    9.7881    1.1436   -1.0865 C   0  0  0  0  0  0  0  0  0  0  0  0
    9.4742   -0.3565    0.0280 S   0  0  0  0  0  0  0  0  0  0  0  0
    5.8077   -0.5064    1.2788 C   0  0  0  0  0  0  0  0  0  0  0  0
    4.5295   -0.0698    0.6581 C   0  0  0  0  0  0  0  0  0  0  0  0
    2.0008   -1.2260   -1.7573 C   0  0  0  0  0  0  0  0  0  0  0  0
   -6.0017    0.5769    0.2136 C   0  0  0  0  0  0  0  0  0  0  0  0
   -6.2412   -0.1447    1.3745 C   0  0  0  0  0  0  0  0  0  0  0  0
   -7.5127   -0.1966    1.9040 C   0  0  0  0  0  0  0  0  0  0  0  0
   -7.8032   -0.9630    3.1486 C   0  0  0  0  0  0  0  0  0  0  0  0
   -9.0576   -0.5505    3.5927 F   0  0  0  0  0  0  0  0  0  0  0  0
   -7.9114   -2.2994    2.8319 F   0  0  0  0  0  0  0  0  0  0  0  0
   -6.8553   -0.7196    4.1068 F   0  0  0  0  0  0  0  0  0  0  0  0
   -8.5099    0.4947    1.2285 C   0  0  0  0  0  0  0  0  0  0  0  0
   -8.2899    1.2083    0.0866 C   0  0  0  0  0  0  0  0  0  0  0  0
   -7.0250    1.2576   -0.4370 C   0  0  0  0  0  0  0  0  0  0  0  0
   -8.2742    2.7973   -2.2519 H   0  0  0  0  0  0  0  0  0  0  0  0
   -7.1562    2.2488   -3.5299 H   0  0  0  0  0  0  0  0  0  0  0  0
   -6.6682    3.6601   -2.5360 H   0  0  0  0  0  0  0  0  0  0  0  0
   -3.4198   -0.2828    0.5817 H   0  0  0  0  0  0  0  0  0  0  0  0
   -2.3965    1.7562   -1.1796 H   0  0  0  0  0  0  0  0  0  0  0  0
   -2.6923    0.2964   -2.1855 H   0  0  0  0  0  0  0  0  0  0  0  0
    0.0121    0.7312   -2.1689 H   0  0  0  0  0  0  0  0  0  0  0  0
    1.0586   -1.0163    0.1521 H   0  0  0  0  0  0  0  0  0  0  0  0
    2.2167    1.1666   -1.7549 H   0  0  0  0  0  0  0  0  0  0  0  0
    2.5746    1.0466    0.0769 H   0  0  0  0  0  0  0  0  0  0  0  0
    2.9599   -1.4922    0.7489 H   0  0  0  0  0  0  0  0  0  0  0  0
    4.7699   -2.8533    0.7325 H   0  0  0  0  0  0  0  0  0  0  0  0
    4.1957   -3.0839   -0.9299 H   0  0  0  0  0  0  0  0  0  0  0  0
    6.5155   -2.8665   -1.0348 H   0  0  0  0  0  0  0  0  0  0  0  0
    5.8115   -1.2725   -1.6277 H   0  0  0  0  0  0  0  0  0  0  0  0
    7.2860   -1.9741    0.9480 H   0  0  0  0  0  0  0  0  0  0  0  0
    6.5719    1.1502   -1.4870 H   0  0  0  0  0  0  0  0  0  0  0  0
   10.8795    1.4170   -1.1634 H   0  0  0  0  0  0  0  0  0  0  0  0
    5.5807   -1.1371    2.1887 H   0  0  0  0  0  0  0  0  0  0  0  0
    6.2888    0.4063    1.7044 H   0  0  0  0  0  0  0  0  0  0  0  0
    3.9336    0.4243    1.4878 H   0  0  0  0  0  0  0  0  0  0  0  0
    4.7119    0.7892   -0.0472 H   0  0  0  0  0  0  0  0  0  0  0  0
    1.9206   -2.3229   -1.6899 H   0  0  0  0  0  0  0  0  0  0  0  0
    1.8691   -0.9145   -2.8160 H   0  0  0  0  0  0  0  0  0  0  0  0
   -5.4440   -0.6728    1.8783 H   0  0  0  0  0  0  0  0  0  0  0  0
   -9.5150    0.4632    1.6327 H   0  0  0  0  0  0  0  0  0  0  0  0
   -9.0768    1.7410   -0.4274 H   0  0  0  0  0  0  0  0  0  0  0  0
  1  2  1  0
  2  3  1  0
  3  4  2  0
  4  5  1  0
  5  6  1  0
  6  7  1  0
  7  8  2  0
  7  9  1  0
  9 10  1  0
 10 11  1  0
 11 12  1  0
 12 13  1  0
 13 14  1  0
 14 15  1  0
 15 16  1  0
 16 17  1  0
 17 18  2  0
 18 19  1  0
 19 20  2  0
 20 21  1  0
 16 22  1  0
 22 23  1  0
 12 24  1  0
  4 25  1  0
 25 26  2  0
 26 27  1  0
 27 28  1  0
 28 29  1  0
 28 30  1  0
 28 31  1  0
 27 32  2  0
 32 33  1  0
 33 34  2  0
 34  2  1  0
 24 10  1  0
 34 25  1  0
 23 13  1  0
 21 17  1  0
  1 35  1  0
  1 36  1  0
  1 37  1  0
  5 38  1  0
  6 39  1  0
  6 40  1  0
  9 41  1  0
 10 42  1  0
 11 43  1  0
 11 44  1  0
 13 45  1  1
 14 46  1  0
 14 47  1  0
 15 48  1  0
 15 49  1  0
 16 50  1  1
 18 51  1  0
 20 52  1  0
 22 53  1  0
 22 54  1  0
 23 55  1  0
 23 56  1  0
 24 57  1  0
 24 58  1  0
 26 59  1  0
 32 60  1  0
 33 61  1  0
M  END
$$$$
