@<TRIPOS>MOLECULE
*****
 61 65 0 0 0
SMALL
GASTEIGER

@<TRIPOS>ATOM
      1 C          -7.2206    2.6972   -2.5147 C.3     1  UNL1        0.0309
      2 N          -6.5462    1.8709   -1.5232 N.ar    1  UNL1       -0.2650
      3 N          -5.2544    1.5898   -1.5648 N.ar    1  UNL1       -0.1554
      4 C          -4.8859    0.8214   -0.5496 C.ar    1  UNL1        0.1488
      5 N          -3.5835    0.3042   -0.2402 N.pl3   1  UNL1       -0.3186
      6 C          -2.5201    0.6484   -1.1378 C.3     1  UNL1        0.0870
      7 C          -1.2604    0.0220   -0.6326 C.2     1  UNL1        0.2305
      8 O          -1.2664   -0.6660    0.4185 O.2     1  UNL1       -0.2741
      9 N          -0.0181    0.1669   -1.2972 N.am    1  UNL1       -0.3087
     10 C           1.1598   -0.4461   -0.7817 C.3     1  UNL1        0.0486
     11 C           2.3185    0.5264   -0.8576 C.3     1  UNL1        0.0189
     12 N           3.1545   -0.6127   -1.1897 N.3     1  UNL1       -0.2958
     13 C           3.7274   -1.1606    0.0019 C.3     1  UNL1        0.0106
     14 C           4.6165   -2.3499   -0.2469 C.3     1  UNL1       -0.0368
     15 C           5.9852   -1.9354   -0.7444 C.3     1  UNL1       -0.0443
     16 C           6.7297   -1.2091    0.3482 C.3     1  UNL1       -0.0080
     17 C           7.6827   -0.2932   -0.2400 C.ar    1  UNL1        0.0123
     18 C           7.5699    0.7974   -1.0919 C.ar    1  UNL1        0.0381
     19 N           8.7058    1.3740   -1.3960 N.ar    1  UNL1       -0.2554
     20 C           9.7881    1.1436   -1.0865 C.ar    1  UNL1        0.0649
     21 S           9.4742   -0.3565    0.0280 S.2     1  UNL1       -0.0801
     22 C           5.8077   -0.5064    1.2788 C.3     1  UNL1       -0.0443
     23 C           4.5295   -0.0698    0.6581 C.3     1  UNL1       -0.0368
     24 C           2.0008   -1.2260   -1.7573 C.3     1  UNL1        0.0189
     25 C          -6.0017    0.5769    0.2136 C.ar    1  UNL1        0.0419
     26 C          -6.2412   -0.1447    1.3745 C.ar    1  UNL1       -0.0376
     27 C          -7.5127   -0.1966    1.9040 C.ar    1  UNL1        0.0556
     28 C          -7.8032   -0.9630    3.1486 C.3     1  UNL1        0.4174
     29 F          -9.0576   -0.5505    3.5927 F       1  UNL1       -0.1659
     30 F          -7.9114   -2.2994    2.8319 F       1  UNL1       -0.1659
     31 F          -6.8553   -0.7196    4.1068 F       1  UNL1       -0.1659
     32 C          -8.5099    0.4947    1.2285 C.ar    1  UNL1       -0.0481
     33 C          -8.2899    1.2083    0.0866 C.ar    1  UNL1       -0.0355
     34 C          -7.0250    1.2576   -0.4370 C.ar    1  UNL1        0.0705
     35 H          -8.2742    2.7973   -2.2519 H       1  UNL1        0.0473
     36 H          -7.1562    2.2488   -3.5299 H       1  UNL1        0.0473
     37 H          -6.6682    3.6601   -2.5360 H       1  UNL1        0.0473
     38 H          -3.4198   -0.2828    0.5817 H       1  UNL1        0.1480
     39 H          -2.3965    1.7562   -1.1796 H       1  UNL1        0.0557
     40 H          -2.6923    0.2964   -2.1855 H       1  UNL1        0.0557
     41 H           0.0121    0.7312   -2.1689 H       1  UNL1        0.1491
     42 H           1.0586   -1.0163    0.1521 H       1  UNL1        0.0523
     43 H           2.2167    1.1666   -1.7549 H       1  UNL1        0.0445
     44 H           2.5746    1.0466    0.0769 H       1  UNL1        0.0445
     45 H           2.9599   -1.4922    0.7489 H       1  UNL1        0.0462
     46 H           4.7699   -2.8533    0.7325 H       1  UNL1        0.0280
     47 H           4.1957   -3.0839   -0.9299 H       1  UNL1        0.0280
     48 H           6.5155   -2.8665   -1.0348 H       1  UNL1        0.0272
     49 H           5.8115   -1.2725   -1.6277 H       1  UNL1        0.0272
     50 H           7.2860   -1.9741    0.9480 H       1  UNL1        0.0354
     51 H           6.5719    1.1502   -1.4870 H       1  UNL1        0.0838
     52 H          10.8795    1.4170   -1.1634 H       1  UNL1        0.0907
     53 H           5.5807   -1.1371    2.1887 H       1  UNL1        0.0272
     54 H           6.2888    0.4063    1.7044 H       1  UNL1        0.0272
     55 H           3.9336    0.4243    1.4878 H       1  UNL1        0.0280
     56 H           4.7119    0.7892   -0.0472 H       1  UNL1        0.0280
     57 H           1.9206   -2.3229   -1.6899 H       1  UNL1        0.0445
     58 H           1.8691   -0.9145   -2.8160 H       1  UNL1        0.0445
     59 H          -5.4440   -0.6728    1.8783 H       1  UNL1        0.0631
     60 H          -9.5150    0.4632    1.6327 H       1  UNL1        0.0624
     61 H          -9.0768    1.7410   -0.4274 H       1  UNL1        0.0639
@<TRIPOS>BOND
     1     1     2    1
     2     2     3   ar
     3     3     4   ar
     4     4     5    1
     5     5     6    1
     6     6     7    1
     7     7     8    2
     8     7     9   am
     9     9    10    1
    10    10    11    1
    11    11    12    1
    12    12    13    1
    13    13    14    1
    14    14    15    1
    15    15    16    1
    16    16    17    1
    17    17    18   ar
    18    18    19   ar
    19    19    20   ar
    20    20    21   ar
    21    16    22    1
    22    22    23    1
    23    12    24    1
    24     4    25   ar
    25    25    26   ar
    26    26    27   ar
    27    27    28    1
    28    28    29    1
    29    28    30    1
    30    28    31    1
    31    27    32   ar
    32    32    33   ar
    33    33    34   ar
    34    34     2   ar
    35    24    10    1
    36    34    25   ar
    37    23    13    1
    38    21    17   ar
    39     1    35    1
    40     1    36    1
    41     1    37    1
    42     5    38    1
    43     6    39    1
    44     6    40    1
    45     9    41    1
    46    10    42    1
    47    11    43    1
    48    11    44    1
    49    13    45    1
    50    14    46    1
    51    14    47    1
    52    15    48    1
    53    15    49    1
    54    16    50    1
    55    18    51    1
    56    20    52    1
    57    22    53    1
    58    22    54    1
    59    23    55    1
    60    23    56    1
    61    24    57    1
    62    24    58    1
    63    26    59    1
    64    32    60    1
    65    33    61    1
