
     RDKit          3D

 50 54  0  0  0  0  0  0  0  0999 V2000
   -6.4802    3.4660   -0.7525 C   0  0  0  0  0  0  0  0  0  0  0  0
   -6.8762    2.1156   -0.7988 O   0  0  0  0  0  0  0  0  0  0  0  0
   -6.0553    1.1333   -1.3006 C   0  0  0  0  0  0  0  0  0  0  0  0
   -6.4512   -0.1929   -1.3428 C   0  0  0  0  0  0  0  0  0  0  0  0
   -5.6607   -1.1847   -1.8328 C   0  0  0  0  0  0  0  0  0  0  0  0
   -4.3958   -0.8531   -2.3141 C   0  0  0  0  0  0  0  0  0  0  0  0
   -3.5392   -1.8860   -2.8705 C   0  0  0  0  0  0  0  0  0  0  0  0
   -3.8736   -2.7700   -3.8272 N   0  0  0  0  0  0  0  0  0  0  0  0
   -2.8750   -3.5637   -4.0699 O   0  0  0  0  0  0  0  0  0  0  0  0
   -1.8372   -3.2820   -3.3222 C   0  0  0  0  0  0  0  0  0  0  0  0
   -0.6002   -3.7696   -3.1728 N   0  0  0  0  0  0  0  0  0  0  0  0
    0.2442   -3.2273   -2.2769 C   0  0  0  0  0  0  0  0  0  0  0  0
   -0.1051   -2.1875   -1.5002 N   0  0  0  0  0  0  0  0  0  0  0  0
    0.7581   -1.5874   -0.5427 C   0  0  0  0  0  0  0  0  0  0  0  0
    0.3652   -1.2633    0.7395 C   0  0  0  0  0  0  0  0  0  0  0  0
    1.2552   -0.6828    1.6188 C   0  0  0  0  0  0  0  0  0  0  0  0
    2.5702   -0.3933    1.2829 C   0  0  0  0  0  0  0  0  0  0  0  0
    3.4571    0.2243    2.2691 C   0  0  0  0  0  0  0  0  0  0  0  0
    2.9792    0.4844    3.3941 O   0  0  0  0  0  0  0  0  0  0  0  0
    4.8027    0.5368    2.0209 N   0  0  0  0  0  0  0  0  0  0  0  0
    5.7306    1.1304    2.9035 C   0  0  0  0  0  0  0  0  0  0  0  0
    5.4733    1.5228    4.1786 C   0  0  0  0  0  0  0  0  0  0  0  0
    6.4470    2.1073    5.0069 C   0  0  0  0  0  0  0  0  0  0  0  0
    7.6987    2.2732    4.4721 C   0  0  0  0  0  0  0  0  0  0  0  0
    7.9797    1.8824    3.1827 C   0  0  0  0  0  0  0  0  0  0  0  0
    7.0068    1.3333    2.4504 N   0  0  0  0  0  0  0  0  0  0  0  0
    2.9509   -0.7210    0.0016 C   0  0  0  0  0  0  0  0  0  0  0  0
    2.0680   -1.3016   -0.8846 C   0  0  0  0  0  0  0  0  0  0  0  0
   -1.3407   -1.6792   -1.6309 C   0  0  0  0  0  0  0  0  0  0  0  0
   -1.6851   -0.7118   -0.9136 O   0  0  0  0  0  0  0  0  0  0  0  0
   -2.2440   -2.1954   -2.5335 C   0  0  0  0  0  0  0  0  0  0  0  0
   -4.0251    0.4757   -2.2619 C   0  0  0  0  0  0  0  0  0  0  0  0
   -4.8096    1.4914   -1.7702 C   0  0  0  0  0  0  0  0  0  0  0  0
   -7.3971    4.0696   -0.5531 H   0  0  0  0  0  0  0  0  0  0  0  0
   -6.0493    3.8124   -1.7098 H   0  0  0  0  0  0  0  0  0  0  0  0
   -5.7266    3.6322    0.0567 H   0  0  0  0  0  0  0  0  0  0  0  0
   -7.4366   -0.4440   -0.9667 H   0  0  0  0  0  0  0  0  0  0  0  0
   -5.9443   -2.2260   -1.8774 H   0  0  0  0  0  0  0  0  0  0  0  0
    1.2512   -3.6130   -2.1455 H   0  0  0  0  0  0  0  0  0  0  0  0
   -0.6581   -1.4775    1.0350 H   0  0  0  0  0  0  0  0  0  0  0  0
    0.8988   -0.4436    2.6234 H   0  0  0  0  0  0  0  0  0  0  0  0
    5.1417    0.2832    1.0331 H   0  0  0  0  0  0  0  0  0  0  0  0
    4.4979    1.3980    4.6061 H   0  0  0  0  0  0  0  0  0  0  0  0
    6.1754    2.4002    6.0210 H   0  0  0  0  0  0  0  0  0  0  0  0
    8.4836    2.7220    5.0789 H   0  0  0  0  0  0  0  0  0  0  0  0
    8.9895    2.0265    2.7803 H   0  0  0  0  0  0  0  0  0  0  0  0
    3.9505   -0.5319   -0.3433 H   0  0  0  0  0  0  0  0  0  0  0  0
    2.3740   -1.5602   -1.9009 H   0  0  0  0  0  0  0  0  0  0  0  0
   -3.0517    0.7277   -2.6567 H   0  0  0  0  0  0  0  0  0  0  0  0
   -4.4315    2.5000   -1.7706 H   0  0  0  0  0  0  0  0  0  0  0  0
  1  2  1  0
  2  3  1  0
  3  4  2  0
  4  5  1  0
  5  6  2  0
  6  7  1  0
  7  8  2  0
  8  9  1  0
  9 10  1  0
 10 11  1  0
 11 12  2  0
 12 13  1  0
 13 14  1  0
 14 15  2  0
 15 16  1  0
 16 17  2  0
 17 18  1  0
 18 19  2  0
 18 20  1  0
 20 21  1  0
 21 22  2  0
 22 23  1  0
 23 24  2  0
 24 25  1  0
 25 26  2  0
 17 27  1  0
 27 28  2  0
 13 29  1  0
 29 30  2  0
 29 31  1  0
  6 32  1  0
 32 33  2  0
 33  3  1  0
 31  7  1  0
 31 10  2  0
 28 14  1  0
 26 21  1  0
  1 34  1  0
  1 35  1  0
  1 36  1  0
  4 37  1  0
  5 38  1  0
 12 39  1  0
 15 40  1  0
 16 41  1  0
 20 42  1  0
 22 43  1  0
 23 44  1  0
 24 45  1  0
 25 46  1  0
 27 47  1  0
 28 48  1  0
 32 49  1  0
 33 50  1  0
M  END
$$$$
