@<TRIPOS>MOLECULE
*****
 50 54 0 0 0
SMALL
GASTEIGER

@<TRIPOS>ATOM
      1 C          -6.4802    3.4660   -0.7525 C.3     1  UNL1        0.0788
      2 O          -6.8762    2.1156   -0.7988 O.3     1  UNL1       -0.4951
      3 C          -6.0553    1.1333   -1.3006 C.ar    1  UNL1        0.1201
      4 C          -6.4512   -0.1929   -1.3428 C.ar    1  UNL1       -0.0193
      5 C          -5.6607   -1.1847   -1.8328 C.ar    1  UNL1       -0.0490
      6 C          -4.3958   -0.8531   -2.3141 C.ar    1  UNL1        0.0047
      7 C          -3.5392   -1.8860   -2.8705 C.ar    1  UNL1        0.1280
      8 N          -3.8736   -2.7700   -3.8272 N.ar    1  UNL1       -0.0750
      9 O          -2.8750   -3.5637   -4.0699 O.2     1  UNL1       -0.3337
     10 C          -1.8372   -3.2820   -3.3222 C.ar    1  UNL1        0.2655
     11 N          -0.6002   -3.7696   -3.1728 N.ar    1  UNL1       -0.1997
     12 C           0.2442   -3.2273   -2.2769 C.ar    1  UNL1        0.1071
     13 N          -0.1051   -2.1875   -1.5002 N.ar    1  UNL1       -0.2668
     14 C           0.7581   -1.5874   -0.5427 C.ar    1  UNL1        0.0509
     15 C           0.3652   -1.2633    0.7395 C.ar    1  UNL1       -0.0370
     16 C           1.2552   -0.6828    1.6188 C.ar    1  UNL1       -0.0477
     17 C           2.5702   -0.3933    1.2829 C.ar    1  UNL1        0.0372
     18 C           3.4571    0.2243    2.2691 C.2     1  UNL1        0.2493
     19 O           2.9792    0.4844    3.3941 O.2     1  UNL1       -0.2698
     20 N           4.8027    0.5368    2.0209 N.am    1  UNL1       -0.2664
     21 C           5.7306    1.1304    2.9035 C.ar    1  UNL1        0.1251
     22 C           5.4733    1.5228    4.1786 C.ar    1  UNL1       -0.0215
     23 C           6.4470    2.1073    5.0069 C.ar    1  UNL1       -0.0571
     24 C           7.6987    2.2732    4.4721 C.ar    1  UNL1       -0.0435
     25 C           7.9797    1.8824    3.1827 C.ar    1  UNL1        0.0297
     26 N           7.0068    1.3333    2.4504 N.ar    1  UNL1       -0.2401
     27 C           2.9509   -0.7210    0.0016 C.ar    1  UNL1       -0.0477
     28 C           2.0680   -1.3016   -0.8846 C.ar    1  UNL1       -0.0370
     29 C          -1.3407   -1.6792   -1.6309 C.ar    1  UNL1        0.2715
     30 O          -1.6851   -0.7118   -0.9136 O.2     1  UNL1       -0.2664
     31 C          -2.2440   -2.1954   -2.5335 C.ar    1  UNL1        0.1331
     32 C          -4.0251    0.4757   -2.2619 C.ar    1  UNL1       -0.0490
     33 C          -4.8096    1.4914   -1.7702 C.ar    1  UNL1       -0.0193
     34 H          -7.3971    4.0696   -0.5531 H       1  UNL1        0.0660
     35 H          -6.0493    3.8124   -1.7098 H       1  UNL1        0.0660
     36 H          -5.7266    3.6322    0.0567 H       1  UNL1        0.0660
     37 H          -7.4366   -0.4440   -0.9667 H       1  UNL1        0.0654
     38 H          -5.9443   -2.2260   -1.8774 H       1  UNL1        0.0625
     39 H           1.2512   -3.6130   -2.1455 H       1  UNL1        0.1034
     40 H          -0.6581   -1.4775    1.0350 H       1  UNL1        0.0638
     41 H           0.8988   -0.4436    2.6234 H       1  UNL1        0.0626
     42 H           5.1417    0.2832    1.0331 H       1  UNL1        0.1566
     43 H           4.4979    1.3980    4.6061 H       1  UNL1        0.0652
     44 H           6.1754    2.4002    6.0210 H       1  UNL1        0.0619
     45 H           8.4836    2.7220    5.0789 H       1  UNL1        0.0633
     46 H           8.9895    2.0265    2.7803 H       1  UNL1        0.0830
     47 H           3.9505   -0.5319   -0.3433 H       1  UNL1        0.0626
     48 H           2.3740   -1.5602   -1.9009 H       1  UNL1        0.0638
     49 H          -3.0517    0.7277   -2.6567 H       1  UNL1        0.0625
     50 H          -4.4315    2.5000   -1.7706 H       1  UNL1        0.0654
@<TRIPOS>BOND
     1     1     2    1
     2     2     3    1
     3     3     4   ar
     4     4     5   ar
     5     5     6   ar
     6     6     7    1
     7     7     8   ar
     8     8     9   ar
     9     9    10   ar
    10    10    11   ar
    11    11    12   ar
    12    12    13   ar
    13    13    14    1
    14    14    15   ar
    15    15    16   ar
    16    16    17   ar
    17    17    18    1
    18    18    19    2
    19    18    20   am
    20    20    21    1
    21    21    22   ar
    22    22    23   ar
    23    23    24   ar
    24    24    25   ar
    25    25    26   ar
    26    17    27   ar
    27    27    28   ar
    28    13    29   ar
    29    29    30    2
    30    29    31   ar
    31     6    32   ar
    32    32    33   ar
    33    33     3   ar
    34    31     7   ar
    35    31    10   ar
    36    28    14   ar
    37    26    21   ar
    38     1    34    1
    39     1    35    1
    40     1    36    1
    41     4    37    1
    42     5    38    1
    43    12    39    1
    44    15    40    1
    45    16    41    1
    46    20    42    1
    47    22    43    1
    48    23    44    1
    49    24    45    1
    50    25    46    1
    51    27    47    1
    52    28    48    1
    53    32    49    1
    54    33    50    1
