
     RDKit          3D

 37 40  0  0  0  0  0  0  0  0999 V2000
   -4.1668    2.1650   -1.1773 C   0  0  0  0  0  0  0  0  0  0  0  0
   -3.5083    1.3645   -0.0898 C   0  0  0  0  0  0  0  0  0  0  0  0
   -2.7200    0.3427   -0.4353 N   0  0  0  0  0  0  0  0  0  0  0  0
   -2.1075   -0.3752    0.5475 C   0  0  0  0  0  0  0  0  0  0  0  0
   -1.2506   -1.4968    0.2046 C   0  0  0  0  0  0  0  0  0  0  0  0
   -1.7489   -2.7331    0.0093 N   0  0  0  0  0  0  0  0  0  0  0  0
   -0.7367   -3.5516   -0.3155 C   0  0  0  0  0  0  0  0  0  0  0  0
   -0.8591   -4.9476   -0.5947 N   0  0  0  0  0  0  0  0  0  0  0  0
    0.3752   -2.8038   -0.3146 N   0  0  0  0  0  0  0  0  0  0  0  0
    0.0812   -1.5051    0.0112 C   0  0  0  0  0  0  0  0  0  0  0  0
    1.0575   -0.4553    0.1365 C   0  0  0  0  0  0  0  0  0  0  0  0
    0.7616    0.8689    0.2152 C   0  0  0  0  0  0  0  0  0  0  0  0
    1.7488    1.8534    0.2801 C   0  0  0  0  0  0  0  0  0  0  0  0
    3.0830    1.5165    0.2673 C   0  0  0  0  0  0  0  0  0  0  0  0
    4.0080    2.4854    0.3172 N   0  0  0  0  0  0  0  0  0  0  0  0
    5.3166    2.1795    0.2893 C   0  0  0  0  0  0  0  0  0  0  0  0
    5.6337    0.8290    0.2085 C   0  0  0  0  0  0  0  0  0  0  0  0
    4.7033   -0.1392    0.1597 N   0  0  0  0  0  0  0  0  0  0  0  0
    3.3991    0.1732    0.1876 C   0  0  0  0  0  0  0  0  0  0  0  0
    2.4086   -0.7723    0.1244 C   0  0  0  0  0  0  0  0  0  0  0  0
   -2.3121   -0.0368    1.8612 C   0  0  0  0  0  0  0  0  0  0  0  0
   -3.1204    1.0109    2.2348 C   0  0  0  0  0  0  0  0  0  0  0  0
   -3.7458    1.7438    1.2144 C   0  0  0  0  0  0  0  0  0  0  0  0
   -4.5369    2.7692    1.5686 F   0  0  0  0  0  0  0  0  0  0  0  0
   -4.2583    1.5804   -2.1042 H   0  0  0  0  0  0  0  0  0  0  0  0
   -3.5302    3.0601   -1.4082 H   0  0  0  0  0  0  0  0  0  0  0  0
   -5.1474    2.5434   -0.8361 H   0  0  0  0  0  0  0  0  0  0  0  0
   -0.0084   -5.5163   -0.7961 H   0  0  0  0  0  0  0  0  0  0  0  0
   -1.7719   -5.4065   -0.6023 H   0  0  0  0  0  0  0  0  0  0  0  0
    1.3142   -3.1884   -0.5320 H   0  0  0  0  0  0  0  0  0  0  0  0
   -0.2378    1.2120    0.2357 H   0  0  0  0  0  0  0  0  0  0  0  0
    1.4740    2.8916    0.3429 H   0  0  0  0  0  0  0  0  0  0  0  0
    6.1026    2.9166    0.3236 H   0  0  0  0  0  0  0  0  0  0  0  0
    6.6845    0.5959    0.1843 H   0  0  0  0  0  0  0  0  0  0  0  0
    2.6894   -1.8101    0.0639 H   0  0  0  0  0  0  0  0  0  0  0  0
   -1.8194   -0.6113    2.6676 H   0  0  0  0  0  0  0  0  0  0  0  0
   -3.2548    1.2475    3.2855 H   0  0  0  0  0  0  0  0  0  0  0  0
  1  2  1  0
  2  3  2  0
  3  4  1  0
  4  5  1  0
  5  6  1  0
  6  7  2  0
  7  8  1  0
  7  9  1  0
  9 10  1  0
 10 11  1  0
 11 12  2  0
 12 13  1  0
 13 14  2  0
 14 15  1  0
 15 16  2  0
 16 17  1  0
 17 18  2  0
 18 19  1  0
 19 20  2  0
  4 21  2  0
 21 22  1  0
 22 23  2  0
 23 24  1  0
 23  2  1  0
 10  5  2  0
 20 11  1  0
 19 14  1  0
  1 25  1  0
  1 26  1  0
  1 27  1  0
  8 28  1  0
  8 29  1  0
  9 30  1  0
 12 31  1  0
 13 32  1  0
 16 33  1  0
 17 34  1  0
 20 35  1  0
 21 36  1  0
 22 37  1  0
M  END
$$$$
