@<TRIPOS>MOLECULE
*****
 37 40 0 0 0
SMALL
GASTEIGER

@<TRIPOS>ATOM
      1 C          -4.1668    2.1650   -1.1773 C.3     1  UNL1       -0.0195
      2 C          -3.5083    1.3645   -0.0898 C.ar    1  UNL1        0.0740
      3 N          -2.7200    0.3427   -0.4353 N.ar    1  UNL1       -0.2474
      4 C          -2.1075   -0.3752    0.5475 C.ar    1  UNL1        0.0918
      5 C          -1.2506   -1.4968    0.2046 C.ar    1  UNL1        0.1165
      6 N          -1.7489   -2.7331    0.0093 N.ar    1  UNL1       -0.2126
      7 C          -0.7367   -3.5516   -0.3155 C.ar    1  UNL1        0.1914
      8 N          -0.8591   -4.9476   -0.5947 N.pl3   1  UNL1       -0.3290
      9 N           0.3752   -2.8038   -0.3146 N.ar    1  UNL1       -0.3257
     10 C           0.0812   -1.5051    0.0112 C.ar    1  UNL1        0.0768
     11 C           1.0575   -0.4553    0.1365 C.ar    1  UNL1        0.0027
     12 C           0.7616    0.8689    0.2152 C.ar    1  UNL1       -0.0504
     13 C           1.7488    1.8534    0.2801 C.ar    1  UNL1       -0.0336
     14 C           3.0830    1.5165    0.2673 C.ar    1  UNL1        0.0892
     15 N           4.0080    2.4854    0.3172 N.ar    1  UNL1       -0.2519
     16 C           5.3166    2.1795    0.2893 C.ar    1  UNL1        0.0464
     17 C           5.6337    0.8290    0.2085 C.ar    1  UNL1        0.0464
     18 N           4.7033   -0.1392    0.1597 N.ar    1  UNL1       -0.2519
     19 C           3.3991    0.1732    0.1876 C.ar    1  UNL1        0.0898
     20 C           2.4086   -0.7723    0.1244 C.ar    1  UNL1       -0.0251
     21 C          -2.3121   -0.0368    1.8612 C.ar    1  UNL1       -0.0314
     22 C          -3.1204    1.0109    2.2348 C.ar    1  UNL1       -0.0226
     23 C          -3.7458    1.7438    1.2144 C.ar    1  UNL1        0.1443
     24 F          -4.5369    2.7692    1.5686 F       1  UNL1       -0.2036
     25 H          -4.2583    1.5804   -2.1042 H       1  UNL1        0.0293
     26 H          -3.5302    3.0601   -1.4082 H       1  UNL1        0.0293
     27 H          -5.1474    2.5434   -0.8361 H       1  UNL1        0.0293
     28 H          -0.0084   -5.5163   -0.7961 H       1  UNL1        0.1451
     29 H          -1.7719   -5.4065   -0.6023 H       1  UNL1        0.1451
     30 H           1.3142   -3.1884   -0.5320 H       1  UNL1        0.1686
     31 H          -0.2378    1.2120    0.2357 H       1  UNL1        0.0625
     32 H           1.4740    2.8916    0.3429 H       1  UNL1        0.0640
     33 H           6.1026    2.9166    0.3236 H       1  UNL1        0.0845
     34 H           6.6845    0.5959    0.1843 H       1  UNL1        0.0845
     35 H           2.6894   -1.8101    0.0639 H       1  UNL1        0.0646
     36 H          -1.8194   -0.6113    2.6676 H       1  UNL1        0.0640
     37 H          -3.2548    1.2475    3.2855 H       1  UNL1        0.0647
@<TRIPOS>BOND
     1     1     2    1
     2     2     3   ar
     3     3     4   ar
     4     4     5    1
     5     5     6   ar
     6     6     7   ar
     7     7     8    1
     8     7     9   ar
     9     9    10   ar
    10    10    11    1
    11    11    12   ar
    12    12    13   ar
    13    13    14   ar
    14    14    15   ar
    15    15    16   ar
    16    16    17   ar
    17    17    18   ar
    18    18    19   ar
    19    19    20   ar
    20     4    21   ar
    21    21    22   ar
    22    22    23   ar
    23    23    24    1
    24    23     2   ar
    25    10     5   ar
    26    20    11   ar
    27    19    14   ar
    28     1    25    1
    29     1    26    1
    30     1    27    1
    31     8    28    1
    32     8    29    1
    33     9    30    1
    34    12    31    1
    35    13    32    1
    36    16    33    1
    37    17    34    1
    38    20    35    1
    39    21    36    1
    40    22    37    1
