
     RDKit          3D

 10  9  0  0  0  0  0  0  0  0999 V2000
   -1.4819    0.2721    0.2051 C   0  0  0  0  0  0  0  0  0  0  0  0
   -0.0476   -0.1175   -0.7452 S   0  0  0  0  0  0  0  0  0  0  0  0
    1.4973    0.0621    0.1049 C   0  0  0  0  0  0  0  0  0  0  0  0
   -0.0826   -1.4698   -1.4117 O   0  0  0  0  0  0  0  0  0  0  0  0
   -2.0808    1.0274   -0.3632 H   0  0  0  0  0  0  0  0  0  0  0  0
   -1.2927    0.6229    1.2349 H   0  0  0  0  0  0  0  0  0  0  0  0
   -2.1422   -0.6297    0.2481 H   0  0  0  0  0  0  0  0  0  0  0  0
    1.6984   -0.8188    0.7529 H   0  0  0  0  0  0  0  0  0  0  0  0
    1.6240    1.0138    0.6418 H   0  0  0  0  0  0  0  0  0  0  0  0
    2.3080    0.0376   -0.6674 H   0  0  0  0  0  0  0  0  0  0  0  0
  1  2  1  0
  2  3  1  0
  2  4  2  0
  1  5  1  0
  1  6  1  0
  1  7  1  0
  3  8  1  0
  3  9  1  0
  3 10  1  0
M  END
$$$$
