@<TRIPOS>MOLECULE
*****
 55 57 0 0 0
SMALL
GASTEIGER

@<TRIPOS>ATOM
      1 C          -1.0814   -3.2692   -1.6363 C.3     1  UNL1       -0.0585
      2 C          -1.0961   -2.7500   -0.1757 C.3     1  UNL1       -0.0183
      3 C          -1.7471   -3.8337    0.6564 C.3     1  UNL1       -0.0585
      4 C          -1.8961   -1.5382   -0.0700 C.ar    1  UNL1       -0.0056
      5 C          -3.2952   -1.6544   -0.0592 C.ar    1  UNL1        0.0334
      6 N          -4.0693   -0.5687   -0.0242 N.ar    1  UNL1       -0.2545
      7 C          -3.5959    0.7133    0.0036 C.ar    1  UNL1        0.0755
      8 C          -4.5431    1.8190    0.0396 C.ar    1  UNL1        0.0369
      9 C          -5.9151    1.5304    0.0451 C.ar    1  UNL1       -0.0314
     10 C          -6.8603    2.5215    0.0782 C.ar    1  UNL1        0.0418
     11 CL         -8.5701    2.1508    0.0847 Cl      1  UNL1       -0.0835
     12 C          -6.5093    3.8532    0.1078 C.ar    1  UNL1       -0.0406
     13 C          -5.1627    4.1455    0.1027 C.ar    1  UNL1       -0.0244
     14 C          -4.1917    3.1349    0.0688 C.ar    1  UNL1        0.1326
     15 F          -2.9146    3.5588    0.0675 F       1  UNL1       -0.2048
     16 C          -2.2451    0.8463   -0.0050 C.ar    1  UNL1       -0.0141
     17 C          -1.4171   -0.2712   -0.0402 C.ar    1  UNL1        0.0383
     18 N          -0.0044   -0.0217   -0.0610 N.pl3   1  UNL1       -0.3135
     19 C           0.7727   -0.4034    1.0611 C.ar    1  UNL1        0.0465
     20 C           0.0858   -0.9217    2.1900 C.ar    1  UNL1       -0.0217
     21 C           0.8364   -1.2858    3.2705 C.ar    1  UNL1        0.0293
     22 N           2.1761   -1.1687    3.2919 N.ar    1  UNL1       -0.2624
     23 C           2.8530   -0.6801    2.2340 C.ar    1  UNL1        0.0415
     24 C           2.1295   -0.2874    1.0880 C.ar    1  UNL1        0.0758
     25 C           2.8770    0.2188   -0.0474 C.2     1  UNL1        0.2474
     26 O           2.3423    0.5449   -1.1354 O.2     1  UNL1       -0.2701
     27 N           4.3021    0.4017   -0.0506 N.am    1  UNL1       -0.3088
     28 C           4.9977    0.9199   -1.2388 C.3     1  UNL1        0.0377
     29 C           6.4836    1.0109   -0.9652 C.3     1  UNL1        0.0679
     30 C           7.2412    1.6102   -2.1004 C.3     1  UNL1       -0.0375
     31 O           6.9527   -0.2443   -0.6659 O.3     1  UNL1       -0.3905
     32 H          -0.2184   -2.8311   -2.1641 H       1  UNL1        0.0235
     33 H          -2.0500   -3.0434   -2.1104 H       1  UNL1        0.0235
     34 H          -0.9075   -4.3607   -1.5547 H       1  UNL1        0.0235
     35 H          -0.0439   -2.6932    0.0881 H       1  UNL1        0.0344
     36 H          -2.2301   -3.3437    1.5251 H       1  UNL1        0.0235
     37 H          -2.5314   -4.3671    0.0628 H       1  UNL1        0.0235
     38 H          -1.0281   -4.5657    1.0369 H       1  UNL1        0.0235
     39 H          -3.7381   -2.6289   -0.0795 H       1  UNL1        0.0833
     40 H          -6.2186    0.4943    0.0223 H       1  UNL1        0.0639
     41 H          -7.2670    4.6310    0.1339 H       1  UNL1        0.0633
     42 H          -4.8712    5.1768    0.1254 H       1  UNL1        0.0647
     43 H          -1.7723    1.7934    0.0146 H       1  UNL1        0.0658
     44 H           0.3447    0.4289   -0.8961 H       1  UNL1        0.1522
     45 H          -0.9799   -1.0034    2.1467 H       1  UNL1        0.0651
     46 H           0.2882   -1.6845    4.1342 H       1  UNL1        0.0830
     47 H           3.9196   -0.5842    2.2411 H       1  UNL1        0.0838
     48 H           4.8408    0.1691    0.7875 H       1  UNL1        0.1491
     49 H           4.7824    0.3193   -2.1353 H       1  UNL1        0.0487
     50 H           4.6207    1.9418   -1.4171 H       1  UNL1        0.0487
     51 H           6.6153    1.6374   -0.0436 H       1  UNL1        0.0606
     52 H           7.0685    0.9979   -3.0102 H       1  UNL1        0.0255
     53 H           6.9869    2.6558   -2.3085 H       1  UNL1        0.0255
     54 H           8.3253    1.5239   -1.8678 H       1  UNL1        0.0255
     55 H           7.1284   -0.7448   -1.4902 H       1  UNL1        0.2098
@<TRIPOS>BOND
     1     1     2    1
     2     2     3    1
     3     2     4    1
     4     4     5   ar
     5     5     6   ar
     6     6     7   ar
     7     7     8    1
     8     8     9   ar
     9     9    10   ar
    10    10    11    1
    11    10    12   ar
    12    12    13   ar
    13    13    14   ar
    14    14    15    1
    15     7    16   ar
    16    16    17   ar
    17    17    18    1
    18    18    19    1
    19    19    20   ar
    20    20    21   ar
    21    21    22   ar
    22    22    23   ar
    23    23    24   ar
    24    24    25    1
    25    25    26    2
    26    25    27   am
    27    27    28    1
    28    28    29    1
    29    29    30    1
    30    29    31    1
    31    17     4   ar
    32    24    19   ar
    33    14     8   ar
    34     1    32    1
    35     1    33    1
    36     1    34    1
    37     2    35    1
    38     3    36    1
    39     3    37    1
    40     3    38    1
    41     5    39    1
    42     9    40    1
    43    12    41    1
    44    13    42    1
    45    16    43    1
    46    18    44    1
    47    20    45    1
    48    21    46    1
    49    23    47    1
    50    27    48    1
    51    28    49    1
    52    28    50    1
    53    29    51    1
    54    30    52    1
    55    30    53    1
    56    30    54    1
    57    31    55    1
