@<TRIPOS>MOLECULE
*****
 63 67 0 0 0
SMALL
GASTEIGER

@<TRIPOS>ATOM
      1 C3*        -1.8405    1.9868   -0.8483 C.3     2    G2        0.0877
      2 O3*        -2.0385    2.9942   -1.8097 O.3     2    G2       -0.3890
      3 C2*        -2.8470    2.2411    0.2558 C.3     2    G2        0.0213
      4 C1*        -3.9185    1.2246   -0.0812 C.3     2    G2        0.1407
      5 O4*        -3.1227    0.1036   -0.3783 O.3     2    G2       -0.3484
      6 C4*        -2.2600    0.6464   -1.3555 C.3     2    G2        0.1108
      7 C5*        -1.0922   -0.3039   -1.5226 C.3     2    G2        0.0878
      8 O5*        -0.1749    0.1147   -2.4539 O.3     2    G2       -0.2840
      9 P           1.1195   -0.9607   -2.6278 P.3     2    G2        0.4753
     10 O1P         0.5223   -2.4940   -2.1847 O.3     2    G2       -0.3025
     11 O2P         1.5220   -0.9420   -4.0832 O.2     2    G2       -0.2273
     12 O3*         2.4007   -0.6150   -1.6120 O.3     1    C1       -0.2805
     13 C3*         2.8459    0.7025   -1.6852 C.3     1    C1        0.1025
     14 C2*         2.7270    1.2675   -0.2636 C.3     1    C1        0.0222
     15 C1*         4.1201    1.2322    0.2818 C.3     1    C1        0.1422
     16 O4*         4.9167    1.4223   -0.8506 O.3     1    C1       -0.3483
     17 C4*         4.3149    0.8099   -1.9189 C.3     1    C1        0.1109
     18 C5*         4.9710   -0.5231   -2.2018 C.3     1    C1        0.0729
     19 O5*         6.3194   -0.2519   -2.4857 O.3     1    C1       -0.3924
     20 N1          4.4902    0.0335    0.9583 N.ar    1    C1       -0.2759
     21 C6          3.7579   -0.9617    1.4706 C.ar    1    C1        0.0153
     22 C5          4.3212   -2.0472    2.0933 C.ar    1    C1       -0.0015
     23 C4          5.6944   -2.1108    2.1927 C.ar    1    C1        0.1520
     24 N4          6.2596   -3.1328    2.7805 N.2     1    C1       -0.2819
     25 N3          6.4528   -1.1119    1.6796 N.ar    1    C1       -0.1779
     26 C2          5.8486   -0.0505    1.0682 C.ar    1    C1        0.2996
     27 O2          6.7957    0.8585    0.6134 O.3     1    C1       -0.4795
     28 N9         -4.8115    0.9944    1.0267 N.ar    2    G2       -0.2893
     29 C8         -4.8658    1.7057    2.1804 C.ar    2    G2        0.1004
     30 N7         -5.8372    1.1547    2.9352 N.ar    2    G2       -0.2287
     31 C5         -6.3713    0.1191    2.2527 C.ar    2    G2        0.1672
     32 C4         -5.7226    0.0042    1.0256 C.ar    2    G2        0.1483
     33 N3         -6.0664   -0.9588    0.1426 N.ar    2    G2       -0.3088
     34 C2         -7.0526   -1.7758    0.5235 C.ar    2    G2        0.2252
     35 N2         -7.4667   -2.7245   -0.2238 N.2     2    G2       -0.2664
     36 N1         -7.6939   -1.6855    1.7017 N.ar    2    G2       -0.1758
     37 C6         -7.3835   -0.7384    2.6150 C.ar    2    G2        0.2453
     38 O6         -8.0456   -0.6448    3.8320 O.3     2    G2       -0.4908
     39 H3*        -0.7989    2.0030   -0.4630 H       2    G2        0.0621
     40 H3*        -1.5580    2.8058   -2.6462 H       2    G2        0.2099
     41 H2*1       -2.3849    1.9720    1.2186 H       2    G2        0.0335
     42 H2*2       -3.2353    3.2774    0.2332 H       2    G2        0.0335
     43 H1*        -4.4211    1.5575   -1.0076 H       2    G2        0.0840
     44 H4*        -2.8621    0.7208   -2.2836 H       2    G2        0.0646
     45 H5*1       -0.5557   -0.3615   -0.5478 H       2    G2        0.0592
     46 H5*2       -1.4158   -1.3249   -1.7509 H       2    G2        0.0592
     47 H1P         0.5624   -2.5191   -1.1831 H       2    G2        0.2220
     48 H3*         2.2766    1.3058   -2.4083 H       1    C1        0.0630
     49 H2*1        1.9589    0.7810    0.3281 H       1    C1        0.0335
     50 H2*2        2.4540    2.3535   -0.3928 H       1    C1        0.0335
     51 H1*         4.3102    2.1130    0.9546 H       1    C1        0.0840
     52 H4*         4.4950    1.4665   -2.8093 H       1    C1        0.0646
     53 H5*1        4.8224   -1.2243   -1.3770 H       1    C1        0.0584
     54 H5*2        4.5708   -1.0001   -3.1088 H       1    C1        0.0584
     55 H5*         6.5511   -0.3772   -3.4296 H       1    C1        0.2095
     56 H6          2.7080   -0.8136    1.3402 H       1    C1        0.0812
     57 H5          3.6737   -2.8087    2.4813 H       1    C1        0.0669
     58 H4          5.6135   -3.8644    3.1521 H       1    C1        0.1883
     59 H2          7.4798    1.2800    1.2332 H       1    C1        0.2953
     60 H8         -4.2300    2.5620    2.4286 H       2    G2        0.1030
     61 H3         -5.5838   -1.0468   -0.7733 H       2    G2        0.1703
     62 H2         -7.0899   -2.9477   -1.1710 H       2    G2        0.1898
     63 H6         -8.1292   -1.4923    4.3705 H       2    G2        0.2938
@<TRIPOS>BOND
     1     1     2    1
     2     1     3    1
     3     3     4    1
     4     4     5    1
     5     5     6    1
     6     6     7    1
     7     7     8    1
     8     8     9    1
     9     9    10    1
    10     9    11    2
    11     9    12    1
    12    12    13    1
    13    13    14    1
    14    14    15    1
    15    15    16    1
    16    16    17    1
    17    17    18    1
    18    18    19    1
    19    15    20    1
    20    20    21   ar
    21    21    22   ar
    22    22    23   ar
    23    23    24    2
    24    23    25   ar
    25    25    26   ar
    26    26    27    1
    27     4    28    1
    28    28    29   ar
    29    29    30   ar
    30    30    31   ar
    31    31    32   ar
    32    32    33   ar
    33    33    34   ar
    34    34    35    2
    35    34    36   ar
    36    36    37   ar
    37    37    38    1
    38     6     1    1
    39    17    13    1
    40    26    20   ar
    41    32    28   ar
    42    37    31   ar
    43     1    39    1
    44     2    40    1
    45     3    41    1
    46     3    42    1
    47     4    43    1
    48     6    44    1
    49     7    45    1
    50     7    46    1
    51    10    47    1
    52    13    48    1
    53    14    49    1
    54    14    50    1
    55    15    51    1
    56    17    52    1
    57    18    53    1
    58    18    54    1
    59    19    55    1
    60    21    56    1
    61    22    57    1
    62    24    58    1
    63    27    59    1
    64    29    60    1
    65    33    61    1
    66    35    62    1
    67    38    63    1
