@<TRIPOS>MOLECULE
*****
 47 50 0 0 0
SMALL
GASTEIGER

@<TRIPOS>ATOM
      1 C           5.0487   -0.8505    2.2668 C.3     1  UNL1        0.0032
      2 N           4.4873   -0.1455    1.1192 N.am    1  UNL1       -0.3023
      3 C           5.0362    1.1479    0.7833 C.3     1  UNL1        0.0032
      4 C           3.4399   -0.7359    0.3852 C.2     1  UNL1        0.2661
      5 O           2.9758   -1.8747    0.7227 O.2     1  UNL1       -0.2683
      6 C           2.8252   -0.1206   -0.7745 C.ar    1  UNL1        0.1474
      7 C           3.5021    0.4499   -1.8278 C.ar    1  UNL1        0.0605
      8 N           2.5294    0.8660   -2.6920 N.ar    1  UNL1       -0.2339
      9 C           1.3363    0.5485   -2.1605 C.ar    1  UNL1        0.1549
     10 C           0.0258    0.7327   -2.6194 C.ar    1  UNL1       -0.0153
     11 C          -1.0259    0.2996   -1.8691 C.ar    1  UNL1       -0.0290
     12 C          -0.8038   -0.3164   -0.6628 C.ar    1  UNL1        0.1103
     13 C          -1.9459   -0.7854    0.1050 C.ar    1  UNL1        0.0968
     14 C          -3.0157   -0.0424    0.5260 C.ar    1  UNL1        0.0982
     15 C          -3.2672    1.3781    0.3612 C.ar    1  UNL1        0.0027
     16 C          -3.9492    1.8791   -0.7077 C.ar    1  UNL1       -0.0498
     17 C          -4.1797    3.2299   -0.8732 C.ar    1  UNL1       -0.0258
     18 C          -3.7172    4.1144    0.0561 C.ar    1  UNL1        0.1234
     19 F          -3.9425    5.4374   -0.0995 F       1  UNL1       -0.2055
     20 C          -3.0166    3.6350    1.1602 C.ar    1  UNL1       -0.0258
     21 C          -2.7960    2.2568    1.3038 C.ar    1  UNL1       -0.0498
     22 N          -3.8354   -0.9013    1.1736 N.ar    1  UNL1       -0.2351
     23 C          -3.2896   -2.0991    1.1475 C.ar    1  UNL1        0.0973
     24 N          -2.1128   -2.0562    0.4897 N.ar    1  UNL1       -0.3229
     25 C          -1.2590   -3.1803    0.3476 C.3     1  UNL1        0.0852
     26 C          -1.3028   -3.9758   -0.8861 C.3     1  UNL1        0.2569
     27 F          -2.4868   -4.5623   -1.2237 F       1  UNL1       -0.2073
     28 F          -0.4354   -5.0733   -0.6678 F       1  UNL1       -0.2073
     29 N           0.4517   -0.4731   -0.2603 N.ar    1  UNL1       -0.1628
     30 N           1.4724   -0.0629   -0.9721 N.ar    1  UNL1       -0.2076
     31 H           4.2525   -1.5488    2.6351 H       1  UNL1        0.0428
     32 H           5.9232   -1.4441    1.9265 H       1  UNL1        0.0428
     33 H           5.2939   -0.1736    3.0839 H       1  UNL1        0.0428
     34 H           5.8151    0.9927   -0.0019 H       1  UNL1        0.0428
     35 H           4.2375    1.7769    0.3503 H       1  UNL1        0.0428
     36 H           5.5201    1.5950    1.6660 H       1  UNL1        0.0428
     37 H           4.5582    0.5763   -1.9987 H       1  UNL1        0.0854
     38 H          -0.1249    1.2162   -3.5620 H       1  UNL1        0.0655
     39 H          -2.0216    0.4458   -2.2443 H       1  UNL1        0.0641
     40 H          -4.3449    1.2337   -1.4869 H       1  UNL1        0.0625
     41 H          -4.7219    3.5863   -1.7318 H       1  UNL1        0.0646
     42 H          -2.6500    4.3348    1.8961 H       1  UNL1        0.0646
     43 H          -2.2485    1.8764    2.1687 H       1  UNL1        0.0625
     44 H          -3.7564   -2.9865    1.6075 H       1  UNL1        0.1029
     45 H          -0.1913   -2.8922    0.5552 H       1  UNL1        0.0548
     46 H          -1.4903   -3.8950    1.2035 H       1  UNL1        0.0548
     47 H          -0.8004   -3.4133   -1.7110 H       1  UNL1        0.1037
@<TRIPOS>BOND
     1     1     2    1
     2     2     3    1
     3     2     4   am
     4     4     5    2
     5     4     6    1
     6     6     7   ar
     7     7     8   ar
     8     8     9   ar
     9     9    10   ar
    10    10    11   ar
    11    11    12   ar
    12    12    13    1
    13    13    14   ar
    14    14    15    1
    15    15    16   ar
    16    16    17   ar
    17    17    18   ar
    18    18    19    1
    19    18    20   ar
    20    20    21   ar
    21    14    22   ar
    22    22    23   ar
    23    23    24   ar
    24    24    25    1
    25    25    26    1
    26    26    27    1
    27    26    28    1
    28    12    29   ar
    29    29    30   ar
    30    30     6   ar
    31    30     9   ar
    32    24    13   ar
    33    21    15   ar
    34     1    31    1
    35     1    32    1
    36     1    33    1
    37     3    34    1
    38     3    35    1
    39     3    36    1
    40     7    37    1
    41    10    38    1
    42    11    39    1
    43    16    40    1
    44    17    41    1
    45    20    42    1
    46    21    43    1
    47    23    44    1
    48    25    45    1
    49    25    46    1
    50    26    47    1
