
     RDKit          3D

 53 55  0  0  0  0  0  0  0  0999 V2000
   -0.9446    1.7821   -2.9860 O   0  0  0  0  0  0  0  0  0  0  0  0
   -0.0928    0.9574   -2.5118 C   0  0  0  0  0  0  0  0  0  0  0  0
   -0.0659   -0.3210   -3.0318 O   0  0  0  0  0  0  0  0  0  0  0  0
    0.8342    1.3821   -1.4271 C   0  0  0  0  0  0  0  0  0  0  0  0
    2.2823    1.3564   -1.8272 C   0  0  0  0  0  0  0  0  0  0  0  0
    2.7068   -0.0097   -2.2212 C   0  0  0  0  0  0  0  0  0  0  0  0
    4.4717   -0.0523   -2.6801 S   0  0  0  0  0  0  0  0  0  0  0  0
    5.5463    0.2809   -1.2869 C   0  0  0  0  0  0  0  0  0  0  0  0
    5.4871   -0.7867   -0.2462 C   0  0  0  0  0  0  0  0  0  0  0  0
    4.5978   -0.7081    0.7892 C   0  0  0  0  0  0  0  0  0  0  0  0
    4.5466   -1.7093    1.7558 C   0  0  0  0  0  0  0  0  0  0  0  0
    5.3892   -2.8045    1.6951 C   0  0  0  0  0  0  0  0  0  0  0  0
    6.2929   -2.8835    0.6419 C   0  0  0  0  0  0  0  0  0  0  0  0
    6.3278   -1.8795   -0.3067 C   0  0  0  0  0  0  0  0  0  0  0  0
    0.5151    2.7651   -1.0247 N   0  0  0  0  0  0  0  0  0  0  0  0
   -0.0363    2.7854    0.5911 S   0  0  0  0  0  6  0  0  0  0  0  0
   -0.2889    4.1675    1.0856 O   0  0  0  0  0  0  0  0  0  0  0  0
    1.0333    2.1719    1.4517 O   0  0  0  0  0  0  0  0  0  0  0  0
   -1.5013    1.8381    0.7531 C   0  0  0  0  0  0  0  0  0  0  0  0
   -1.4567    0.5329    1.1748 C   0  0  0  0  0  0  0  0  0  0  0  0
   -2.6198   -0.2306    1.2903 C   0  0  0  0  0  0  0  0  0  0  0  0
   -3.8444    0.3169    0.9805 C   0  0  0  0  0  0  0  0  0  0  0  0
   -5.0568   -0.4836    1.0981 C   0  0  0  0  0  0  0  0  0  0  0  0
   -6.1286   -0.2531    0.2519 C   0  0  0  0  0  0  0  0  0  0  0  0
   -7.2439   -1.0435    0.4119 C   0  0  0  0  0  0  0  0  0  0  0  0
   -7.3168   -2.0359    1.3728 C   0  0  0  0  0  0  0  0  0  0  0  0
   -8.8898   -3.1235    1.5713 Br  0  0  0  0  0  0  0  0  0  0  0  0
   -6.2441   -2.2569    2.2103 C   0  0  0  0  0  0  0  0  0  0  0  0
   -5.1223   -1.4749    2.0621 C   0  0  0  0  0  0  0  0  0  0  0  0
   -3.8724    1.6235    0.5608 C   0  0  0  0  0  0  0  0  0  0  0  0
   -2.7249    2.3932    0.4415 C   0  0  0  0  0  0  0  0  0  0  0  0
   -0.7913   -0.6067   -3.6938 H   0  0  0  0  0  0  0  0  0  0  0  0
    0.6306    0.7493   -0.5483 H   0  0  0  0  0  0  0  0  0  0  0  0
    2.8630    1.6489   -0.9280 H   0  0  0  0  0  0  0  0  0  0  0  0
    2.4592    2.0683   -2.6749 H   0  0  0  0  0  0  0  0  0  0  0  0
    2.4993   -0.7321   -1.4059 H   0  0  0  0  0  0  0  0  0  0  0  0
    2.1790   -0.3943   -3.1315 H   0  0  0  0  0  0  0  0  0  0  0  0
    5.3464    1.2649   -0.8061 H   0  0  0  0  0  0  0  0  0  0  0  0
    6.5934    0.3332   -1.6448 H   0  0  0  0  0  0  0  0  0  0  0  0
    3.9182    0.1280    0.8809 H   0  0  0  0  0  0  0  0  0  0  0  0
    3.8416   -1.6563    2.5856 H   0  0  0  0  0  0  0  0  0  0  0  0
    5.3477   -3.5900    2.4560 H   0  0  0  0  0  0  0  0  0  0  0  0
    6.9378   -3.7457    0.6172 H   0  0  0  0  0  0  0  0  0  0  0  0
    7.0355   -1.9571   -1.1182 H   0  0  0  0  0  0  0  0  0  0  0  0
   -0.1967    3.1690   -1.6563 H   0  0  0  0  0  0  0  0  0  0  0  0
   -0.5034    0.1031    1.4234 H   0  0  0  0  0  0  0  0  0  0  0  0
   -2.5149   -1.2498    1.6273 H   0  0  0  0  0  0  0  0  0  0  0  0
   -6.0456    0.5290   -0.4912 H   0  0  0  0  0  0  0  0  0  0  0  0
   -8.1100   -0.8920   -0.2370 H   0  0  0  0  0  0  0  0  0  0  0  0
   -6.2369   -3.0149    2.9804 H   0  0  0  0  0  0  0  0  0  0  0  0
   -4.2527   -1.6074    2.6943 H   0  0  0  0  0  0  0  0  0  0  0  0
   -4.8298    2.0467    0.3203 H   0  0  0  0  0  0  0  0  0  0  0  0
   -2.7512    3.4224    0.1106 H   0  0  0  0  0  0  0  0  0  0  0  0
  1  2  2  0
  2  3  1  0
  2  4  1  0
  4  5  1  0
  5  6  1  0
  6  7  1  0
  7  8  1  0
  8  9  1  0
  9 10  2  0
 10 11  1  0
 11 12  2  0
 12 13  1  0
 13 14  2  0
  4 15  1  0
 15 16  1  0
 16 17  2  0
 16 18  2  0
 16 19  1  0
 19 20  2  0
 20 21  1  0
 21 22  2  0
 22 23  1  0
 23 24  2  0
 24 25  1  0
 25 26  2  0
 26 27  1  0
 26 28  1  0
 28 29  2  0
 22 30  1  0
 30 31  2  0
 14  9  1  0
 31 19  1  0
 29 23  1  0
  3 32  1  0
  4 33  1  0
  5 34  1  0
  5 35  1  0
  6 36  1  0
  6 37  1  0
  8 38  1  0
  8 39  1  0
 10 40  1  0
 11 41  1  0
 12 42  1  0
 13 43  1  0
 14 44  1  0
 15 45  1  0
 20 46  1  0
 21 47  1  0
 24 48  1  0
 25 49  1  0
 28 50  1  0
 29 51  1  0
 30 52  1  0
 31 53  1  0
M  END
$$$$
