@<TRIPOS>MOLECULE
*****
 53 55 0 0 0
SMALL
GASTEIGER

@<TRIPOS>ATOM
      1 O          -0.9446    1.7821   -2.9860 O.2     1  UNL1       -0.2492
      2 C          -0.0928    0.9574   -2.5118 C.2     1  UNL1        0.3236
      3 O          -0.0659   -0.3210   -3.0318 O.3     1  UNL1       -0.4795
      4 C           0.8342    1.3821   -1.4271 C.3     1  UNL1        0.1261
      5 C           2.2823    1.3564   -1.8272 C.3     1  UNL1       -0.0166
      6 C           2.7068   -0.0097   -2.2212 C.3     1  UNL1       -0.0040
      7 S           4.4717   -0.0523   -2.6801 S.3     1  UNL1       -0.1560
      8 C           5.5463    0.2809   -1.2869 C.3     1  UNL1        0.0188
      9 C           5.4871   -0.7867   -0.2462 C.ar    1  UNL1       -0.0376
     10 C           4.5978   -0.7081    0.7892 C.ar    1  UNL1       -0.0578
     11 C           4.5466   -1.7093    1.7558 C.ar    1  UNL1       -0.0615
     12 C           5.3892   -2.8045    1.6951 C.ar    1  UNL1       -0.0617
     13 C           6.2929   -2.8835    0.6419 C.ar    1  UNL1       -0.0615
     14 C           6.3278   -1.8795   -0.3067 C.ar    1  UNL1       -0.0578
     15 N           0.5151    2.7651   -1.0247 N.3     1  UNL1       -0.1761
     16 S          -0.0363    2.7854    0.5911 S.O2    1  UNL1        0.0591
     17 O          -0.2889    4.1675    1.0856 O.2     1  UNL1       -0.1530
     18 O           1.0333    2.1719    1.4517 O.2     1  UNL1       -0.1530
     19 C          -1.5013    1.8381    0.7531 C.ar    1  UNL1        0.1053
     20 C          -1.4567    0.5329    1.1748 C.ar    1  UNL1       -0.0348
     21 C          -2.6198   -0.2306    1.2903 C.ar    1  UNL1       -0.0522
     22 C          -3.8444    0.3169    0.9805 C.ar    1  UNL1       -0.0178
     23 C          -5.0568   -0.4836    1.0981 C.ar    1  UNL1       -0.0178
     24 C          -6.1286   -0.2531    0.2519 C.ar    1  UNL1       -0.0530
     25 C          -7.2439   -1.0435    0.4119 C.ar    1  UNL1       -0.0472
     26 C          -7.3168   -2.0359    1.3728 C.ar    1  UNL1        0.0179
     27 BR         -8.8898   -3.1235    1.5713 Br      1  UNL1       -0.0503
     28 C          -6.2441   -2.2569    2.2103 C.ar    1  UNL1       -0.0472
     29 C          -5.1223   -1.4749    2.0621 C.ar    1  UNL1       -0.0530
     30 C          -3.8724    1.6235    0.5608 C.ar    1  UNL1       -0.0522
     31 C          -2.7249    2.3932    0.4415 C.ar    1  UNL1       -0.0348
     32 H          -0.7913   -0.6067   -3.6938 H       1  UNL1        0.2951
     33 H           0.6306    0.7493   -0.5483 H       1  UNL1        0.0593
     34 H           2.8630    1.6489   -0.9280 H       1  UNL1        0.0294
     35 H           2.4592    2.0683   -2.6749 H       1  UNL1        0.0294
     36 H           2.4993   -0.7321   -1.4059 H       1  UNL1        0.0377
     37 H           2.1790   -0.3943   -3.1315 H       1  UNL1        0.0377
     38 H           5.3464    1.2649   -0.8061 H       1  UNL1        0.0425
     39 H           6.5934    0.3332   -1.6448 H       1  UNL1        0.0425
     40 H           3.9182    0.1280    0.8809 H       1  UNL1        0.0621
     41 H           3.8416   -1.6563    2.5856 H       1  UNL1        0.0618
     42 H           5.3477   -3.5900    2.4560 H       1  UNL1        0.0618
     43 H           6.9378   -3.7457    0.6172 H       1  UNL1        0.0618
     44 H           7.0355   -1.9571   -1.1182 H       1  UNL1        0.0621
     45 H          -0.1967    3.1690   -1.6563 H       1  UNL1        0.1489
     46 H          -0.5034    0.1031    1.4234 H       1  UNL1        0.0637
     47 H          -2.5149   -1.2498    1.6273 H       1  UNL1        0.0624
     48 H          -6.0456    0.5290   -0.4912 H       1  UNL1        0.0624
     49 H          -8.1100   -0.8920   -0.2370 H       1  UNL1        0.0629
     50 H          -6.2369   -3.0149    2.9804 H       1  UNL1        0.0629
     51 H          -4.2527   -1.6074    2.6943 H       1  UNL1        0.0624
     52 H          -4.8298    2.0467    0.3203 H       1  UNL1        0.0624
     53 H          -2.7512    3.4224    0.1106 H       1  UNL1        0.0637
@<TRIPOS>BOND
     1     1     2    2
     2     2     3    1
     3     2     4    1
     4     4     5    1
     5     5     6    1
     6     6     7    1
     7     7     8    1
     8     8     9    1
     9     9    10   ar
    10    10    11   ar
    11    11    12   ar
    12    12    13   ar
    13    13    14   ar
    14     4    15    1
    15    15    16    1
    16    16    17    2
    17    16    18    2
    18    16    19    1
    19    19    20   ar
    20    20    21   ar
    21    21    22   ar
    22    22    23    1
    23    23    24   ar
    24    24    25   ar
    25    25    26   ar
    26    26    27    1
    27    26    28   ar
    28    28    29   ar
    29    22    30   ar
    30    30    31   ar
    31    14     9   ar
    32    31    19   ar
    33    29    23   ar
    34     3    32    1
    35     4    33    1
    36     5    34    1
    37     5    35    1
    38     6    36    1
    39     6    37    1
    40     8    38    1
    41     8    39    1
    42    10    40    1
    43    11    41    1
    44    12    42    1
    45    13    43    1
    46    14    44    1
    47    15    45    1
    48    20    46    1
    49    21    47    1
    50    24    48    1
    51    25    49    1
    52    28    50    1
    53    29    51    1
    54    30    52    1
    55    31    53    1
