
     RDKit          3D

 51 54  0  0  0  0  0  0  0  0999 V2000
   -4.7039    1.1579   -2.1565 O   0  0  0  0  0  0  0  0  0  0  0  0
   -4.7236    1.3693   -0.6900 S   0  0  0  0  0  6  0  0  0  0  0  0
   -4.4345    2.8073   -0.3235 O   0  0  0  0  0  0  0  0  0  0  0  0
   -6.3166    0.9853    0.0292 C   0  0  0  0  0  0  0  0  0  0  0  0
   -6.5139   -0.4934    0.1592 C   0  0  0  0  0  0  0  0  0  0  0  0
   -5.4098   -1.1997    0.7137 N   0  0  0  0  0  0  0  0  0  0  0  0
   -4.3649   -0.3902    1.2478 C   0  0  0  0  0  0  0  0  0  0  0  0
   -3.5504    0.3036    0.1567 C   0  0  0  0  0  0  0  0  0  0  0  0
   -2.5030    1.1394    0.8136 C   0  0  0  0  0  0  0  0  0  0  0  0
   -1.2035    1.1964    0.0635 C   0  0  0  0  0  0  0  0  0  0  0  0
   -0.6941   -0.1532   -0.0587 N   0  0  0  0  0  0  0  0  0  0  0  0
    0.7023   -0.4159   -0.0295 C   0  0  0  0  0  0  0  0  0  0  0  0
    1.5660    0.6032    0.1136 N   0  0  0  0  0  0  0  0  0  0  0  0
    2.9011    0.4533    0.1522 C   0  0  0  0  0  0  0  0  0  0  0  0
    3.7479    1.5678    0.3047 O   0  0  0  0  0  0  0  0  0  0  0  0
    5.1083    1.3762    0.3400 C   0  0  0  0  0  0  0  0  0  0  0  0
    5.8147    1.4113   -0.8500 C   0  0  0  0  0  0  0  0  0  0  0  0
    7.1826    1.2196   -0.8245 C   0  0  0  0  0  0  0  0  0  0  0  0
    7.8356    0.9975    0.3604 C   0  0  0  0  0  0  0  0  0  0  0  0
    7.1314    0.9635    1.5374 C   0  0  0  0  0  0  0  0  0  0  0  0
    7.7909    0.7414    2.7129 F   0  0  0  0  0  0  0  0  0  0  0  0
    5.7586    1.1533    1.5340 C   0  0  0  0  0  0  0  0  0  0  0  0
    3.4348   -0.8122    0.0401 C   0  0  0  0  0  0  0  0  0  0  0  0
    2.5533   -1.8614   -0.1069 C   0  0  0  0  0  0  0  0  0  0  0  0
    3.0214   -3.2771   -0.2375 C   0  0  0  0  0  0  0  0  0  0  0  0
    4.3858   -3.3438   -0.2344 F   0  0  0  0  0  0  0  0  0  0  0  0
    2.4548   -3.9861    0.7944 F   0  0  0  0  0  0  0  0  0  0  0  0
    2.4627   -3.7634   -1.4155 F   0  0  0  0  0  0  0  0  0  0  0  0
    1.2239   -1.6390   -0.1376 N   0  0  0  0  0  0  0  0  0  0  0  0
   -1.6637   -1.2170   -0.2110 C   0  0  0  0  0  0  0  0  0  0  0  0
   -2.9456   -0.6796   -0.8022 C   0  0  0  0  0  0  0  0  0  0  0  0
   -7.1012    1.3559   -0.6874 H   0  0  0  0  0  0  0  0  0  0  0  0
   -6.4719    1.5457    0.9666 H   0  0  0  0  0  0  0  0  0  0  0  0
   -7.4478   -0.6556    0.7342 H   0  0  0  0  0  0  0  0  0  0  0  0
   -6.6877   -0.8941   -0.8731 H   0  0  0  0  0  0  0  0  0  0  0  0
   -5.1070   -2.0401    0.2125 H   0  0  0  0  0  0  0  0  0  0  0  0
   -3.7403   -0.9255    1.9623 H   0  0  0  0  0  0  0  0  0  0  0  0
   -4.8536    0.4490    1.8165 H   0  0  0  0  0  0  0  0  0  0  0  0
   -2.2686    0.8045    1.8527 H   0  0  0  0  0  0  0  0  0  0  0  0
   -2.8517    2.2025    0.9286 H   0  0  0  0  0  0  0  0  0  0  0  0
   -1.3154    1.6803   -0.9349 H   0  0  0  0  0  0  0  0  0  0  0  0
   -0.4882    1.7814    0.6512 H   0  0  0  0  0  0  0  0  0  0  0  0
    5.3025    1.5876   -1.7973 H   0  0  0  0  0  0  0  0  0  0  0  0
    7.7346    1.2465   -1.7487 H   0  0  0  0  0  0  0  0  0  0  0  0
    8.9172    0.8419    0.4167 H   0  0  0  0  0  0  0  0  0  0  0  0
    5.2537    1.1173    2.4827 H   0  0  0  0  0  0  0  0  0  0  0  0
    4.5156   -0.9957    0.0648 H   0  0  0  0  0  0  0  0  0  0  0  0
   -1.2735   -2.0332   -0.8740 H   0  0  0  0  0  0  0  0  0  0  0  0
   -1.8748   -1.6492    0.7746 H   0  0  0  0  0  0  0  0  0  0  0  0
   -2.7007   -0.1097   -1.7372 H   0  0  0  0  0  0  0  0  0  0  0  0
   -3.5901   -1.5236   -1.0499 H   0  0  0  0  0  0  0  0  0  0  0  0
  1  2  2  0
  2  3  2  0
  2  4  1  0
  4  5  1  0
  5  6  1  0
  6  7  1  0
  7  8  1  0
  8  9  1  0
  9 10  1  0
 10 11  1  0
 11 12  1  0
 12 13  2  0
 13 14  1  0
 14 15  1  0
 15 16  1  0
 16 17  2  0
 17 18  1  0
 18 19  2  0
 19 20  1  0
 20 21  1  0
 20 22  2  0
 14 23  2  0
 23 24  1  0
 24 25  1  0
 25 26  1  0
 25 27  1  0
 25 28  1  0
 24 29  2  0
 11 30  1  0
 30 31  1  0
  8  2  1  0
 29 12  1  0
 31  8  1  0
 22 16  1  0
  4 32  1  0
  4 33  1  0
  5 34  1  0
  5 35  1  0
  6 36  1  0
  7 37  1  0
  7 38  1  0
  9 39  1  0
  9 40  1  0
 10 41  1  0
 10 42  1  0
 17 43  1  0
 18 44  1  0
 19 45  1  0
 22 46  1  0
 23 47  1  0
 30 48  1  0
 30 49  1  0
 31 50  1  0
 31 51  1  0
M  END
$$$$
