@<TRIPOS>MOLECULE
*****
 51 54 0 0 0
SMALL
GASTEIGER

@<TRIPOS>ATOM
      1 O          -4.7039    1.1579   -2.1565 O.2     1  UNL1       -0.1737
      2 S          -4.7236    1.3693   -0.6900 S.O2    1  UNL1       -0.0230
      3 O          -4.4345    2.8073   -0.3235 O.2     1  UNL1       -0.1737
      4 C          -6.3166    0.9853    0.0292 C.3     1  UNL1        0.0789
      5 C          -6.5139   -0.4934    0.1592 C.3     1  UNL1        0.0154
      6 N          -5.4098   -1.1997    0.7137 N.3     1  UNL1       -0.3124
      7 C          -4.3649   -0.3902    1.2478 C.3     1  UNL1        0.0211
      8 C          -3.5504    0.3036    0.1567 C.3     1  UNL1        0.1030
      9 C          -2.5030    1.1394    0.8136 C.3     1  UNL1       -0.0107
     10 C          -1.2035    1.1964    0.0635 C.3     1  UNL1        0.0169
     11 N          -0.6941   -0.1532   -0.0587 N.pl3   1  UNL1       -0.2994
     12 C           0.7023   -0.4159   -0.0295 C.ar    1  UNL1        0.2214
     13 N           1.5660    0.6032    0.1136 N.ar    1  UNL1       -0.1790
     14 C           2.9011    0.4533    0.1522 C.ar    1  UNL1        0.2254
     15 O           3.7479    1.5678    0.3047 O.3     1  UNL1       -0.4378
     16 C           5.1083    1.3762    0.3400 C.ar    1  UNL1        0.1331
     17 C           5.8147    1.4113   -0.8500 C.ar    1  UNL1       -0.0191
     18 C           7.1826    1.2196   -0.8245 C.ar    1  UNL1       -0.0556
     19 C           7.8356    0.9975    0.3604 C.ar    1  UNL1       -0.0262
     20 C           7.1314    0.9635    1.5374 C.ar    1  UNL1        0.1269
     21 F           7.7909    0.7414    2.7129 F       1  UNL1       -0.2054
     22 C           5.7586    1.1533    1.5340 C.ar    1  UNL1        0.0160
     23 C           3.4348   -0.8122    0.0401 C.ar    1  UNL1        0.0305
     24 C           2.5533   -1.8614   -0.1069 C.ar    1  UNL1        0.1522
     25 C           3.0214   -3.2771   -0.2375 C.3     1  UNL1        0.4345
     26 F           4.3858   -3.3438   -0.2344 F       1  UNL1       -0.1644
     27 F           2.4548   -3.9861    0.7944 F       1  UNL1       -0.1644
     28 F           2.4627   -3.7634   -1.4155 F       1  UNL1       -0.1644
     29 N           1.2239   -1.6390   -0.1376 N.ar    1  UNL1       -0.2101
     30 C          -1.6637   -1.2170   -0.2110 C.3     1  UNL1        0.0169
     31 C          -2.9456   -0.6796   -0.8022 C.3     1  UNL1       -0.0107
     32 H          -7.1012    1.3559   -0.6874 H       1  UNL1        0.0513
     33 H          -6.4719    1.5457    0.9666 H       1  UNL1        0.0513
     34 H          -7.4478   -0.6556    0.7342 H       1  UNL1        0.0440
     35 H          -6.6877   -0.8941   -0.8731 H       1  UNL1        0.0440
     36 H          -5.1070   -2.0401    0.2125 H       1  UNL1        0.1221
     37 H          -3.7403   -0.9255    1.9623 H       1  UNL1        0.0445
     38 H          -4.8536    0.4490    1.8165 H       1  UNL1        0.0445
     39 H          -2.2686    0.8045    1.8527 H       1  UNL1        0.0302
     40 H          -2.8517    2.2025    0.9286 H       1  UNL1        0.0302
     41 H          -1.3154    1.6803   -0.9349 H       1  UNL1        0.0465
     42 H          -0.4882    1.7814    0.6512 H       1  UNL1        0.0465
     43 H           5.3025    1.5876   -1.7973 H       1  UNL1        0.0654
     44 H           7.7346    1.2465   -1.7487 H       1  UNL1        0.0620
     45 H           8.9172    0.8419    0.4167 H       1  UNL1        0.0646
     46 H           5.2537    1.1173    2.4827 H       1  UNL1        0.0683
     47 H           4.5156   -0.9957    0.0648 H       1  UNL1        0.0692
     48 H          -1.2735   -2.0332   -0.8740 H       1  UNL1        0.0465
     49 H          -1.8748   -1.6492    0.7746 H       1  UNL1        0.0465
     50 H          -2.7007   -0.1097   -1.7372 H       1  UNL1        0.0302
     51 H          -3.5901   -1.5236   -1.0499 H       1  UNL1        0.0302
@<TRIPOS>BOND
     1     1     2    2
     2     2     3    2
     3     2     4    1
     4     4     5    1
     5     5     6    1
     6     6     7    1
     7     7     8    1
     8     8     9    1
     9     9    10    1
    10    10    11    1
    11    11    12    1
    12    12    13   ar
    13    13    14   ar
    14    14    15    1
    15    15    16    1
    16    16    17   ar
    17    17    18   ar
    18    18    19   ar
    19    19    20   ar
    20    20    21    1
    21    20    22   ar
    22    14    23   ar
    23    23    24   ar
    24    24    25    1
    25    25    26    1
    26    25    27    1
    27    25    28    1
    28    24    29   ar
    29    11    30    1
    30    30    31    1
    31     8     2    1
    32    29    12   ar
    33    31     8    1
    34    22    16   ar
    35     4    32    1
    36     4    33    1
    37     5    34    1
    38     5    35    1
    39     6    36    1
    40     7    37    1
    41     7    38    1
    42     9    39    1
    43     9    40    1
    44    10    41    1
    45    10    42    1
    46    17    43    1
    47    18    44    1
    48    19    45    1
    49    22    46    1
    50    23    47    1
    51    30    48    1
    52    30    49    1
    53    31    50    1
    54    31    51    1
