
     RDKit          3D

 44 45  0  0  0  0  0  0  0  0999 V2000
    5.4087   -3.3994    0.3019 C   0  0  0  0  0  0  0  0  0  0  0  0
    4.5368   -2.8018   -0.2974 C   0  0  0  0  0  0  0  0  0  0  0  0
    3.4857   -2.0601   -1.0054 C   0  0  0  0  0  0  0  0  0  0  0  0
    3.7452   -0.6750   -1.0235 N   0  0  0  0  0  0  0  0  0  0  0  0
    4.8450   -0.1954   -1.7593 C   0  0  0  0  0  0  0  0  0  0  0  0
    3.4274    0.1050    0.1041 C   0  0  0  0  0  0  0  0  0  0  0  0
    2.0079    0.1772    0.4392 C   0  0  0  0  0  0  0  0  0  0  0  0
    1.4902   -0.5590    1.4729 C   0  0  0  0  0  0  0  0  0  0  0  0
    0.1494   -0.5223    1.8153 C   0  0  0  0  0  0  0  0  0  0  0  0
   -0.7113    0.2701    1.1106 C   0  0  0  0  0  0  0  0  0  0  0  0
   -2.0785    0.3752    1.3777 O   0  0  0  0  0  0  0  0  0  0  0  0
   -2.9372   -0.5092    0.7697 C   0  0  0  0  0  0  0  0  0  0  0  0
   -2.4606   -1.3766    0.0044 O   0  0  0  0  0  0  0  0  0  0  0  0
   -4.3508   -0.4628    0.9877 N   0  0  0  0  0  0  0  0  0  0  0  0
   -5.2190   -1.4028    0.3469 C   0  0  0  0  0  0  0  0  0  0  0  0
   -4.9391    0.5404    1.8528 C   0  0  0  0  0  0  0  0  0  0  0  0
   -5.3047    1.7884    1.0578 C   0  0  0  0  0  0  0  0  0  0  0  0
   -0.1897    1.0190    0.0616 C   0  0  0  0  0  0  0  0  0  0  0  0
   -1.0594    1.8033   -0.6216 N   0  0  0  0  0  0  0  0  0  0  0  0
   -0.5832    2.5421   -1.6377 C   0  0  0  0  0  0  0  0  0  0  0  0
    0.7387    2.5427   -2.0192 C   0  0  0  0  0  0  0  0  0  0  0  0
    1.6186    1.7474   -1.3258 C   0  0  0  0  0  0  0  0  0  0  0  0
    1.1362    0.9874   -0.2821 C   0  0  0  0  0  0  0  0  0  0  0  0
    6.1658   -3.9398    0.8326 H   0  0  0  0  0  0  0  0  0  0  0  0
    2.5150   -2.2732   -0.5465 H   0  0  0  0  0  0  0  0  0  0  0  0
    3.4326   -2.4336   -2.0507 H   0  0  0  0  0  0  0  0  0  0  0  0
    5.0842    0.8453   -1.3946 H   0  0  0  0  0  0  0  0  0  0  0  0
    5.7672   -0.7917   -1.5979 H   0  0  0  0  0  0  0  0  0  0  0  0
    4.6740   -0.0863   -2.8472 H   0  0  0  0  0  0  0  0  0  0  0  0
    3.9834   -0.2946    1.0047 H   0  0  0  0  0  0  0  0  0  0  0  0
    3.8588    1.1270   -0.0286 H   0  0  0  0  0  0  0  0  0  0  0  0
    2.1066   -1.2184    2.0881 H   0  0  0  0  0  0  0  0  0  0  0  0
   -0.2453   -1.1092    2.6334 H   0  0  0  0  0  0  0  0  0  0  0  0
   -4.6748   -1.8789   -0.4843 H   0  0  0  0  0  0  0  0  0  0  0  0
   -6.1797   -0.9386    0.0162 H   0  0  0  0  0  0  0  0  0  0  0  0
   -5.4868   -2.1790    1.1043 H   0  0  0  0  0  0  0  0  0  0  0  0
   -4.2579    0.8649    2.6553 H   0  0  0  0  0  0  0  0  0  0  0  0
   -5.8342    0.1091    2.3393 H   0  0  0  0  0  0  0  0  0  0  0  0
   -4.4209    2.1439    0.5130 H   0  0  0  0  0  0  0  0  0  0  0  0
   -6.0762    1.5502    0.2813 H   0  0  0  0  0  0  0  0  0  0  0  0
   -5.7177    2.5169    1.7612 H   0  0  0  0  0  0  0  0  0  0  0  0
   -1.2464    3.1962   -2.2236 H   0  0  0  0  0  0  0  0  0  0  0  0
    1.1107    3.1445   -2.8426 H   0  0  0  0  0  0  0  0  0  0  0  0
    2.6855    1.7115   -1.5891 H   0  0  0  0  0  0  0  0  0  0  0  0
  1  2  3  0
  2  3  1  0
  3  4  1  0
  4  5  1  0
  4  6  1  0
  6  7  1  0
  7  8  2  0
  8  9  1  0
  9 10  2  0
 10 11  1  0
 11 12  1  0
 12 13  2  0
 12 14  1  0
 14 15  1  0
 14 16  1  0
 16 17  1  0
 10 18  1  0
 18 19  2  0
 19 20  1  0
 20 21  2  0
 21 22  1  0
 22 23  2  0
 23  7  1  0
 23 18  1  0
  1 24  1  0
  3 25  1  0
  3 26  1  0
  5 27  1  0
  5 28  1  0
  5 29  1  0
  6 30  1  0
  6 31  1  0
  8 32  1  0
  9 33  1  0
 15 34  1  0
 15 35  1  0
 15 36  1  0
 16 37  1  0
 16 38  1  0
 17 39  1  0
 17 40  1  0
 17 41  1  0
 20 42  1  0
 21 43  1  0
 22 44  1  0
M  END
$$$$
