@<TRIPOS>MOLECULE
*****
 44 45 0 0 0
SMALL
GASTEIGER

@<TRIPOS>ATOM
      1 C           5.4087   -3.3994    0.3019 C.1     1  UNL1       -0.1179
      2 C           4.5368   -2.8018   -0.2974 C.1     1  UNL1       -0.0900
      3 C           3.4857   -2.0601   -1.0054 C.3     1  UNL1        0.0607
      4 N           3.7452   -0.6750   -1.0235 N.3     1  UNL1       -0.2904
      5 C           4.8450   -0.1954   -1.7593 C.3     1  UNL1       -0.0115
      6 C           3.4274    0.1050    0.1041 C.3     1  UNL1        0.0253
      7 C           2.0079    0.1772    0.4392 C.ar    1  UNL1       -0.0240
      8 C           1.4902   -0.5590    1.4729 C.ar    1  UNL1       -0.0532
      9 C           0.1494   -0.5223    1.8153 C.ar    1  UNL1       -0.0167
     10 C          -0.7113    0.2701    1.1106 C.ar    1  UNL1        0.1590
     11 O          -2.0785    0.3752    1.3777 O.3     1  UNL1       -0.4092
     12 C          -2.9372   -0.5092    0.7697 C.2     1  UNL1        0.4080
     13 O          -2.4606   -1.3766    0.0044 O.2     1  UNL1       -0.2258
     14 N          -4.3508   -0.4628    0.9877 N.am    1  UNL1       -0.2704
     15 C          -5.2190   -1.4028    0.3469 C.3     1  UNL1        0.0063
     16 C          -4.9391    0.5404    1.8528 C.3     1  UNL1        0.0147
     17 C          -5.3047    1.7884    1.0578 C.3     1  UNL1       -0.0492
     18 C          -0.1897    1.0190    0.0616 C.ar    1  UNL1        0.1135
     19 N          -1.0594    1.8033   -0.6216 N.ar    1  UNL1       -0.2513
     20 C          -0.5832    2.5421   -1.6377 C.ar    1  UNL1        0.0284
     21 C           0.7387    2.5427   -2.0192 C.ar    1  UNL1       -0.0430
     22 C           1.6186    1.7474   -1.3258 C.ar    1  UNL1       -0.0507
     23 C           1.1362    0.9874   -0.2821 C.ar    1  UNL1        0.0084
     24 H           6.1658   -3.9398    0.8326 H       1  UNL1        0.1228
     25 H           2.5150   -2.2732   -0.5465 H       1  UNL1        0.0563
     26 H           3.4326   -2.4336   -2.0507 H       1  UNL1        0.0563
     27 H           5.0842    0.8453   -1.3946 H       1  UNL1        0.0391
     28 H           5.7672   -0.7917   -1.5979 H       1  UNL1        0.0391
     29 H           4.6740   -0.0863   -2.8472 H       1  UNL1        0.0391
     30 H           3.9834   -0.2946    1.0047 H       1  UNL1        0.0476
     31 H           3.8588    1.1270   -0.0286 H       1  UNL1        0.0476
     32 H           2.1066   -1.2184    2.0881 H       1  UNL1        0.0622
     33 H          -0.2453   -1.1092    2.6334 H       1  UNL1        0.0655
     34 H          -4.6748   -1.8789   -0.4843 H       1  UNL1        0.0429
     35 H          -6.1797   -0.9386    0.0162 H       1  UNL1        0.0429
     36 H          -5.4868   -2.1790    1.1043 H       1  UNL1        0.0429
     37 H          -4.2579    0.8649    2.6553 H       1  UNL1        0.0463
     38 H          -5.8342    0.1091    2.3393 H       1  UNL1        0.0463
     39 H          -4.4209    2.1439    0.5130 H       1  UNL1        0.0245
     40 H          -6.0762    1.5502    0.2813 H       1  UNL1        0.0245
     41 H          -5.7177    2.5169    1.7612 H       1  UNL1        0.0245
     42 H          -1.2464    3.1962   -2.2236 H       1  UNL1        0.0830
     43 H           1.1107    3.1445   -2.8426 H       1  UNL1        0.0633
     44 H           2.6855    1.7115   -1.5891 H       1  UNL1        0.0625
@<TRIPOS>BOND
     1     1     2    3
     2     2     3    1
     3     3     4    1
     4     4     5    1
     5     4     6    1
     6     6     7    1
     7     7     8   ar
     8     8     9   ar
     9     9    10   ar
    10    10    11    1
    11    11    12    1
    12    12    13    2
    13    12    14   am
    14    14    15    1
    15    14    16    1
    16    16    17    1
    17    10    18   ar
    18    18    19   ar
    19    19    20   ar
    20    20    21   ar
    21    21    22   ar
    22    22    23   ar
    23    23     7   ar
    24    23    18   ar
    25     1    24    1
    26     3    25    1
    27     3    26    1
    28     5    27    1
    29     5    28    1
    30     5    29    1
    31     6    30    1
    32     6    31    1
    33     8    32    1
    34     9    33    1
    35    15    34    1
    36    15    35    1
    37    15    36    1
    38    16    37    1
    39    16    38    1
    40    17    39    1
    41    17    40    1
    42    17    41    1
    43    20    42    1
    44    21    43    1
    45    22    44    1
