@<TRIPOS>MOLECULE
*****
 47 51 0 0 0
SMALL
GASTEIGER

@<TRIPOS>ATOM
      1 O           2.7271   -3.5416   -0.7797 O.2     1  UNL1       -0.4086
      2 N           2.7671   -2.2403   -0.4008 N.2     1  UNL1       -0.0816
      3 C           1.8016   -1.5242   -0.0022 C.2     1  UNL1        0.1738
      4 C           0.4563   -2.0477    0.1046 C.2     1  UNL1        0.2733
      5 O           0.0436   -3.2056   -0.1549 O.2     1  UNL1       -0.2678
      6 N          -0.3994   -1.0144    0.5703 N.am    1  UNL1       -0.2610
      7 C          -1.8039   -1.0149    0.8571 C.3     1  UNL1        0.0487
      8 C          -2.6741   -0.6292   -0.2783 C.ar    1  UNL1        0.0151
      9 C          -2.3890   -0.7481   -1.6261 C.ar    1  UNL1       -0.0183
     10 C          -3.3013   -0.3182   -2.5838 C.ar    1  UNL1        0.1243
     11 F          -2.9862   -0.4451   -3.9000 F       1  UNL1       -0.2055
     12 C          -4.5116    0.2381   -2.2400 C.ar    1  UNL1       -0.0176
     13 C          -4.8080    0.3636   -0.9101 C.ar    1  UNL1        0.0230
     14 C          -3.9104   -0.0604    0.0655 C.ar    1  UNL1        0.1338
     15 O          -4.3818    0.1435    1.3679 O.3     1  UNL1       -0.4655
     16 C          -5.7314   -0.0400    1.6813 C.3     1  UNL1        0.1911
     17 O          -6.5324   -0.0073    0.5630 O.3     1  UNL1       -0.3392
     18 C          -6.0742    0.9450   -0.3428 C.3     1  UNL1        0.0799
     19 C           0.4107    0.1473    0.7530 C.ar    1  UNL1        0.0470
     20 C           0.1144    1.4311    1.1866 C.ar    1  UNL1       -0.0396
     21 C           1.0595    2.4335    1.3035 C.ar    1  UNL1       -0.0594
     22 C           2.3389    2.0655    0.9537 C.ar    1  UNL1       -0.0533
     23 C           2.7365    0.8231    0.5114 C.ar    1  UNL1       -0.0067
     24 C           1.7317   -0.1175    0.4221 C.ar    1  UNL1        0.0378
     25 C           4.1281    0.5579    0.1798 C.ar    1  UNL1       -0.0172
     26 C           4.9244    0.9949    1.2493 C.ar    1  UNL1       -0.0540
     27 C           6.3042    0.8885    1.2676 C.ar    1  UNL1       -0.0612
     28 C           6.9657    0.3209    0.1780 C.ar    1  UNL1       -0.0617
     29 C           6.1589   -0.0969   -0.8553 C.ar    1  UNL1       -0.0612
     30 C           4.7922    0.0012   -0.8891 C.ar    1  UNL1       -0.0540
     31 H           2.1563   -4.2518   -0.3963 H       1  UNL1        0.3278
     32 H          -2.1326   -2.0346    1.1580 H       1  UNL1        0.0519
     33 H          -2.0188   -0.3349    1.7245 H       1  UNL1        0.0519
     34 H          -1.4310   -1.1911   -1.8484 H       1  UNL1        0.0650
     35 H          -5.2456    0.5905   -2.9485 H       1  UNL1        0.0651
     36 H          -5.9161   -1.0003    2.2181 H       1  UNL1        0.1017
     37 H          -6.0340    0.8013    2.3566 H       1  UNL1        0.1017
     38 H          -6.7960    1.2208   -1.1094 H       1  UNL1        0.0612
     39 H          -5.8164    1.8445    0.2523 H       1  UNL1        0.0612
     40 H          -0.9138    1.7089    1.4588 H       1  UNL1        0.0636
     41 H           0.7881    3.4137    1.6442 H       1  UNL1        0.0618
     42 H           3.0808    2.8662    1.0489 H       1  UNL1        0.0624
     43 H           4.5907    1.4690    2.1761 H       1  UNL1        0.0624
     44 H           6.9652    1.2126    2.0651 H       1  UNL1        0.0618
     45 H           8.0270    0.2192    0.1618 H       1  UNL1        0.0618
     46 H           6.6189   -0.5452   -1.7256 H       1  UNL1        0.0618
     47 H           4.1203   -0.2910   -1.6651 H       1  UNL1        0.0624
@<TRIPOS>BOND
     1     1     2    1
     2     2     3    2
     3     3     4    1
     4     4     5    2
     5     4     6   am
     6     6     7    1
     7     7     8    1
     8     8     9   ar
     9     9    10   ar
    10    10    11    1
    11    10    12   ar
    12    12    13   ar
    13    13    14   ar
    14    14    15    1
    15    15    16    1
    16    16    17    1
    17    17    18    1
    18     6    19    1
    19    19    20   ar
    20    20    21   ar
    21    21    22   ar
    22    22    23   ar
    23    23    24   ar
    24    23    25    1
    25    25    26   ar
    26    26    27   ar
    27    27    28   ar
    28    28    29   ar
    29    29    30   ar
    30    24     3    1
    31    30    25   ar
    32    14     8   ar
    33    24    19   ar
    34    18    13    1
    35     1    31    1
    36     7    32    1
    37     7    33    1
    38     9    34    1
    39    12    35    1
    40    16    36    1
    41    16    37    1
    42    18    38    1
    43    18    39    1
    44    20    40    1
    45    21    41    1
    46    22    42    1
    47    26    43    1
    48    27    44    1
    49    28    45    1
    50    29    46    1
    51    30    47    1
