
     RDKit          3D

 90 95  0  0  0  0  0  0  0  0999 V2000
    7.8491    3.5054    2.0675 C   0  0  0  0  0  0  0  0  0  0  0  0
    6.5039    3.8396    1.8633 C   0  0  0  0  0  0  0  0  0  0  0  0
    5.6612    2.9236    1.2844 C   0  0  0  0  0  0  0  0  0  0  0  0
    6.1827    1.7009    0.9254 C   0  0  0  0  0  0  0  0  0  0  0  0
    5.2878    0.7720    0.3273 C   0  0  0  0  0  0  0  0  0  0  0  0
    4.1135    1.0948    0.1329 N   0  0  0  0  0  0  0  0  0  0  0  0
    2.9999    0.5376   -0.3849 C   0  0  0  0  0  0  0  0  0  0  0  0
    2.3667    1.2113   -1.6129 C   0  0  0  0  0  0  0  0  0  0  0  0
    1.1504    0.4305   -1.9756 C   0  0  0  0  0  0  0  0  0  0  0  0
    0.0862    0.3929   -0.9199 C   0  0  0  0  0  0  0  0  0  0  0  0
   -1.1173   -0.4058   -1.3394 C   0  0  0  0  0  0  0  0  0  0  0  0
   -1.8044    0.1360   -2.5797 C   0  0  0  0  0  0  0  0  0  0  0  0
   -2.2901    1.5243   -2.4335 C   0  0  0  0  0  0  0  0  0  0  0  0
   -3.3269    1.4796   -1.2439 C   0  0  0  0  0  0  0  0  0  0  0  0
   -4.3344    0.6954   -1.4884 N   0  0  0  0  0  0  0  0  0  0  0  0
   -5.3644    0.2853   -0.9844 C   0  0  0  0  0  0  0  0  0  0  0  0
   -6.1951   -0.6165   -1.6852 C   0  0  0  0  0  0  0  0  0  0  0  0
   -5.8450   -1.0599   -2.9303 C   0  0  0  0  0  0  0  0  0  0  0  0
   -6.7065   -1.9363   -3.5527 C   0  0  0  0  0  0  0  0  0  0  0  0
   -7.8878   -2.3655   -2.9591 C   0  0  0  0  0  0  0  0  0  0  0  0
   -8.2270   -1.9122   -1.7083 C   0  0  0  0  0  0  0  0  0  0  0  0
   -7.3465   -1.0271   -1.0923 C   0  0  0  0  0  0  0  0  0  0  0  0
   -7.6290   -0.5523    0.1232 N   0  0  0  0  0  0  0  0  0  0  0  0
   -6.8084    0.3094    0.7612 C   0  0  0  0  0  0  0  0  0  0  0  0
   -5.6387    0.7681    0.2413 N   0  0  0  0  0  0  0  0  0  0  0  0
   -4.5370    1.6265    0.6027 C   0  0  0  0  0  0  0  0  0  0  0  0
   -3.6092    1.0956    1.6583 C   0  0  0  0  0  0  0  0  0  0  0  0
   -4.1539    0.7292    2.9973 C   0  0  0  0  0  0  0  0  0  0  0  0
   -5.3380   -0.1672    3.0068 C   0  0  0  0  0  0  0  0  0  0  0  0
   -6.6342    0.6034    3.2546 C   0  0  0  0  0  0  0  0  0  0  0  0
   -7.5422    0.5827    2.0658 C   0  0  0  0  0  0  0  0  0  0  0  0
    5.7007   -0.4444   -0.0552 N   0  0  0  0  0  0  0  0  0  0  0  0
    7.0219   -0.6954    0.1743 C   0  0  0  0  0  0  0  0  0  0  0  0
    7.8885    0.1542    0.7329 N   0  0  0  0  0  0  0  0  0  0  0  0
    7.4822    1.3559    1.1140 C   0  0  0  0  0  0  0  0  0  0  0  0
    8.3430    2.2778    1.6999 C   0  0  0  0  0  0  0  0  0  0  0  0
    7.8231   -1.9219   -0.1486 C   0  0  0  0  0  0  0  0  0  0  0  0
    7.1557   -3.2087    0.1111 C   0  0  0  0  0  0  0  0  0  0  0  0
    6.0494   -3.1336    1.1379 C   0  0  0  0  0  0  0  0  0  0  0  0
    4.7732   -3.4368    0.4217 C   0  0  0  0  0  0  0  0  0  0  0  0
    3.9669   -2.2171    0.2174 C   0  0  0  0  0  0  0  0  0  0  0  0
    4.5246   -1.0638   -0.5548 C   0  0  0  0  0  0  0  0  0  0  0  0
    8.5207    4.2361    2.5287 H   0  0  0  0  0  0  0  0  0  0  0  0
    6.1625    4.8114    2.1665 H   0  0  0  0  0  0  0  0  0  0  0  0
    4.6261    3.1193    1.1026 H   0  0  0  0  0  0  0  0  0  0  0  0
    2.3779   -0.2962   -0.0036 H   0  0  0  0  0  0  0  0  0  0  0  0
    2.3220    1.1946    0.3463 H   0  0  0  0  0  0  0  0  0  0  0  0
    3.0660    1.1180   -2.4984 H   0  0  0  0  0  0  0  0  0  0  0  0
    2.2101    2.2928   -1.5118 H   0  0  0  0  0  0  0  0  0  0  0  0
    0.6398    0.8452   -2.8950 H   0  0  0  0  0  0  0  0  0  0  0  0
    1.4207   -0.6205   -2.3061 H   0  0  0  0  0  0  0  0  0  0  0  0
    0.4580   -0.0468    0.0096 H   0  0  0  0  0  0  0  0  0  0  0  0
   -0.1642    1.4503   -0.6903 H   0  0  0  0  0  0  0  0  0  0  0  0
   -1.8510   -0.4164   -0.5267 H   0  0  0  0  0  0  0  0  0  0  0  0
   -0.7698   -1.4398   -1.5582 H   0  0  0  0  0  0  0  0  0  0  0  0
   -1.1194   -0.0170   -3.4225 H   0  0  0  0  0  0  0  0  0  0  0  0
   -2.6486   -0.6006   -2.7675 H   0  0  0  0  0  0  0  0  0  0  0  0
   -2.7649    1.8583   -3.3552 H   0  0  0  0  0  0  0  0  0  0  0  0
   -1.4878    2.2075   -2.1855 H   0  0  0  0  0  0  0  0  0  0  0  0
   -2.8625    2.0848   -0.4747 H   0  0  0  0  0  0  0  0  0  0  0  0
   -3.8311    2.4272   -1.6914 H   0  0  0  0  0  0  0  0  0  0  0  0
   -4.9308   -0.7241   -3.3909 H   0  0  0  0  0  0  0  0  0  0  0  0
   -6.4871   -2.3199   -4.5307 H   0  0  0  0  0  0  0  0  0  0  0  0
   -8.5730   -3.0536   -3.4381 H   0  0  0  0  0  0  0  0  0  0  0  0
   -9.1163   -2.1884   -1.1754 H   0  0  0  0  0  0  0  0  0  0  0  0
   -4.5653    2.7198    0.3515 H   0  0  0  0  0  0  0  0  0  0  0  0
   -5.1266    2.1509    1.4737 H   0  0  0  0  0  0  0  0  0  0  0  0
   -2.9198    1.9761    1.8773 H   0  0  0  0  0  0  0  0  0  0  0  0
   -2.9503    0.2914    1.3786 H   0  0  0  0  0  0  0  0  0  0  0  0
   -4.4841    1.7009    3.4739 H   0  0  0  0  0  0  0  0  0  0  0  0
   -3.3086    0.3760    3.6054 H   0  0  0  0  0  0  0  0  0  0  0  0
   -5.2212   -0.8493    3.8783 H   0  0  0  0  0  0  0  0  0  0  0  0
   -5.4207   -0.8409    2.1291 H   0  0  0  0  0  0  0  0  0  0  0  0
   -7.2022    0.1938    4.1159 H   0  0  0  0  0  0  0  0  0  0  0  0
   -6.3901    1.6627    3.5648 H   0  0  0  0  0  0  0  0  0  0  0  0
   -8.3103   -0.2006    2.1681 H   0  0  0  0  0  0  0  0  0  0  0  0
   -8.0042    1.5607    1.9431 H   0  0  0  0  0  0  0  0  0  0  0  0
    9.3667    1.9620    1.8307 H   0  0  0  0  0  0  0  0  0  0  0  0
    8.0340   -1.8332   -1.2526 H   0  0  0  0  0  0  0  0  0  0  0  0
    8.7901   -1.7908    0.3854 H   0  0  0  0  0  0  0  0  0  0  0  0
    7.8793   -3.9744    0.4932 H   0  0  0  0  0  0  0  0  0  0  0  0
    6.7917   -3.6412   -0.8525 H   0  0  0  0  0  0  0  0  0  0  0  0
    6.0185   -2.1219    1.5821 H   0  0  0  0  0  0  0  0  0  0  0  0
    6.2024   -3.8749    1.9701 H   0  0  0  0  0  0  0  0  0  0  0  0
    4.9774   -4.0082   -0.5099 H   0  0  0  0  0  0  0  0  0  0  0  0
    4.1701   -4.1404    1.0703 H   0  0  0  0  0  0  0  0  0  0  0  0
    3.5786   -1.9284    1.2383 H   0  0  0  0  0  0  0  0  0  0  0  0
    3.0455   -2.5385   -0.3450 H   0  0  0  0  0  0  0  0  0  0  0  0
    4.1251   -0.8161   -1.5646 H   0  0  0  0  0  0  0  0  0  0  0  0
    5.1321   -1.8250   -1.2367 H   0  0  0  0  0  0  0  0  0  0  0  0
  1  2  2  0
  2  3  1  0
  3  4  2  0
  4  5  1  0
  5  6  2  0
  6  7  1  0
  7  8  1  0
  8  9  1  0
  9 10  1  0
 10 11  1  0
 11 12  1  0
 12 13  1  0
 13 14  1  0
 14 15  1  0
 15 16  2  0
 16 17  1  0
 17 18  2  0
 18 19  1  0
 19 20  2  0
 20 21  1  0
 21 22  2  0
 22 23  1  0
 23 24  2  0
 24 25  1  0
 25 26  1  0
 26 27  1  0
 27 28  1  0
 28 29  1  0
 29 30  1  0
 30 31  1  0
  5 32  1  0
 32 33  1  0
 33 34  2  0
 34 35  1  0
 35 36  2  0
 33 37  1  0
 37 38  1  0
 38 39  1  0
 39 40  1  0
 40 41  1  0
 41 42  1  0
 36  1  1  0
 35  4  1  0
 25 16  1  0
 42 32  1  0
 22 17  1  0
 31 24  1  0
  1 43  1  0
  2 44  1  0
  3 45  1  0
  7 46  1  0
  7 47  1  0
  8 48  1  0
  8 49  1  0
  9 50  1  0
  9 51  1  0
 10 52  1  0
 10 53  1  0
 11 54  1  0
 11 55  1  0
 12 56  1  0
 12 57  1  0
 13 58  1  0
 13 59  1  0
 14 60  1  0
 14 61  1  0
 18 62  1  0
 19 63  1  0
 20 64  1  0
 21 65  1  0
 26 66  1  0
 26 67  1  0
 27 68  1  0
 27 69  1  0
 28 70  1  0
 28 71  1  0
 29 72  1  0
 29 73  1  0
 30 74  1  0
 30 75  1  0
 31 76  1  0
 31 77  1  0
 36 78  1  0
 37 79  1  0
 37 80  1  0
 38 81  1  0
 38 82  1  0
 39 83  1  0
 39 84  1  0
 40 85  1  0
 40 86  1  0
 41 87  1  0
 41 88  1  0
 42 89  1  0
 42 90  1  0
M  END
$$$$
