@<TRIPOS>MOLECULE
*****
 90 95 0 0 0
SMALL
GASTEIGER

@<TRIPOS>ATOM
      1 C           7.8491    3.5054    2.0675 C.ar    1  UNL1       -0.0597
      2 C           6.5039    3.8396    1.8633 C.ar    1  UNL1       -0.0610
      3 C           5.6612    2.9236    1.2844 C.ar    1  UNL1       -0.0491
      4 C           6.1827    1.7009    0.9254 C.ar    1  UNL1        0.0425
      5 C           5.2878    0.7720    0.3273 C.ar    1  UNL1        0.1393
      6 N           4.1135    1.0948    0.1329 N.2     1  UNL1       -0.2664
      7 C           2.9999    0.5376   -0.3849 C.3     1  UNL1        0.0419
      8 C           2.3667    1.2113   -1.6129 C.3     1  UNL1       -0.0333
      9 C           1.1504    0.4305   -1.9756 C.3     1  UNL1       -0.0514
     10 C           0.0862    0.3929   -0.9199 C.3     1  UNL1       -0.0530
     11 C          -1.1173   -0.4058   -1.3394 C.3     1  UNL1       -0.0530
     12 C          -1.8044    0.1360   -2.5797 C.3     1  UNL1       -0.0514
     13 C          -2.2901    1.5243   -2.4335 C.3     1  UNL1       -0.0333
     14 C          -3.3269    1.4796   -1.2439 C.3     1  UNL1        0.0419
     15 N          -4.3344    0.6954   -1.4884 N.2     1  UNL1       -0.2664
     16 C          -5.3644    0.2853   -0.9844 C.ar    1  UNL1        0.1393
     17 C          -6.1951   -0.6165   -1.6852 C.ar    1  UNL1        0.0425
     18 C          -5.8450   -1.0599   -2.9303 C.ar    1  UNL1       -0.0491
     19 C          -6.7065   -1.9363   -3.5527 C.ar    1  UNL1       -0.0610
     20 C          -7.8878   -2.3655   -2.9591 C.ar    1  UNL1       -0.0597
     21 C          -8.2270   -1.9122   -1.7083 C.ar    1  UNL1       -0.0356
     22 C          -7.3465   -1.0271   -1.0923 C.ar    1  UNL1        0.0765
     23 N          -7.6290   -0.5523    0.1232 N.ar    1  UNL1       -0.2336
     24 C          -6.8084    0.3094    0.7612 C.ar    1  UNL1        0.1117
     25 N          -5.6387    0.7681    0.2413 N.ar    1  UNL1       -0.3139
     26 C          -4.5370    1.6265    0.6027 C.3     1  UNL1        0.0262
     27 C          -3.6092    1.0956    1.6583 C.3     1  UNL1       -0.0349
     28 C          -4.1539    0.7292    2.9973 C.3     1  UNL1       -0.0514
     29 C          -5.3380   -0.1672    3.0068 C.3     1  UNL1       -0.0526
     30 C          -6.6342    0.6034    3.2546 C.3     1  UNL1       -0.0462
     31 C          -7.5422    0.5827    2.0658 C.3     1  UNL1        0.0057
     32 N           5.7007   -0.4444   -0.0552 N.ar    1  UNL1       -0.3139
     33 C           7.0219   -0.6954    0.1743 C.ar    1  UNL1        0.1117
     34 N           7.8885    0.1542    0.7329 N.ar    1  UNL1       -0.2336
     35 C           7.4822    1.3559    1.1140 C.ar    1  UNL1        0.0765
     36 C           8.3430    2.2778    1.6999 C.ar    1  UNL1       -0.0356
     37 C           7.8231   -1.9219   -0.1486 C.3     1  UNL1        0.0057
     38 C           7.1557   -3.2087    0.1111 C.3     1  UNL1       -0.0462
     39 C           6.0494   -3.1336    1.1379 C.3     1  UNL1       -0.0526
     40 C           4.7732   -3.4368    0.4217 C.3     1  UNL1       -0.0514
     41 C           3.9669   -2.2171    0.2174 C.3     1  UNL1       -0.0349
     42 C           4.5246   -1.0638   -0.5548 C.3     1  UNL1        0.0262
     43 H           8.5207    4.2361    2.5287 H       1  UNL1        0.0618
     44 H           6.1625    4.8114    2.1665 H       1  UNL1        0.0618
     45 H           4.6261    3.1193    1.1026 H       1  UNL1        0.0625
     46 H           2.3779   -0.2962   -0.0036 H       1  UNL1        0.0509
     47 H           2.3220    1.1946    0.3463 H       1  UNL1        0.0509
     48 H           3.0660    1.1180   -2.4984 H       1  UNL1        0.0283
     49 H           2.2101    2.2928   -1.5118 H       1  UNL1        0.0283
     50 H           0.6398    0.8452   -2.8950 H       1  UNL1        0.0266
     51 H           1.4207   -0.6205   -2.3061 H       1  UNL1        0.0266
     52 H           0.4580   -0.0468    0.0096 H       1  UNL1        0.0265
     53 H          -0.1642    1.4503   -0.6903 H       1  UNL1        0.0265
     54 H          -1.8510   -0.4164   -0.5267 H       1  UNL1        0.0265
     55 H          -0.7698   -1.4398   -1.5582 H       1  UNL1        0.0265
     56 H          -1.1194   -0.0170   -3.4225 H       1  UNL1        0.0266
     57 H          -2.6486   -0.6006   -2.7675 H       1  UNL1        0.0266
     58 H          -2.7649    1.8583   -3.3552 H       1  UNL1        0.0283
     59 H          -1.4878    2.2075   -2.1855 H       1  UNL1        0.0283
     60 H          -2.8625    2.0848   -0.4747 H       1  UNL1        0.0509
     61 H          -3.8311    2.4272   -1.6914 H       1  UNL1        0.0509
     62 H          -4.9308   -0.7241   -3.3909 H       1  UNL1        0.0625
     63 H          -6.4871   -2.3199   -4.5307 H       1  UNL1        0.0618
     64 H          -8.5730   -3.0536   -3.4381 H       1  UNL1        0.0618
     65 H          -9.1163   -2.1884   -1.1754 H       1  UNL1        0.0639
     66 H          -4.5653    2.7198    0.3515 H       1  UNL1        0.0493
     67 H          -5.1266    2.1509    1.4737 H       1  UNL1        0.0493
     68 H          -2.9198    1.9761    1.8773 H       1  UNL1        0.0282
     69 H          -2.9503    0.2914    1.3786 H       1  UNL1        0.0282
     70 H          -4.4841    1.7009    3.4739 H       1  UNL1        0.0266
     71 H          -3.3086    0.3760    3.6054 H       1  UNL1        0.0266
     72 H          -5.2212   -0.8493    3.8783 H       1  UNL1        0.0265
     73 H          -5.4207   -0.8409    2.1291 H       1  UNL1        0.0265
     74 H          -7.2022    0.1938    4.1159 H       1  UNL1        0.0269
     75 H          -6.3901    1.6627    3.5648 H       1  UNL1        0.0269
     76 H          -8.3103   -0.2006    2.1681 H       1  UNL1        0.0343
     77 H          -8.0042    1.5607    1.9431 H       1  UNL1        0.0343
     78 H           9.3667    1.9620    1.8307 H       1  UNL1        0.0639
     79 H           8.0340   -1.8332   -1.2526 H       1  UNL1        0.0343
     80 H           8.7901   -1.7908    0.3854 H       1  UNL1        0.0343
     81 H           7.8793   -3.9744    0.4932 H       1  UNL1        0.0269
     82 H           6.7917   -3.6412   -0.8525 H       1  UNL1        0.0269
     83 H           6.0185   -2.1219    1.5821 H       1  UNL1        0.0265
     84 H           6.2024   -3.8749    1.9701 H       1  UNL1        0.0265
     85 H           4.9774   -4.0082   -0.5099 H       1  UNL1        0.0266
     86 H           4.1701   -4.1404    1.0703 H       1  UNL1        0.0266
     87 H           3.5786   -1.9284    1.2383 H       1  UNL1        0.0282
     88 H           3.0455   -2.5385   -0.3450 H       1  UNL1        0.0282
     89 H           4.1251   -0.8161   -1.5646 H       1  UNL1        0.0493
     90 H           5.1321   -1.8250   -1.2367 H       1  UNL1        0.0493
@<TRIPOS>BOND
     1     1     2   ar
     2     2     3   ar
     3     3     4   ar
     4     4     5   ar
     5     5     6    2
     6     6     7    1
     7     7     8    1
     8     8     9    1
     9     9    10    1
    10    10    11    1
    11    11    12    1
    12    12    13    1
    13    13    14    1
    14    14    15    1
    15    15    16    2
    16    16    17   ar
    17    17    18   ar
    18    18    19   ar
    19    19    20   ar
    20    20    21   ar
    21    21    22   ar
    22    22    23   ar
    23    23    24   ar
    24    24    25   ar
    25    25    26    1
    26    26    27    1
    27    27    28    1
    28    28    29    1
    29    29    30    1
    30    30    31    1
    31     5    32   ar
    32    32    33   ar
    33    33    34   ar
    34    34    35   ar
    35    35    36   ar
    36    33    37    1
    37    37    38    1
    38    38    39    1
    39    39    40    1
    40    40    41    1
    41    41    42    1
    42    36     1   ar
    43    35     4   ar
    44    25    16   ar
    45    42    32    1
    46    22    17   ar
    47    31    24    1
    48     1    43    1
    49     2    44    1
    50     3    45    1
    51     7    46    1
    52     7    47    1
    53     8    48    1
    54     8    49    1
    55     9    50    1
    56     9    51    1
    57    10    52    1
    58    10    53    1
    59    11    54    1
    60    11    55    1
    61    12    56    1
    62    12    57    1
    63    13    58    1
    64    13    59    1
    65    14    60    1
    66    14    61    1
    67    18    62    1
    68    19    63    1
    69    20    64    1
    70    21    65    1
    71    26    66    1
    72    26    67    1
    73    27    68    1
    74    27    69    1
    75    28    70    1
    76    28    71    1
    77    29    72    1
    78    29    73    1
    79    30    74    1
    80    30    75    1
    81    31    76    1
    82    31    77    1
    83    36    78    1
    84    37    79    1
    85    37    80    1
    86    38    81    1
    87    38    82    1
    88    39    83    1
    89    39    84    1
    90    40    85    1
    91    40    86    1
    92    41    87    1
    93    41    88    1
    94    42    89    1
    95    42    90    1
