@<TRIPOS>MOLECULE
*****
 70 75 0 0 0
SMALL
GASTEIGER

@<TRIPOS>ATOM
      1 N          -7.7951    0.2181   -2.1492 N.am    1  UNL1       -0.3289
      2 C          -6.7843    1.1946   -1.9100 C.2     1  UNL1        0.2167
      3 O          -6.8828    2.2832   -2.5129 O.2     1  UNL1       -0.2754
      4 C          -5.6962    0.8481   -0.9680 C.3     1  UNL1        0.0476
      5 C          -6.3155    0.5556    0.3695 C.3     1  UNL1       -0.0362
      6 C          -5.2194    0.1667    1.3336 C.3     1  UNL1       -0.0395
      7 C          -4.2493    1.2997    1.4564 C.3     1  UNL1       -0.0456
      8 C          -3.6138    1.5885    0.1237 C.3     1  UNL1       -0.0211
      9 C          -4.7166    1.9938   -0.8373 C.3     1  UNL1       -0.0345
     10 C          -2.8709    0.3895   -0.4202 C.3     1  UNL1        0.0289
     11 N          -1.8654   -0.0111    0.5533 N.am    1  UNL1       -0.3106
     12 C          -0.4713   -0.0325    0.2432 C.2     1  UNL1        0.2308
     13 O          -0.1587    0.3165   -0.9262 O.2     1  UNL1       -0.2741
     14 C           0.5279   -0.4480    1.2651 C.3     1  UNL1        0.0901
     15 C           0.2148   -1.6714    2.0191 C.3     1  UNL1       -0.0169
     16 C           0.0351   -3.0047    1.4298 C.3     1  UNL1       -0.0480
     17 C           1.3130   -2.7124    2.1610 C.3     1  UNL1       -0.0480
     18 N           1.8539   -0.4307    0.8258 N.3     1  UNL1       -0.2883
     19 C           2.2573   -1.0154   -0.3697 C.3     1  UNL1        0.0154
     20 C           3.7667   -1.1709   -0.3736 C.3     1  UNL1        0.0263
     21 N           4.3794    0.1340   -0.2097 N.pl3   1  UNL1       -0.3127
     22 C           5.7203    0.3673   -0.5520 C.ar    1  UNL1        0.1213
     23 C           6.5444   -0.6300   -1.0322 C.ar    1  UNL1       -0.0212
     24 C           7.8489   -0.4031   -1.3664 C.ar    1  UNL1       -0.0454
     25 C           8.3590    0.8672   -1.2183 C.ar    1  UNL1        0.0730
     26 C           9.7944    1.1307   -1.5827 C.3     1  UNL1        0.4188
     27 F          10.4578   -0.0925   -1.6097 F       1  UNL1       -0.1658
     28 F           9.8272    1.7091   -2.8376 F       1  UNL1       -0.1658
     29 F          10.3427    1.9604   -0.6248 F       1  UNL1       -0.1658
     30 C           7.5426    1.8657   -0.7401 C.ar    1  UNL1        0.0413
     31 N           6.2701    1.5910   -0.4268 N.ar    1  UNL1       -0.2398
     32 C           3.5851    1.2393    0.3294 C.3     1  UNL1        0.0263
     33 C           2.6764    0.6057    1.3607 C.3     1  UNL1        0.0154
     34 C          -3.8809   -0.7256   -0.5689 C.3     1  UNL1       -0.0211
     35 C          -4.4903   -1.0308    0.7610 C.3     1  UNL1       -0.0456
     36 C          -4.9803   -0.3562   -1.5302 C.3     1  UNL1       -0.0345
     37 H          -7.5829   -0.5544   -2.8176 H       1  UNL1        0.1449
     38 H          -8.7282    0.2210   -1.7051 H       1  UNL1        0.1449
     39 H          -6.8020    1.4556    0.7537 H       1  UNL1        0.0278
     40 H          -6.9934   -0.3205    0.2842 H       1  UNL1        0.0278
     41 H          -5.6043   -0.0703    2.3292 H       1  UNL1        0.0301
     42 H          -3.5198    1.0901    2.2557 H       1  UNL1        0.0271
     43 H          -4.8092    2.2069    1.7560 H       1  UNL1        0.0271
     44 H          -2.9481    2.4791    0.2475 H       1  UNL1        0.0319
     45 H          -5.2693    2.8436   -0.3724 H       1  UNL1        0.0278
     46 H          -4.2979    2.2332   -1.8247 H       1  UNL1        0.0278
     47 H          -2.4135    0.6728   -1.3848 H       1  UNL1        0.0504
     48 H          -2.1123   -0.3010    1.5237 H       1  UNL1        0.1490
     49 H           0.4784    0.4097    2.0314 H       1  UNL1        0.0561
     50 H          -0.3360   -1.5190    3.0088 H       1  UNL1        0.0321
     51 H           0.0633   -3.2415    0.3699 H       1  UNL1        0.0269
     52 H          -0.6343   -3.7088    1.9844 H       1  UNL1        0.0269
     53 H           1.4799   -3.1705    3.1651 H       1  UNL1        0.0269
     54 H           2.2146   -2.6969    1.5634 H       1  UNL1        0.0269
     55 H           2.0570   -0.3322   -1.2605 H       1  UNL1        0.0442
     56 H           1.8107   -1.9673   -0.6092 H       1  UNL1        0.0442
     57 H           4.1261   -1.6026   -1.3330 H       1  UNL1        0.0477
     58 H           4.1066   -1.8002    0.4710 H       1  UNL1        0.0477
     59 H           6.1422   -1.6344   -1.1482 H       1  UNL1        0.0652
     60 H           8.4913   -1.2104   -1.7478 H       1  UNL1        0.0625
     61 H           7.9666    2.8650   -0.6304 H       1  UNL1        0.0836
     62 H           4.2158    1.9775    0.8642 H       1  UNL1        0.0477
     63 H           2.9760    1.7354   -0.4250 H       1  UNL1        0.0477
     64 H           3.2963    0.1656    2.1732 H       1  UNL1        0.0442
     65 H           2.0439    1.3927    1.8162 H       1  UNL1        0.0442
     66 H          -3.3343   -1.6202   -0.9188 H       1  UNL1        0.0319
     67 H          -5.2802   -1.8206    0.6338 H       1  UNL1        0.0271
     68 H          -3.8073   -1.4219    1.5175 H       1  UNL1        0.0271
     69 H          -4.6011   -0.1428   -2.5290 H       1  UNL1        0.0278
     70 H          -5.7206   -1.2020   -1.5022 H       1  UNL1        0.0278
@<TRIPOS>BOND
     1     1     2   am
     2     2     3    2
     3     4     2    1
     4     4     5    1
     5     5     6    1
     6     6     7    1
     7     7     8    1
     8     8     9    1
     9     8    10    1
    10    10    11    1
    11    11    12   am
    12    12    13    2
    13    12    14    1
    14    14    15    1
    15    15    16    1
    16    16    17    1
    17    14    18    1
    18    18    19    1
    19    19    20    1
    20    20    21    1
    21    21    22    1
    22    22    23   ar
    23    23    24   ar
    24    24    25   ar
    25    25    26    1
    26    26    27    1
    27    26    28    1
    28    26    29    1
    29    25    30   ar
    30    30    31   ar
    31    21    32    1
    32    32    33    1
    33    10    34    1
    34    34    35    1
    35    34    36    1
    36     9     4    1
    37    17    15    1
    38    33    18    1
    39    36     4    1
    40    35     6    1
    41    31    22   ar
    42     1    37    1
    43     1    38    1
    44     5    39    1
    45     5    40    1
    46     6    41    1
    47     7    42    1
    48     7    43    1
    49     8    44    1
    50     9    45    1
    51     9    46    1
    52    10    47    1
    53    11    48    1
    54    14    49    1
    55    15    50    1
    56    16    51    1
    57    16    52    1
    58    17    53    1
    59    17    54    1
    60    19    55    1
    61    19    56    1
    62    20    57    1
    63    20    58    1
    64    23    59    1
    65    24    60    1
    66    30    61    1
    67    32    62    1
    68    32    63    1
    69    33    64    1
    70    33    65    1
    71    34    66    1
    72    35    67    1
    73    35    68    1
    74    36    69    1
    75    36    70    1
