
     RDKit          3D

 70 75  0  0  0  0  0  0  0  0999 V2000
   -7.7951    0.2181   -2.1492 N   0  0  0  0  0  0  0  0  0  0  0  0
   -6.7843    1.1946   -1.9100 C   0  0  0  0  0  0  0  0  0  0  0  0
   -6.8828    2.2832   -2.5129 O   0  0  0  0  0  0  0  0  0  0  0  0
   -5.6962    0.8481   -0.9680 C   0  0  2  0  0  0  0  0  0  0  0  0
   -6.3155    0.5556    0.3695 C   0  0  0  0  0  0  0  0  0  0  0  0
   -5.2194    0.1667    1.3336 C   0  0  0  0  0  0  0  0  0  0  0  0
   -4.2493    1.2997    1.4564 C   0  0  0  0  0  0  0  0  0  0  0  0
   -3.6138    1.5885    0.1237 C   0  0  0  0  0  0  0  0  0  0  0  0
   -4.7166    1.9938   -0.8373 C   0  0  0  0  0  0  0  0  0  0  0  0
   -2.8709    0.3895   -0.4202 C   0  0  1  0  0  0  0  0  0  0  0  0
   -1.8654   -0.0111    0.5533 N   0  0  0  0  0  0  0  0  0  0  0  0
   -0.4713   -0.0325    0.2432 C   0  0  0  0  0  0  0  0  0  0  0  0
   -0.1587    0.3165   -0.9262 O   0  0  0  0  0  0  0  0  0  0  0  0
    0.5279   -0.4480    1.2651 C   0  0  0  0  0  0  0  0  0  0  0  0
    0.2148   -1.6714    2.0191 C   0  0  0  0  0  0  0  0  0  0  0  0
    0.0351   -3.0047    1.4298 C   0  0  0  0  0  0  0  0  0  0  0  0
    1.3130   -2.7124    2.1610 C   0  0  0  0  0  0  0  0  0  0  0  0
    1.8539   -0.4307    0.8258 N   0  0  0  0  0  0  0  0  0  0  0  0
    2.2573   -1.0154   -0.3697 C   0  0  0  0  0  0  0  0  0  0  0  0
    3.7667   -1.1709   -0.3736 C   0  0  0  0  0  0  0  0  0  0  0  0
    4.3794    0.1340   -0.2097 N   0  0  0  0  0  0  0  0  0  0  0  0
    5.7203    0.3673   -0.5520 C   0  0  0  0  0  0  0  0  0  0  0  0
    6.5444   -0.6300   -1.0322 C   0  0  0  0  0  0  0  0  0  0  0  0
    7.8489   -0.4031   -1.3664 C   0  0  0  0  0  0  0  0  0  0  0  0
    8.3590    0.8672   -1.2183 C   0  0  0  0  0  0  0  0  0  0  0  0
    9.7944    1.1307   -1.5827 C   0  0  0  0  0  0  0  0  0  0  0  0
   10.4578   -0.0925   -1.6097 F   0  0  0  0  0  0  0  0  0  0  0  0
    9.8272    1.7091   -2.8376 F   0  0  0  0  0  0  0  0  0  0  0  0
   10.3427    1.9604   -0.6248 F   0  0  0  0  0  0  0  0  0  0  0  0
    7.5426    1.8657   -0.7401 C   0  0  0  0  0  0  0  0  0  0  0  0
    6.2701    1.5910   -0.4268 N   0  0  0  0  0  0  0  0  0  0  0  0
    3.5851    1.2393    0.3294 C   0  0  0  0  0  0  0  0  0  0  0  0
    2.6764    0.6057    1.3607 C   0  0  0  0  0  0  0  0  0  0  0  0
   -3.8809   -0.7256   -0.5689 C   0  0  0  0  0  0  0  0  0  0  0  0
   -4.4903   -1.0308    0.7610 C   0  0  0  0  0  0  0  0  0  0  0  0
   -4.9803   -0.3562   -1.5302 C   0  0  0  0  0  0  0  0  0  0  0  0
   -7.5829   -0.5544   -2.8176 H   0  0  0  0  0  0  0  0  0  0  0  0
   -8.7282    0.2210   -1.7051 H   0  0  0  0  0  0  0  0  0  0  0  0
   -6.8020    1.4556    0.7537 H   0  0  0  0  0  0  0  0  0  0  0  0
   -6.9934   -0.3205    0.2842 H   0  0  0  0  0  0  0  0  0  0  0  0
   -5.6043   -0.0703    2.3292 H   0  0  0  0  0  0  0  0  0  0  0  0
   -3.5198    1.0901    2.2557 H   0  0  0  0  0  0  0  0  0  0  0  0
   -4.8092    2.2069    1.7560 H   0  0  0  0  0  0  0  0  0  0  0  0
   -2.9481    2.4791    0.2475 H   0  0  0  0  0  0  0  0  0  0  0  0
   -5.2693    2.8436   -0.3724 H   0  0  0  0  0  0  0  0  0  0  0  0
   -4.2979    2.2332   -1.8247 H   0  0  0  0  0  0  0  0  0  0  0  0
   -2.4135    0.6728   -1.3848 H   0  0  0  0  0  0  0  0  0  0  0  0
   -2.1123   -0.3010    1.5237 H   0  0  0  0  0  0  0  0  0  0  0  0
    0.4784    0.4097    2.0314 H   0  0  0  0  0  0  0  0  0  0  0  0
   -0.3360   -1.5190    3.0088 H   0  0  0  0  0  0  0  0  0  0  0  0
    0.0633   -3.2415    0.3699 H   0  0  0  0  0  0  0  0  0  0  0  0
   -0.6343   -3.7088    1.9844 H   0  0  0  0  0  0  0  0  0  0  0  0
    1.4799   -3.1705    3.1651 H   0  0  0  0  0  0  0  0  0  0  0  0
    2.2146   -2.6969    1.5634 H   0  0  0  0  0  0  0  0  0  0  0  0
    2.0570   -0.3322   -1.2605 H   0  0  0  0  0  0  0  0  0  0  0  0
    1.8107   -1.9673   -0.6092 H   0  0  0  0  0  0  0  0  0  0  0  0
    4.1261   -1.6026   -1.3330 H   0  0  0  0  0  0  0  0  0  0  0  0
    4.1066   -1.8002    0.4710 H   0  0  0  0  0  0  0  0  0  0  0  0
    6.1422   -1.6344   -1.1482 H   0  0  0  0  0  0  0  0  0  0  0  0
    8.4913   -1.2104   -1.7478 H   0  0  0  0  0  0  0  0  0  0  0  0
    7.9666    2.8650   -0.6304 H   0  0  0  0  0  0  0  0  0  0  0  0
    4.2158    1.9775    0.8642 H   0  0  0  0  0  0  0  0  0  0  0  0
    2.9760    1.7354   -0.4250 H   0  0  0  0  0  0  0  0  0  0  0  0
    3.2963    0.1656    2.1732 H   0  0  0  0  0  0  0  0  0  0  0  0
    2.0439    1.3927    1.8162 H   0  0  0  0  0  0  0  0  0  0  0  0
   -3.3343   -1.6202   -0.9188 H   0  0  0  0  0  0  0  0  0  0  0  0
   -5.2802   -1.8206    0.6338 H   0  0  0  0  0  0  0  0  0  0  0  0
   -3.8073   -1.4219    1.5175 H   0  0  0  0  0  0  0  0  0  0  0  0
   -4.6011   -0.1428   -2.5290 H   0  0  0  0  0  0  0  0  0  0  0  0
   -5.7206   -1.2020   -1.5022 H   0  0  0  0  0  0  0  0  0  0  0  0
  1  2  1  0
  2  3  2  0
  4  2  1  6
  4  5  1  0
  5  6  1  0
  6  7  1  0
  7  8  1  0
  8  9  1  0
  8 10  1  0
 10 11  1  0
 11 12  1  0
 12 13  2  0
 12 14  1  0
 14 15  1  0
 15 16  1  0
 16 17  1  0
 14 18  1  0
 18 19  1  0
 19 20  1  0
 20 21  1  0
 21 22  1  0
 22 23  2  0
 23 24  1  0
 24 25  2  0
 25 26  1  0
 26 27  1  0
 26 28  1  0
 26 29  1  0
 25 30  1  0
 30 31  2  0
 21 32  1  0
 32 33  1  0
 10 34  1  0
 34 35  1  0
 34 36  1  0
  9  4  1  0
 17 15  1  0
 33 18  1  0
 36  4  1  0
 35  6  1  0
 31 22  1  0
  1 37  1  0
  1 38  1  0
  5 39  1  0
  5 40  1  0
  6 41  1  0
  7 42  1  0
  7 43  1  0
  8 44  1  0
  9 45  1  0
  9 46  1  0
 10 47  1  6
 11 48  1  0
 14 49  1  0
 15 50  1  0
 16 51  1  0
 16 52  1  0
 17 53  1  0
 17 54  1  0
 19 55  1  0
 19 56  1  0
 20 57  1  0
 20 58  1  0
 23 59  1  0
 24 60  1  0
 30 61  1  0
 32 62  1  0
 32 63  1  0
 33 64  1  0
 33 65  1  0
 34 66  1  0
 35 67  1  0
 35 68  1  0
 36 69  1  0
 36 70  1  0
M  END
$$$$
