@<TRIPOS>MOLECULE
*****
 70 74 0 0 0
SMALL
GASTEIGER

@<TRIPOS>ATOM
      1 C          -0.6839    0.2509   -2.5723 C.3     1  UNL1       -0.0421
      2 C          -0.3956   -0.6470   -1.3716 C.3     1  UNL1        0.0515
      3 C           1.0433   -0.5763   -1.0146 C.ar    1  UNL1       -0.0271
      4 C           1.9034   -1.6454   -1.2978 C.ar    1  UNL1       -0.0562
      5 C           3.2440   -1.6353   -1.0118 C.ar    1  UNL1       -0.0537
      6 C           3.8108   -0.5460   -0.4202 C.ar    1  UNL1       -0.0177
      7 C           5.2261   -0.5411   -0.1196 C.ar    1  UNL1       -0.0114
      8 C           5.9016   -1.7009    0.2094 C.ar    1  UNL1       -0.0376
      9 C           7.2406   -1.6670    0.4878 C.ar    1  UNL1        0.0088
     10 N           7.9736   -0.5267    0.4606 N.ar    1  UNL1       -0.3121
     11 C           9.3838   -0.5393    0.7612 C.3     1  UNL1        0.0375
     12 C          10.0201    0.5857    1.5095 C.3     1  UNL1       -0.0301
     13 C          10.3447    0.3377    0.0592 C.3     1  UNL1       -0.0301
     14 C           7.3217    0.6028    0.1414 C.ar    1  UNL1        0.2521
     15 O           7.9137    1.6951    0.0921 O.2     1  UNL1       -0.2677
     16 C           5.9585    0.6245   -0.1511 C.ar    1  UNL1        0.0107
     17 C           3.0154    0.5333   -0.1194 C.ar    1  UNL1       -0.0537
     18 C           1.6478    0.5045   -0.4195 C.ar    1  UNL1       -0.0562
     19 N          -1.3088   -0.4366   -0.2824 N.am    1  UNL1       -0.2605
     20 C          -1.4366    0.7940    0.4199 C.3     1  UNL1        0.0224
     21 C          -2.7452    1.0141    1.1000 C.3     1  UNL1        0.0076
     22 C          -3.8620    0.0947    0.6522 C.3     1  UNL1        0.1440
     23 C          -4.2343    0.4148   -0.7382 C.3     1  UNL1        0.0199
     24 C          -5.2923   -0.3835   -1.3882 C.3     1  UNL1        0.0645
     25 C          -6.6429   -0.4000   -0.7890 C.3     1  UNL1       -0.0362
     26 C          -5.4263    0.1543   -2.8241 C.3     1  UNL1       -0.0362
     27 O          -4.8855   -1.7260   -1.5690 O.3     1  UNL1       -0.3890
     28 C          -4.9665    0.3517    1.6402 C.ar    1  UNL1       -0.0040
     29 C          -5.1780   -0.4879    2.7048 C.ar    1  UNL1       -0.0548
     30 C          -6.1719   -0.2055    3.5962 C.ar    1  UNL1       -0.0614
     31 C          -6.9822    0.9052    3.4668 C.ar    1  UNL1       -0.0617
     32 C          -6.7374    1.7226    2.3847 C.ar    1  UNL1       -0.0614
     33 C          -5.7357    1.4732    1.4522 C.ar    1  UNL1       -0.0548
     34 O          -3.3614   -1.2233    0.8173 O.3     1  UNL1       -0.4387
     35 C          -2.1864   -1.5099    0.1509 C.2     1  UNL1        0.4042
     36 O          -1.8251   -2.6846   -0.1087 O.2     1  UNL1       -0.2262
     37 H          -1.5253   -0.1826   -3.1226 H       1  UNL1        0.0251
     38 H           0.2430    0.2616   -3.1713 H       1  UNL1        0.0251
     39 H          -0.8631    1.2963   -2.2505 H       1  UNL1        0.0251
     40 H          -0.5492   -1.7066   -1.7633 H       1  UNL1        0.0549
     41 H           1.4881   -2.5217   -1.7651 H       1  UNL1        0.0621
     42 H           3.8958   -2.4818   -1.2421 H       1  UNL1        0.0624
     43 H           5.3750   -2.6239    0.2456 H       1  UNL1        0.0638
     44 H           7.7515   -2.6021    0.7460 H       1  UNL1        0.0810
     45 H           9.7900   -1.5494    1.0278 H       1  UNL1        0.0529
     46 H           9.4650    1.4683    1.8255 H       1  UNL1        0.0286
     47 H          10.8780    0.3490    2.2059 H       1  UNL1        0.0286
     48 H          10.0178    1.0749   -0.7123 H       1  UNL1        0.0286
     49 H          11.3684   -0.0658   -0.1961 H       1  UNL1        0.0286
     50 H           5.4710    1.5769   -0.4071 H       1  UNL1        0.0678
     51 H           3.4341    1.4241    0.3549 H       1  UNL1        0.0624
     52 H           1.0928    1.3913   -0.1666 H       1  UNL1        0.0621
     53 H          -1.2290    1.6885   -0.2049 H       1  UNL1        0.0467
     54 H          -0.6613    0.7933    1.2431 H       1  UNL1        0.0467
     55 H          -3.0718    2.0905    0.9784 H       1  UNL1        0.0322
     56 H          -2.6749    0.8834    2.2175 H       1  UNL1        0.0322
     57 H          -3.2996    0.2698   -1.3731 H       1  UNL1        0.0335
     58 H          -4.4043    1.5228   -0.8288 H       1  UNL1        0.0335
     59 H          -6.7215   -0.8961    0.2001 H       1  UNL1        0.0257
     60 H          -7.2004    0.5574   -0.8219 H       1  UNL1        0.0257
     61 H          -7.2740   -1.0781   -1.4564 H       1  UNL1        0.0257
     62 H          -5.9526   -0.6246   -3.4000 H       1  UNL1        0.0257
     63 H          -6.1542    1.0090   -2.7349 H       1  UNL1        0.0257
     64 H          -4.4609    0.4547   -3.2398 H       1  UNL1        0.0257
     65 H          -4.4542   -1.8739   -2.4311 H       1  UNL1        0.2101
     66 H          -4.5687   -1.3549    2.8330 H       1  UNL1        0.0622
     67 H          -6.3612   -0.8641    4.4587 H       1  UNL1        0.0618
     68 H          -7.7787    1.1274    4.1851 H       1  UNL1        0.0618
     69 H          -7.3435    2.6105    2.2324 H       1  UNL1        0.0618
     70 H          -5.6135    2.1788    0.6251 H       1  UNL1        0.0622
@<TRIPOS>BOND
     1     1     2    1
     2     2     3    1
     3     3     4   ar
     4     4     5   ar
     5     5     6   ar
     6     6     7    1
     7     7     8   ar
     8     8     9   ar
     9     9    10   ar
    10    10    11    1
    11    11    12    1
    12    12    13    1
    13    10    14   ar
    14    14    15    2
    15    14    16   ar
    16     6    17   ar
    17    17    18   ar
    18     2    19    1
    19    19    20    1
    20    20    21    1
    21    21    22    1
    22    22    23    1
    23    23    24    1
    24    24    25    1
    25    24    26    1
    26    24    27    1
    27    22    28    1
    28    28    29   ar
    29    29    30   ar
    30    30    31   ar
    31    31    32   ar
    32    32    33   ar
    33    22    34    1
    34    34    35    1
    35    35    36    2
    36    18     3   ar
    37    35    19   am
    38    16     7   ar
    39    33    28   ar
    40    13    11    1
    41     1    37    1
    42     1    38    1
    43     1    39    1
    44     2    40    1
    45     4    41    1
    46     5    42    1
    47     8    43    1
    48     9    44    1
    49    11    45    1
    50    12    46    1
    51    12    47    1
    52    13    48    1
    53    13    49    1
    54    16    50    1
    55    17    51    1
    56    18    52    1
    57    20    53    1
    58    20    54    1
    59    21    55    1
    60    21    56    1
    61    23    57    1
    62    23    58    1
    63    25    59    1
    64    25    60    1
    65    25    61    1
    66    26    62    1
    67    26    63    1
    68    26    64    1
    69    27    65    1
    70    29    66    1
    71    30    67    1
    72    31    68    1
    73    32    69    1
    74    33    70    1
