@<TRIPOS>MOLECULE
*****
 54 58 0 0 0
SMALL
GASTEIGER

@<TRIPOS>ATOM
      1 C          -3.6159    1.4415   -1.4051 C.3     1  UNL1       -0.0026
      2 N          -2.9556    0.9861   -0.2232 N.pl3   1  UNL1       -0.3478
      3 C          -1.8433    0.1443   -0.1929 C.2     1  UNL1        0.0433
      4 C          -1.8178   -1.1999   -0.2356 C.2     1  UNL1        0.0769
      5 C          -2.9382   -2.0956   -0.3221 C.2     1  UNL1        0.0492
      6 N          -2.8215   -3.3443   -0.3573 N.2     1  UNL1       -0.3029
      7 C          -4.3114   -1.5391   -0.3726 C.3     1  UNL1        0.0015
      8 C          -5.4773   -2.4685   -0.4687 C.3     1  UNL1       -0.0442
      9 C          -5.1135   -1.5734   -1.6125 C.3     1  UNL1       -0.0442
     10 C          -0.4234   -1.6393   -0.1919 C.2     1  UNL1        0.2550
     11 O           0.0584   -2.8191   -0.2092 O.2     1  UNL1       -0.2695
     12 N           0.4143   -0.4906   -0.1209 N.am    1  UNL1       -0.2532
     13 C           1.8256   -0.4930   -0.1053 C.ar    1  UNL1        0.0545
     14 C           2.4818   -0.5972    1.0925 C.ar    1  UNL1       -0.0324
     15 C           3.8717   -0.5931    1.0892 C.ar    1  UNL1       -0.0041
     16 C           4.6151   -0.7042    2.3700 C.3     1  UNL1       -0.0361
     17 C           4.5169   -0.4842   -0.1227 C.ar    1  UNL1        0.1641
     18 N           5.8414   -0.4545   -0.4187 N.ar    1  UNL1       -0.1292
     19 N           5.9714   -0.3387   -1.7256 N.ar    1  UNL1       -0.1340
     20 C           4.7611   -0.2903   -2.3102 C.ar    1  UNL1        0.1347
     21 C           4.4254   -0.1642   -3.7485 C.3     1  UNL1       -0.0041
     22 N           3.8658   -0.3820   -1.3001 N.ar    1  UNL1       -0.2846
     23 C           2.5290   -0.3886   -1.2660 C.ar    1  UNL1        0.0344
     24 C          -0.4240    0.6459   -0.0893 C.3     1  UNL1        0.0948
     25 C          -0.2798    1.5146    1.1001 C.ar    1  UNL1       -0.0210
     26 C          -0.2426    1.0586    2.3945 C.ar    1  UNL1       -0.0550
     27 C          -0.1085    1.8757    3.4925 C.ar    1  UNL1       -0.0431
     28 C          -0.0028    3.2320    3.3249 C.ar    1  UNL1        0.0410
     29 CL          0.1678    4.2630    4.7351 Cl      1  UNL1       -0.0835
     30 C          -0.0351    3.7347    2.0460 C.ar    1  UNL1       -0.0431
     31 C          -0.1697    2.9036    0.9598 C.ar    1  UNL1       -0.0550
     32 H          -3.5114    0.7532   -2.2699 H       1  UNL1        0.0425
     33 H          -3.1790    2.4173   -1.7555 H       1  UNL1        0.0425
     34 H          -4.7012    1.6516   -1.2481 H       1  UNL1        0.0425
     35 H          -3.3517    1.3308    0.7036 H       1  UNL1        0.1455
     36 H          -1.9198   -3.8243   -0.3273 H       1  UNL1        0.1863
     37 H          -4.5228   -0.6899    0.3368 H       1  UNL1        0.0364
     38 H          -6.3932   -2.2881    0.1269 H       1  UNL1        0.0272
     39 H          -5.2131   -3.5452   -0.5335 H       1  UNL1        0.0272
     40 H          -4.7411   -2.0636   -2.5312 H       1  UNL1        0.0272
     41 H          -5.7922   -0.6955   -1.8116 H       1  UNL1        0.0272
     42 H           2.0076   -0.6874    2.0550 H       1  UNL1        0.0640
     43 H           4.0963   -1.5198    2.9496 H       1  UNL1        0.0279
     44 H           5.6474   -1.0430    2.2242 H       1  UNL1        0.0279
     45 H           4.6073    0.2473    2.9437 H       1  UNL1        0.0279
     46 H           5.2567   -0.4878   -4.4011 H       1  UNL1        0.0308
     47 H           3.5575   -0.8267   -4.0297 H       1  UNL1        0.0308
     48 H           4.1728    0.8936   -4.0017 H       1  UNL1        0.0308
     49 H           2.0385   -0.3030   -2.2500 H       1  UNL1        0.0833
     50 H          -0.2810    1.2953   -0.9949 H       1  UNL1        0.0617
     51 H          -0.3224   -0.0039    2.5765 H       1  UNL1        0.0621
     52 H          -0.0831    1.4725    4.5097 H       1  UNL1        0.0632
     53 H           0.0502    4.8124    1.9353 H       1  UNL1        0.0632
     54 H          -0.1876    3.3645   -0.0130 H       1  UNL1        0.0621
@<TRIPOS>BOND
     1     1     2    1
     2     2     3    1
     3     3     4    2
     4     4     5    1
     5     5     6    2
     6     5     7    1
     7     7     8    1
     8     8     9    1
     9     4    10    1
    10    10    11    2
    11    10    12   am
    12    12    13    1
    13    13    14   ar
    14    14    15   ar
    15    15    16    1
    16    15    17   ar
    17    17    18   ar
    18    18    19   ar
    19    19    20   ar
    20    20    21    1
    21    20    22   ar
    22    22    23   ar
    23    12    24    1
    24    24    25    1
    25    25    26   ar
    26    26    27   ar
    27    27    28   ar
    28    28    29    1
    29    28    30   ar
    30    30    31   ar
    31    24     3    1
    32    31    25   ar
    33     9     7    1
    34    23    13   ar
    35    22    17   ar
    36     1    32    1
    37     1    33    1
    38     1    34    1
    39     2    35    1
    40     6    36    1
    41     7    37    1
    42     8    38    1
    43     8    39    1
    44     9    40    1
    45     9    41    1
    46    14    42    1
    47    16    43    1
    48    16    44    1
    49    16    45    1
    50    21    46    1
    51    21    47    1
    52    21    48    1
    53    23    49    1
    54    24    50    1
    55    26    51    1
    56    27    52    1
    57    30    53    1
    58    31    54    1
