
     RDKit          3D

 48 51  0  0  0  0  0  0  0  0999 V2000
    3.6123    0.9300    1.6286 C   0  0  0  0  0  0  0  0  0  0  0  0
    3.6250    1.6979    0.3395 C   0  0  0  0  0  0  0  0  0  0  0  0
    2.3844    1.4596   -0.4980 C   0  0  0  0  0  0  0  0  0  0  0  0
    2.2784    0.0925   -0.8839 N   0  0  0  0  0  0  0  0  0  0  0  0
    3.5199   -0.4253   -1.3675 C   0  0  0  0  0  0  0  0  0  0  0  0
    4.6124    0.5693   -1.5418 C   0  0  0  0  0  0  0  0  0  0  0  0
    4.8325    1.4122   -0.3961 N   0  0  0  0  0  0  0  0  0  0  0  0
    1.1113   -0.7082   -0.8214 C   0  0  0  0  0  0  0  0  0  0  0  0
    1.0685   -2.0367   -1.1863 C   0  0  0  0  0  0  0  0  0  0  0  0
    2.1826   -2.6596   -1.6351 F   0  0  0  0  0  0  0  0  0  0  0  0
   -0.0629   -2.8216   -1.1299 C   0  0  0  0  0  0  0  0  0  0  0  0
   -1.2494   -2.2779   -0.6844 C   0  0  0  0  0  0  0  0  0  0  0  0
   -2.3731   -3.0733   -0.6327 C   0  0  0  0  0  0  0  0  0  0  0  0
   -2.3635   -4.2807   -0.9763 O   0  0  0  0  0  0  0  0  0  0  0  0
   -3.5726   -2.5358   -0.1856 C   0  0  0  0  0  0  0  0  0  0  0  0
   -3.5276   -1.2103    0.1779 C   0  0  0  0  0  0  0  0  0  0  0  0
   -2.4331   -0.4449    0.1248 N   0  0  0  0  0  0  0  0  0  0  0  0
   -1.2607   -0.9509   -0.3066 C   0  0  0  0  0  0  0  0  0  0  0  0
   -0.0966   -0.2111   -0.3839 C   0  0  0  0  0  0  0  0  0  0  0  0
   -2.4725    0.9221    0.5208 C   0  0  0  0  0  0  0  0  0  0  0  0
   -2.2386    1.2059    1.8543 C   0  0  0  0  0  0  0  0  0  0  0  0
   -1.9744    0.2768    2.8123 F   0  0  0  0  0  0  0  0  0  0  0  0
   -2.2698    2.5210    2.2703 C   0  0  0  0  0  0  0  0  0  0  0  0
   -2.5314    3.5185    1.3561 C   0  0  0  0  0  0  0  0  0  0  0  0
   -2.5544    4.8020    1.8007 F   0  0  0  0  0  0  0  0  0  0  0  0
   -2.7718    3.2626    0.0012 C   0  0  0  0  0  0  0  0  0  0  0  0
   -2.7329    1.9367   -0.3795 C   0  0  0  0  0  0  0  0  0  0  0  0
   -4.8162   -3.3049   -0.0968 C   0  0  0  0  0  0  0  0  0  0  0  0
   -4.7531   -4.6541   -0.4934 O   0  0  0  0  0  0  0  0  0  0  0  0
   -5.8874   -2.7870    0.3130 O   0  0  0  0  0  0  0  0  0  0  0  0
    4.4327    0.1708    1.6902 H   0  0  0  0  0  0  0  0  0  0  0  0
    2.6144    0.4638    1.7546 H   0  0  0  0  0  0  0  0  0  0  0  0
    3.7945    1.5971    2.5034 H   0  0  0  0  0  0  0  0  0  0  0  0
    3.6315    2.7795    0.5873 H   0  0  0  0  0  0  0  0  0  0  0  0
    1.5305    1.7821    0.1207 H   0  0  0  0  0  0  0  0  0  0  0  0
    2.4490    2.1227   -1.3803 H   0  0  0  0  0  0  0  0  0  0  0  0
    3.2934   -0.8233   -2.4022 H   0  0  0  0  0  0  0  0  0  0  0  0
    3.8356   -1.3279   -0.7871 H   0  0  0  0  0  0  0  0  0  0  0  0
    4.5085    1.1425   -2.4862 H   0  0  0  0  0  0  0  0  0  0  0  0
    5.5628   -0.0209   -1.6754 H   0  0  0  0  0  0  0  0  0  0  0  0
    5.3831    2.2683   -0.6182 H   0  0  0  0  0  0  0  0  0  0  0  0
   -0.0555   -3.8595   -1.4250 H   0  0  0  0  0  0  0  0  0  0  0  0
   -4.4316   -0.7242    0.5376 H   0  0  0  0  0  0  0  0  0  0  0  0
   -0.2224    0.7954   -0.0691 H   0  0  0  0  0  0  0  0  0  0  0  0
   -2.0922    2.7892    3.3061 H   0  0  0  0  0  0  0  0  0  0  0  0
   -2.9736    4.0729   -0.6862 H   0  0  0  0  0  0  0  0  0  0  0  0
   -2.9092    1.6615   -1.4111 H   0  0  0  0  0  0  0  0  0  0  0  0
   -5.6370   -5.1146   -0.6551 H   0  0  0  0  0  0  0  0  0  0  0  0
  1  2  1  0
  2  3  1  0
  3  4  1  0
  4  5  1  0
  5  6  1  0
  6  7  1  0
  4  8  1  0
  8  9  2  0
  9 10  1  0
  9 11  1  0
 11 12  2  0
 12 13  1  0
 13 14  2  0
 13 15  1  0
 15 16  2  0
 16 17  1  0
 17 18  1  0
 18 19  2  0
 17 20  1  0
 20 21  2  0
 21 22  1  0
 21 23  1  0
 23 24  2  0
 24 25  1  0
 24 26  1  0
 26 27  2  0
 15 28  1  0
 28 29  1  0
 28 30  2  0
  7  2  1  0
 19  8  1  0
 27 20  1  0
 18 12  1  0
  1 31  1  0
  1 32  1  0
  1 33  1  0
  2 34  1  0
  3 35  1  0
  3 36  1  0
  5 37  1  0
  5 38  1  0
  6 39  1  0
  6 40  1  0
  7 41  1  0
 11 42  1  0
 16 43  1  0
 19 44  1  0
 23 45  1  0
 26 46  1  0
 27 47  1  0
 29 48  1  0
M  END
$$$$
