@<TRIPOS>MOLECULE
*****
 56 59 0 0 0
SMALL
GASTEIGER

@<TRIPOS>ATOM
      1 C           1.0010   -0.4400   -0.8965 C.3     1  UNL1       -0.0266
      2 C           1.8889   -1.5598   -1.2410 C.3     1  UNL1       -0.0462
      3 C           3.0333   -0.7504   -1.8739 C.3     1  UNL1       -0.0163
      4 C           3.1763    0.4112   -0.8800 C.3     1  UNL1        0.1289
      5 O           3.4303    1.5359   -1.6453 O.3     1  UNL1       -0.3805
      6 C           4.3050    0.0774    0.0267 C.2     1  UNL1        0.1621
      7 C           5.3309   -0.3709    0.9684 C.3     1  UNL1       -0.0031
      8 O           4.6970    1.0892   -0.5738 O.2     1  UNL1       -0.2946
      9 C           1.8825    0.5172   -0.1499 C.3     1  UNL1        0.0092
     10 C           2.0944    0.2172    1.2843 C.3     1  UNL1       -0.0562
     11 C           1.2055    1.8515   -0.2850 C.3     1  UNL1       -0.0151
     12 C          -0.2192    1.8568    0.1168 C.3     1  UNL1        0.0910
     13 O          -0.4533    2.1250    1.4648 O.3     1  UNL1       -0.3886
     14 C          -1.0164    0.6577   -0.2842 C.3     1  UNL1        0.1526
     15 F          -1.3204    0.7934   -1.6286 F       1  UNL1       -0.2377
     16 C          -0.2539   -0.6634   -0.1836 C.3     1  UNL1        0.0005
     17 C          -1.1128   -1.6794   -0.9102 C.3     1  UNL1       -0.0406
     18 C          -2.3504   -1.8433   -0.0161 C.3     1  UNL1       -0.0210
     19 C          -3.1614   -3.0332   -0.4243 C.3     1  UNL1       -0.0587
     20 C          -3.0960   -0.5496   -0.1764 C.2     1  UNL1       -0.0504
     21 C          -4.2525   -0.4956   -0.7807 C.2     1  UNL1       -0.0145
     22 C          -4.8602    0.8272   -0.8626 C.2     1  UNL1        0.1787
     23 O          -5.9708    0.9635   -1.4276 O.2     1  UNL1       -0.2879
     24 C          -4.2298    2.0256   -0.3096 C.2     1  UNL1       -0.0180
     25 C          -3.0619    1.8330    0.2756 C.2     1  UNL1       -0.0674
     26 C          -2.3134    0.5728    0.4437 C.3     1  UNL1        0.0445
     27 C          -2.1732    0.3192    1.9257 C.3     1  UNL1       -0.0493
     28 H           0.7411    0.0792   -1.8652 H       1  UNL1        0.0311
     29 H           1.4533   -2.1174   -2.1080 H       1  UNL1        0.0269
     30 H           2.2383   -2.1898   -0.4265 H       1  UNL1        0.0269
     31 H           3.9424   -1.3201   -2.0193 H       1  UNL1        0.0297
     32 H           2.6938   -0.3819   -2.8702 H       1  UNL1        0.0297
     33 H           3.3220    2.3312   -1.0821 H       1  UNL1        0.2108
     34 H           5.0082   -1.1963    1.6326 H       1  UNL1        0.0307
     35 H           5.6159    0.4729    1.6296 H       1  UNL1        0.0307
     36 H           6.2467   -0.7572    0.4312 H       1  UNL1        0.0307
     37 H           2.3533   -0.8327    1.5067 H       1  UNL1        0.0236
     38 H           1.2670    0.4723    1.9683 H       1  UNL1        0.0236
     39 H           2.9744    0.8168    1.6149 H       1  UNL1        0.0236
     40 H           1.7638    2.5781    0.3394 H       1  UNL1        0.0297
     41 H           1.3051    2.2126   -1.3428 H       1  UNL1        0.0297
     42 H          -0.6942    2.7223   -0.4218 H       1  UNL1        0.0626
     43 H           0.1922    2.7059    1.8923 H       1  UNL1        0.2099
     44 H          -0.1750   -1.0373    0.8485 H       1  UNL1        0.0336
     45 H          -0.5471   -2.6319   -0.9365 H       1  UNL1        0.0275
     46 H          -1.3653   -1.2765   -1.9008 H       1  UNL1        0.0275
     47 H          -1.9982   -1.9628    1.0229 H       1  UNL1        0.0343
     48 H          -2.6234   -3.9279   -0.0862 H       1  UNL1        0.0235
     49 H          -4.1060   -3.0048    0.1373 H       1  UNL1        0.0235
     50 H          -3.2889   -3.1051   -1.5145 H       1  UNL1        0.0235
     51 H          -4.6943   -1.3882   -1.1779 H       1  UNL1        0.0656
     52 H          -4.6768    3.0026   -0.3690 H       1  UNL1        0.0653
     53 H          -2.5795    2.7133    0.6921 H       1  UNL1        0.0583
     54 H          -2.5403    1.1947    2.5365 H       1  UNL1        0.0242
     55 H          -1.1739    0.0474    2.2572 H       1  UNL1        0.0242
     56 H          -2.8544   -0.5070    2.2168 H       1  UNL1        0.0242
@<TRIPOS>BOND
     1     1     2    1
     2     2     3    1
     3     3     4    1
     4     4     5    1
     5     4     6    1
     6     6     7    1
     7     6     8    2
     8     4     9    1
     9     9    10    1
    10     9    11    1
    11    11    12    1
    12    12    13    1
    13    12    14    1
    14    14    15    1
    15    14    16    1
    16    16    17    1
    17    17    18    1
    18    18    19    1
    19    18    20    1
    20    20    21    2
    21    21    22    1
    22    22    23    2
    23    22    24    1
    24    24    25    2
    25    25    26    1
    26    26    27    1
    27     9     1    1
    28    26    14    1
    29    16     1    1
    30    26    20    1
    31     1    28    1
    32     2    29    1
    33     2    30    1
    34     3    31    1
    35     3    32    1
    36     5    33    1
    37     7    34    1
    38     7    35    1
    39     7    36    1
    40    10    37    1
    41    10    38    1
    42    10    39    1
    43    11    40    1
    44    11    41    1
    45    12    42    1
    46    13    43    1
    47    16    44    1
    48    17    45    1
    49    17    46    1
    50    18    47    1
    51    19    48    1
    52    19    49    1
    53    19    50    1
    54    21    51    1
    55    24    52    1
    56    25    53    1
    57    27    54    1
    58    27    55    1
    59    27    56    1
