
     RDKit          3D

 54 56  0  0  0  0  0  0  0  0999 V2000
   -5.4201    3.4798   -0.1303 C   0  0  0  0  0  0  0  0  0  0  0  0
   -4.8061    2.2628    0.3786 N   0  0  0  0  0  0  0  0  0  0  0  0
   -3.5794    1.8629   -0.2304 C   0  0  0  0  0  0  0  0  0  0  0  0
   -3.0578    2.5134   -1.1461 O   0  0  0  0  0  0  0  0  0  0  0  0
   -2.9611    0.6086    0.3050 C   0  0  0  0  0  0  0  0  0  0  0  0
   -1.7026    0.3695   -0.4570 C   0  0  0  0  0  0  0  0  0  0  0  0
   -0.9502   -0.8813   -0.0537 C   0  0  0  0  0  0  0  0  0  0  0  0
   -1.8635   -2.0475   -0.3320 C   0  0  0  0  0  0  0  0  0  0  0  0
   -2.9333   -1.9598   -1.1791 C   0  0  0  0  0  0  0  0  0  0  0  0
   -3.8088   -3.0050   -1.4431 C   0  0  0  0  0  0  0  0  0  0  0  0
   -3.5563   -4.1919   -0.7960 C   0  0  0  0  0  0  0  0  0  0  0  0
   -2.5018   -4.3105    0.0505 C   0  0  0  0  0  0  0  0  0  0  0  0
   -1.6478   -3.2651    0.2985 C   0  0  0  0  0  0  0  0  0  0  0  0
   -0.5909   -0.7560    1.3763 C   0  0  0  0  0  0  0  0  0  0  0  0
    0.6605   -1.3745    1.8560 C   0  0  0  0  0  0  0  0  0  0  0  0
    1.6418   -1.7941    0.7782 C   0  0  0  0  0  0  0  0  0  0  0  0
    1.4893   -0.8336   -0.2682 N   0  0  0  0  0  0  0  0  0  0  0  0
    2.4306    0.1424   -0.5686 C   0  0  0  0  0  0  0  0  0  0  0  0
    2.1856    0.9252   -1.5286 O   0  0  0  0  0  0  0  0  0  0  0  0
    3.6284    0.3084    0.1276 N   0  0  0  0  0  0  0  0  0  0  0  0
    4.6508    1.2463   -0.0787 C   0  0  0  0  0  0  0  0  0  0  0  0
    5.7779    1.2365    0.7428 C   0  0  0  0  0  0  0  0  0  0  0  0
    6.8189    2.1217    0.6029 C   0  0  0  0  0  0  0  0  0  0  0  0
    6.7810    3.0763   -0.3836 C   0  0  0  0  0  0  0  0  0  0  0  0
    8.1074    4.2097   -0.5674 Cl  0  0  0  0  0  0  0  0  0  0  0  0
    5.6963    3.1256   -1.2143 C   0  0  0  0  0  0  0  0  0  0  0  0
    4.6463    2.2070   -1.0473 C   0  0  0  0  0  0  0  0  0  0  0  0
    0.2303   -0.9538   -1.0053 C   0  0  0  0  0  0  0  0  0  0  0  0
   -5.5926    3.3993   -1.2198 H   0  0  0  0  0  0  0  0  0  0  0  0
   -6.3657    3.7217    0.3831 H   0  0  0  0  0  0  0  0  0  0  0  0
   -4.7358    4.3400    0.0298 H   0  0  0  0  0  0  0  0  0  0  0  0
   -5.2257    1.7127    1.1366 H   0  0  0  0  0  0  0  0  0  0  0  0
   -3.6686   -0.2089    0.3750 H   0  0  0  0  0  0  0  0  0  0  0  0
   -2.7027    0.8722    1.3661 H   0  0  0  0  0  0  0  0  0  0  0  0
   -1.0067    1.2178   -0.1767 H   0  0  0  0  0  0  0  0  0  0  0  0
   -1.8145    0.4771   -1.5525 H   0  0  0  0  0  0  0  0  0  0  0  0
   -3.1443   -1.0475   -1.7129 H   0  0  0  0  0  0  0  0  0  0  0  0
   -4.6505   -2.8856   -2.1283 H   0  0  0  0  0  0  0  0  0  0  0  0
   -4.2409   -5.0196   -0.9984 H   0  0  0  0  0  0  0  0  0  0  0  0
   -2.3492   -5.2864    0.5404 H   0  0  0  0  0  0  0  0  0  0  0  0
   -0.8447   -3.4236    0.9706 H   0  0  0  0  0  0  0  0  0  0  0  0
   -0.6447    0.3276    1.7031 H   0  0  0  0  0  0  0  0  0  0  0  0
   -1.4306   -1.2210    1.9792 H   0  0  0  0  0  0  0  0  0  0  0  0
    1.2312   -0.6339    2.4927 H   0  0  0  0  0  0  0  0  0  0  0  0
    0.5134   -2.2471    2.5548 H   0  0  0  0  0  0  0  0  0  0  0  0
    2.6448   -1.8509    1.1700 H   0  0  0  0  0  0  0  0  0  0  0  0
    1.4024   -2.8311    0.4131 H   0  0  0  0  0  0  0  0  0  0  0  0
    3.7969   -0.3656    0.9344 H   0  0  0  0  0  0  0  0  0  0  0  0
    5.8511    0.5067    1.5288 H   0  0  0  0  0  0  0  0  0  0  0  0
    7.6703    2.0736    1.2642 H   0  0  0  0  0  0  0  0  0  0  0  0
    5.6323    3.8754   -2.0138 H   0  0  0  0  0  0  0  0  0  0  0  0
    3.8238    2.3080   -1.7411 H   0  0  0  0  0  0  0  0  0  0  0  0
    0.2336   -0.1849   -1.7808 H   0  0  0  0  0  0  0  0  0  0  0  0
    0.2519   -1.9490   -1.4943 H   0  0  0  0  0  0  0  0  0  0  0  0
  1  2  1  0
  2  3  1  0
  3  4  2  0
  3  5  1  0
  5  6  1  0
  6  7  1  0
  7  8  1  0
  8  9  2  0
  9 10  1  0
 10 11  2  0
 11 12  1  0
 12 13  2  0
  7 14  1  0
 14 15  1  0
 15 16  1  0
 16 17  1  0
 17 18  1  0
 18 19  2  0
 18 20  1  0
 20 21  1  0
 21 22  2  0
 22 23  1  0
 23 24  2  0
 24 25  1  0
 24 26  1  0
 26 27  2  0
 17 28  1  0
 28  7  1  0
 13  8  1  0
 27 21  1  0
  1 29  1  0
  1 30  1  0
  1 31  1  0
  2 32  1  0
  5 33  1  0
  5 34  1  0
  6 35  1  0
  6 36  1  0
  9 37  1  0
 10 38  1  0
 11 39  1  0
 12 40  1  0
 13 41  1  0
 14 42  1  0
 14 43  1  0
 15 44  1  0
 15 45  1  0
 16 46  1  0
 16 47  1  0
 20 48  1  0
 22 49  1  0
 23 50  1  0
 26 51  1  0
 27 52  1  0
 28 53  1  0
 28 54  1  0
M  END
$$$$
