@<TRIPOS>MOLECULE
*****
 54 56 0 0 0
SMALL
GASTEIGER

@<TRIPOS>ATOM
      1 C          -5.4201    3.4798   -0.1303 C.3     1  UNL1        0.0001
      2 N          -4.8061    2.2628    0.3786 N.am    1  UNL1       -0.3184
      3 C          -3.5794    1.8629   -0.2304 C.2     1  UNL1        0.2128
      4 O          -3.0578    2.5134   -1.1461 O.2     1  UNL1       -0.2758
      5 C          -2.9611    0.6086    0.3050 C.3     1  UNL1        0.0248
      6 C          -1.7026    0.3695   -0.4570 C.3     1  UNL1       -0.0337
      7 C          -0.9502   -0.8813   -0.0537 C.3     1  UNL1        0.0120
      8 C          -1.8635   -2.0475   -0.3320 C.ar    1  UNL1       -0.0397
      9 C          -2.9333   -1.9598   -1.1791 C.ar    1  UNL1       -0.0580
     10 C          -3.8088   -3.0050   -1.4431 C.ar    1  UNL1       -0.0615
     11 C          -3.5563   -4.1919   -0.7960 C.ar    1  UNL1       -0.0617
     12 C          -2.5018   -4.3105    0.0505 C.ar    1  UNL1       -0.0615
     13 C          -1.6478   -3.2651    0.2985 C.ar    1  UNL1       -0.0580
     14 C          -0.5909   -0.7560    1.3763 C.3     1  UNL1       -0.0405
     15 C           0.6605   -1.3745    1.8560 C.3     1  UNL1       -0.0362
     16 C           1.6418   -1.7941    0.7782 C.3     1  UNL1        0.0162
     17 N           1.4893   -0.8336   -0.2682 N.am    1  UNL1       -0.2845
     18 C           2.4306    0.1424   -0.5686 C.2     1  UNL1        0.3065
     19 O           2.1856    0.9252   -1.5286 O.2     1  UNL1       -0.2523
     20 N           3.6284    0.3084    0.1276 N.am    1  UNL1       -0.2693
     21 C           4.6508    1.2463   -0.0787 C.ar    1  UNL1        0.0349
     22 C           5.7779    1.2365    0.7428 C.ar    1  UNL1       -0.0391
     23 C           6.8189    2.1217    0.6029 C.ar    1  UNL1       -0.0416
     24 C           6.7810    3.0763   -0.3836 C.ar    1  UNL1        0.0411
     25 CL          8.1074    4.2097   -0.5674 Cl      1  UNL1       -0.0835
     26 C           5.6963    3.1256   -1.2143 C.ar    1  UNL1       -0.0416
     27 C           4.6463    2.2070   -1.0473 C.ar    1  UNL1       -0.0391
     28 C           0.2303   -0.9538   -1.0053 C.3     1  UNL1        0.0258
     29 H          -5.5926    3.3993   -1.2198 H       1  UNL1        0.0426
     30 H          -6.3657    3.7217    0.3831 H       1  UNL1        0.0426
     31 H          -4.7358    4.3400    0.0298 H       1  UNL1        0.0426
     32 H          -5.2257    1.7127    1.1366 H       1  UNL1        0.1484
     33 H          -3.6686   -0.2089    0.3750 H       1  UNL1        0.0359
     34 H          -2.7027    0.8722    1.3661 H       1  UNL1        0.0359
     35 H          -1.0067    1.2178   -0.1767 H       1  UNL1        0.0279
     36 H          -1.8145    0.4771   -1.5525 H       1  UNL1        0.0279
     37 H          -3.1443   -1.0475   -1.7129 H       1  UNL1        0.0620
     38 H          -4.6505   -2.8856   -2.1283 H       1  UNL1        0.0618
     39 H          -4.2409   -5.0196   -0.9984 H       1  UNL1        0.0618
     40 H          -2.3492   -5.2864    0.5404 H       1  UNL1        0.0618
     41 H          -0.8447   -3.4236    0.9706 H       1  UNL1        0.0620
     42 H          -0.6447    0.3276    1.7031 H       1  UNL1        0.0275
     43 H          -1.4306   -1.2210    1.9792 H       1  UNL1        0.0275
     44 H           1.2312   -0.6339    2.4927 H       1  UNL1        0.0281
     45 H           0.5134   -2.2471    2.5548 H       1  UNL1        0.0281
     46 H           2.6448   -1.8509    1.1700 H       1  UNL1        0.0465
     47 H           1.4024   -2.8311    0.4131 H       1  UNL1        0.0465
     48 H           3.7969   -0.3656    0.9344 H       1  UNL1        0.1564
     49 H           5.8511    0.5067    1.5288 H       1  UNL1        0.0636
     50 H           7.6703    2.0736    1.2642 H       1  UNL1        0.0633
     51 H           5.6323    3.8754   -2.0138 H       1  UNL1        0.0633
     52 H           3.8238    2.3080   -1.7411 H       1  UNL1        0.0636
     53 H           0.2336   -0.1849   -1.7808 H       1  UNL1        0.0474
     54 H           0.2519   -1.9490   -1.4943 H       1  UNL1        0.0474
@<TRIPOS>BOND
     1     1     2    1
     2     2     3   am
     3     3     4    2
     4     3     5    1
     5     5     6    1
     6     6     7    1
     7     7     8    1
     8     8     9   ar
     9     9    10   ar
    10    10    11   ar
    11    11    12   ar
    12    12    13   ar
    13     7    14    1
    14    14    15    1
    15    15    16    1
    16    16    17    1
    17    17    18   am
    18    18    19    2
    19    18    20   am
    20    20    21    1
    21    21    22   ar
    22    22    23   ar
    23    23    24   ar
    24    24    25    1
    25    24    26   ar
    26    26    27   ar
    27    17    28    1
    28    28     7    1
    29    13     8   ar
    30    27    21   ar
    31     1    29    1
    32     1    30    1
    33     1    31    1
    34     2    32    1
    35     5    33    1
    36     5    34    1
    37     6    35    1
    38     6    36    1
    39     9    37    1
    40    10    38    1
    41    11    39    1
    42    12    40    1
    43    13    41    1
    44    14    42    1
    45    14    43    1
    46    15    44    1
    47    15    45    1
    48    16    46    1
    49    16    47    1
    50    20    48    1
    51    22    49    1
    52    23    50    1
    53    26    51    1
    54    27    52    1
    55    28    53    1
    56    28    54    1
