
     RDKit          3D

 53 57  0  0  0  0  0  0  0  0999 V2000
    6.5998   -2.8178   -0.3133 C   0  0  0  0  0  0  0  0  0  0  0  0
    5.6992   -1.7763    0.1961 N   0  0  0  0  0  0  0  0  0  0  0  0
    4.5355   -1.3850   -0.5070 C   0  0  0  0  0  0  0  0  0  0  0  0
    4.2832   -1.9719   -1.6161 O   0  0  0  0  0  0  0  0  0  0  0  0
    3.6530   -0.3496    0.0104 C   0  0  0  0  0  0  0  0  0  0  0  0
    3.9545    0.8826    0.5514 C   0  0  0  0  0  0  0  0  0  0  0  0
    2.8263    1.5124    0.8968 N   0  0  0  0  0  0  0  0  0  0  0  0
    2.7282    2.8470    1.5075 C   0  0  0  0  0  0  0  0  0  0  0  0
    1.7515    0.7305    0.6000 C   0  0  0  0  0  0  0  0  0  0  0  0
    2.2744   -0.4146    0.0553 C   0  0  0  0  0  0  0  0  0  0  0  0
    1.1032   -1.2443   -0.2293 C   0  0  0  0  0  0  0  0  0  0  0  0
    1.1724   -2.4120   -0.7554 O   0  0  0  0  0  0  0  0  0  0  0  0
   -0.0967   -0.6054    0.1437 N   0  0  0  0  0  0  0  0  0  0  0  0
   -1.4421   -1.1265    0.0462 C   0  0  0  0  0  0  0  0  0  0  0  0
   -1.7670   -2.3096   -0.5603 C   0  0  0  0  0  0  0  0  0  0  0  0
   -3.0619   -2.7920   -0.6250 C   0  0  0  0  0  0  0  0  0  0  0  0
   -3.3581   -4.0849   -1.3000 C   0  0  0  0  0  0  0  0  0  0  0  0
   -4.0549   -2.0432   -0.0521 C   0  0  0  0  0  0  0  0  0  0  0  0
   -5.4061   -2.1988    0.0740 N   0  0  0  0  0  0  0  0  0  0  0  0
   -5.9007   -1.1686    0.7253 N   0  0  0  0  0  0  0  0  0  0  0  0
   -4.8947   -0.3268    1.0353 C   0  0  0  0  0  0  0  0  0  0  0  0
   -4.9580    0.9657    1.7667 C   0  0  0  0  0  0  0  0  0  0  0  0
   -3.7564   -0.8810    0.5476 N   0  0  0  0  0  0  0  0  0  0  0  0
   -2.4808   -0.4108    0.6082 C   0  0  0  0  0  0  0  0  0  0  0  0
    0.2651    0.7053    0.6396 C   0  0  0  0  0  0  0  0  0  0  0  0
   -0.3092    1.7908   -0.1849 C   0  0  0  0  0  0  0  0  0  0  0  0
   -0.2752    1.7203   -1.5560 C   0  0  0  0  0  0  0  0  0  0  0  0
   -0.8176    2.7532   -2.3078 C   0  0  0  0  0  0  0  0  0  0  0  0
   -1.3830    3.8351   -1.6941 C   0  0  0  0  0  0  0  0  0  0  0  0
   -2.0788    5.1557   -2.6490 Cl  0  0  0  0  0  0  0  0  0  0  0  0
   -1.4271    3.9243   -0.3201 C   0  0  0  0  0  0  0  0  0  0  0  0
   -0.8788    2.8806    0.4240 C   0  0  0  0  0  0  0  0  0  0  0  0
    7.5564   -2.3400   -0.5476 H   0  0  0  0  0  0  0  0  0  0  0  0
    6.6976   -3.6453    0.3945 H   0  0  0  0  0  0  0  0  0  0  0  0
    6.1039   -3.2597   -1.2230 H   0  0  0  0  0  0  0  0  0  0  0  0
    5.8943   -1.2894    1.1025 H   0  0  0  0  0  0  0  0  0  0  0  0
    4.9733    1.2866    0.6790 H   0  0  0  0  0  0  0  0  0  0  0  0
    3.6010    3.0605    2.1527 H   0  0  0  0  0  0  0  0  0  0  0  0
    2.6650    3.6316    0.7231 H   0  0  0  0  0  0  0  0  0  0  0  0
    1.8386    2.8545    2.1703 H   0  0  0  0  0  0  0  0  0  0  0  0
   -0.9913   -2.9027   -1.0155 H   0  0  0  0  0  0  0  0  0  0  0  0
   -2.3987   -4.6822   -1.3063 H   0  0  0  0  0  0  0  0  0  0  0  0
   -3.5733   -3.9065   -2.3827 H   0  0  0  0  0  0  0  0  0  0  0  0
   -4.1455   -4.6738   -0.8085 H   0  0  0  0  0  0  0  0  0  0  0  0
   -4.0172    1.1586    2.3301 H   0  0  0  0  0  0  0  0  0  0  0  0
   -5.1748    1.8248    1.0729 H   0  0  0  0  0  0  0  0  0  0  0  0
   -5.8321    0.9214    2.4602 H   0  0  0  0  0  0  0  0  0  0  0  0
   -2.2642    0.5125    1.0968 H   0  0  0  0  0  0  0  0  0  0  0  0
   -0.0298    0.7830    1.7064 H   0  0  0  0  0  0  0  0  0  0  0  0
    0.1649    0.8791   -2.0760 H   0  0  0  0  0  0  0  0  0  0  0  0
   -0.7734    2.6653   -3.3718 H   0  0  0  0  0  0  0  0  0  0  0  0
   -1.8654    4.7608    0.1932 H   0  0  0  0  0  0  0  0  0  0  0  0
   -0.9283    2.9767    1.4920 H   0  0  0  0  0  0  0  0  0  0  0  0
  1  2  1  0
  2  3  1  0
  3  4  2  0
  3  5  1  0
  5  6  2  0
  6  7  1  0
  7  8  1  0
  7  9  1  0
  9 10  2  0
 10 11  1  0
 11 12  2  0
 11 13  1  0
 13 14  1  0
 14 15  1  0
 15 16  2  0
 16 17  1  0
 16 18  1  0
 18 19  2  0
 19 20  1  0
 20 21  2  0
 21 22  1  0
 21 23  1  0
 23 24  1  0
 13 25  1  0
 25 26  1  0
 26 27  2  0
 27 28  1  0
 28 29  2  0
 29 30  1  0
 29 31  1  0
 31 32  2  0
 10  5  1  0
 24 14  2  0
 32 26  1  0
 25  9  1  0
 23 18  1  0
  1 33  1  0
  1 34  1  0
  1 35  1  0
  2 36  1  0
  6 37  1  0
  8 38  1  0
  8 39  1  0
  8 40  1  0
 15 41  1  0
 17 42  1  0
 17 43  1  0
 17 44  1  0
 22 45  1  0
 22 46  1  0
 22 47  1  0
 24 48  1  0
 25 49  1  0
 27 50  1  0
 28 51  1  0
 31 52  1  0
 32 53  1  0
M  END
$$$$
