@<TRIPOS>MOLECULE
*****
 53 57 0 0 0
SMALL
GASTEIGER

@<TRIPOS>ATOM
      1 C           6.5998   -2.8178   -0.3133 C.3     1  UNL1        0.0004
      2 N           5.6992   -1.7763    0.1961 N.am    1  UNL1       -0.3144
      3 C           4.5355   -1.3850   -0.5070 C.2     1  UNL1        0.2460
      4 O           4.2832   -1.9719   -1.6161 O.2     1  UNL1       -0.2701
      5 C           3.6530   -0.3496    0.0104 C.ar    1  UNL1        0.0666
      6 C           3.9545    0.8826    0.5514 C.ar    1  UNL1        0.0175
      7 N           2.8263    1.5124    0.8968 N.ar    1  UNL1       -0.3503
      8 C           2.7282    2.8470    1.5075 C.3     1  UNL1        0.0117
      9 C           1.7515    0.7305    0.6000 C.ar    1  UNL1        0.0569
     10 C           2.2744   -0.4146    0.0553 C.ar    1  UNL1        0.0722
     11 C           1.1032   -1.2443   -0.2293 C.2     1  UNL1        0.2542
     12 O           1.1724   -2.4120   -0.7554 O.2     1  UNL1       -0.2695
     13 N          -0.0967   -0.6054    0.1437 N.am    1  UNL1       -0.2530
     14 C          -1.4421   -1.1265    0.0462 C.ar    1  UNL1        0.0545
     15 C          -1.7670   -2.3096   -0.5603 C.ar    1  UNL1       -0.0324
     16 C          -3.0619   -2.7920   -0.6250 C.ar    1  UNL1       -0.0041
     17 C          -3.3581   -4.0849   -1.3000 C.3     1  UNL1       -0.0361
     18 C          -4.0549   -2.0432   -0.0521 C.ar    1  UNL1        0.1641
     19 N          -5.4061   -2.1988    0.0740 N.ar    1  UNL1       -0.1292
     20 N          -5.9007   -1.1686    0.7253 N.ar    1  UNL1       -0.1340
     21 C          -4.8947   -0.3268    1.0353 C.ar    1  UNL1        0.1347
     22 C          -4.9580    0.9657    1.7667 C.3     1  UNL1       -0.0041
     23 N          -3.7564   -0.8810    0.5476 N.ar    1  UNL1       -0.2846
     24 C          -2.4808   -0.4108    0.6082 C.ar    1  UNL1        0.0344
     25 C           0.2651    0.7053    0.6396 C.3     1  UNL1        0.0973
     26 C          -0.3092    1.7908   -0.1849 C.ar    1  UNL1       -0.0208
     27 C          -0.2752    1.7203   -1.5560 C.ar    1  UNL1       -0.0550
     28 C          -0.8176    2.7532   -2.3078 C.ar    1  UNL1       -0.0431
     29 C          -1.3830    3.8351   -1.6941 C.ar    1  UNL1        0.0410
     30 CL         -2.0788    5.1557   -2.6490 Cl      1  UNL1       -0.0835
     31 C          -1.4271    3.9243   -0.3201 C.ar    1  UNL1       -0.0431
     32 C          -0.8788    2.8806    0.4240 C.ar    1  UNL1       -0.0550
     33 H           7.5564   -2.3400   -0.5476 H       1  UNL1        0.0426
     34 H           6.6976   -3.6453    0.3945 H       1  UNL1        0.0426
     35 H           6.1039   -3.2597   -1.2230 H       1  UNL1        0.0426
     36 H           5.8943   -1.2894    1.1025 H       1  UNL1        0.1487
     37 H           4.9733    1.2866    0.6790 H       1  UNL1        0.0817
     38 H           3.6010    3.0605    2.1527 H       1  UNL1        0.0456
     39 H           2.6650    3.6316    0.7231 H       1  UNL1        0.0456
     40 H           1.8386    2.8545    2.1703 H       1  UNL1        0.0456
     41 H          -0.9913   -2.9027   -1.0155 H       1  UNL1        0.0640
     42 H          -2.3987   -4.6822   -1.3063 H       1  UNL1        0.0279
     43 H          -3.5733   -3.9065   -2.3827 H       1  UNL1        0.0279
     44 H          -4.1455   -4.6738   -0.8085 H       1  UNL1        0.0279
     45 H          -4.0172    1.1586    2.3301 H       1  UNL1        0.0308
     46 H          -5.1748    1.8248    1.0729 H       1  UNL1        0.0308
     47 H          -5.8321    0.9214    2.4602 H       1  UNL1        0.0308
     48 H          -2.2642    0.5125    1.0968 H       1  UNL1        0.0833
     49 H          -0.0298    0.7830    1.7064 H       1  UNL1        0.0619
     50 H           0.1649    0.8791   -2.0760 H       1  UNL1        0.0621
     51 H          -0.7734    2.6653   -3.3718 H       1  UNL1        0.0632
     52 H          -1.8654    4.7608    0.1932 H       1  UNL1        0.0632
     53 H          -0.9283    2.9767    1.4920 H       1  UNL1        0.0621
@<TRIPOS>BOND
     1     1     2    1
     2     2     3   am
     3     3     4    2
     4     3     5    1
     5     5     6   ar
     6     6     7   ar
     7     7     8    1
     8     7     9   ar
     9     9    10   ar
    10    10    11    1
    11    11    12    2
    12    11    13   am
    13    13    14    1
    14    14    15   ar
    15    15    16   ar
    16    16    17    1
    17    16    18   ar
    18    18    19   ar
    19    19    20   ar
    20    20    21   ar
    21    21    22    1
    22    21    23   ar
    23    23    24   ar
    24    13    25    1
    25    25    26    1
    26    26    27   ar
    27    27    28   ar
    28    28    29   ar
    29    29    30    1
    30    29    31   ar
    31    31    32   ar
    32    10     5   ar
    33    24    14   ar
    34    32    26   ar
    35    25     9    1
    36    23    18   ar
    37     1    33    1
    38     1    34    1
    39     1    35    1
    40     2    36    1
    41     6    37    1
    42     8    38    1
    43     8    39    1
    44     8    40    1
    45    15    41    1
    46    17    42    1
    47    17    43    1
    48    17    44    1
    49    22    45    1
    50    22    46    1
    51    22    47    1
    52    24    48    1
    53    25    49    1
    54    27    50    1
    55    28    51    1
    56    31    52    1
    57    32    53    1
