@<TRIPOS>MOLECULE
*****
 44 46 0 0 0
SMALL
GASTEIGER

@<TRIPOS>ATOM
      1 C          -7.3504    1.0637    0.5380 C.3     1  UNL1       -0.0307
      2 C          -5.9006    1.5234    0.3877 C.3     1  UNL1        0.0870
      3 O          -5.0269    0.4080    0.3434 O.3     1  UNL1       -0.4886
      4 C          -3.6678    0.6719    0.2079 C.ar    1  UNL1        0.1619
      5 C          -2.7229   -0.3324    0.1532 C.ar    1  UNL1        0.1625
      6 O          -3.2289   -1.6197    0.2432 O.3     1  UNL1       -0.4886
      7 C          -2.4886   -2.7985    0.2123 C.3     1  UNL1        0.0870
      8 C          -1.6896   -3.0067   -1.0543 C.3     1  UNL1       -0.0307
      9 C          -1.3645   -0.1335    0.0199 C.ar    1  UNL1       -0.0066
     10 C          -0.9566    1.1705   -0.0616 C.ar    1  UNL1        0.0108
     11 C          -1.8410    2.2251   -0.0143 C.ar    1  UNL1       -0.0484
     12 C          -3.1907    1.9743    0.1200 C.ar    1  UNL1       -0.0156
     13 C           0.4919    1.4040   -0.2044 C.ar    1  UNL1        0.1091
     14 N           1.4332    0.7151   -0.2691 N.ar    1  UNL1       -0.2375
     15 C           2.6885    1.0419   -0.3969 C.ar    1  UNL1        0.0970
     16 C           2.8955    2.5410   -0.4663 C.ar    1  UNL1        0.0052
     17 S           1.1334    3.1753   -0.3233 S.2     1  UNL1       -0.0750
     18 C           3.8479    0.1796   -0.4762 C.ar    1  UNL1        0.0906
     19 N           5.1160    0.5843   -0.6080 N.ar    1  UNL1       -0.2386
     20 CA          6.1769   -0.2357   -0.6796 C.ar    1  UNL1        0.1481
     21 C           5.9722   -1.5956   -0.6152 C.ar    1  UNL1       -0.0292
     22 C           4.7057   -2.0976   -0.4803 C.ar    1  UNL1       -0.0575
     23 C           3.6883   -1.1714   -0.4163 C.ar    1  UNL1       -0.0341
     24 C           7.5040    0.3530   -0.8230 C.2     1  UNL1        0.3553
     25 O           8.5944   -0.4841   -0.8968 O.3     1  UNL1       -0.4761
     26 OXT         7.6001    1.5867   -0.8729 O.2     1  UNL1       -0.2434
     27 H          -7.7119    0.7595   -0.4541 H       1  UNL1        0.0262
     28 H          -7.9222    1.9538    0.8771 H       1  UNL1        0.0262
     29 H          -7.3623    0.2591    1.2884 H       1  UNL1        0.0262
     30 H          -5.8907    2.1218   -0.5565 H       1  UNL1        0.0694
     31 H          -5.6199    2.2212    1.1860 H       1  UNL1        0.0694
     32 H          -3.0867   -3.6616    0.5093 H       1  UNL1        0.0694
     33 H          -1.7097   -2.6862    1.0234 H       1  UNL1        0.0694
     34 H          -1.8531   -2.1255   -1.7021 H       1  UNL1        0.0262
     35 H          -2.1441   -3.8767   -1.5822 H       1  UNL1        0.0262
     36 H          -0.6188   -3.1466   -0.8948 H       1  UNL1        0.0262
     37 H          -0.6463   -0.9142   -0.0206 H       1  UNL1        0.0662
     38 H          -1.5055    3.2459   -0.0796 H       1  UNL1        0.0625
     39 H          -3.8651    2.8244    0.1546 H       1  UNL1        0.0655
     40 H           3.9896    2.9997   -0.5835 H       1  UNL1        0.0716
     41 H           6.8373   -2.2684   -0.6735 H       1  UNL1        0.0641
     42 H           4.4885   -3.1455   -0.4251 H       1  UNL1        0.0619
     43 H           2.6706   -1.5776   -0.3079 H       1  UNL1        0.0639
     44 H           9.5308   -0.1257   -0.7176 H       1  UNL1        0.2955
@<TRIPOS>BOND
     1     1     2    1
     2     2     3    1
     3     3     4    1
     4     4     5   ar
     5     5     6    1
     6     6     7    1
     7     7     8    1
     8     5     9   ar
     9     9    10   ar
    10    10    11   ar
    11    11    12   ar
    12    10    13    1
    13    13    14   ar
    14    14    15   ar
    15    15    16   ar
    16    16    17   ar
    17    15    18    1
    18    18    19   ar
    19    19    20   ar
    20    20    21   ar
    21    21    22   ar
    22    22    23   ar
    23    20    24    1
    24    24    25    1
    25    24    26    2
    26    12     4   ar
    27    17    13   ar
    28    23    18   ar
    29     1    27    1
    30     1    28    1
    31     1    29    1
    32     2    30    1
    33     2    31    1
    34     7    32    1
    35     7    33    1
    36     8    34    1
    37     8    35    1
    38     8    36    1
    39     9    37    1
    40    11    38    1
    41    12    39    1
    42    16    40    1
    43    21    41    1
    44    22    42    1
    45    23    43    1
    46    25    44    1
