
     RDKit          3D

 56 58  0  0  0  0  0  0  0  0999 V2000
   -3.5122   -2.7975   -1.6074 C   0  0  0  0  0  0  0  0  0  0  0  0
   -2.5387   -2.1357   -1.0018 C   0  0  0  0  0  0  0  0  0  0  0  0
   -1.1823   -2.7593   -1.1025 C   0  0  0  0  0  0  0  0  0  0  0  0
   -2.8167   -0.9490   -0.2175 C   0  0  0  0  0  0  0  0  0  0  0  0
   -4.1571   -0.6691    0.1246 C   0  0  0  0  0  0  0  0  0  0  0  0
   -4.4834    0.4012    0.8657 N   0  0  0  0  0  0  0  0  0  0  0  0
   -3.6070    1.2967    1.3503 C   0  0  0  0  0  0  0  0  0  0  0  0
   -4.0441    2.4380    2.1539 C   0  0  0  0  0  0  0  0  0  0  0  0
   -3.1890    3.3797    2.6714 C   0  0  0  0  0  0  0  0  0  0  0  0
   -3.6608    4.4355    3.4229 C   0  0  0  0  0  0  0  0  0  0  0  0
   -2.5447    5.6135    4.0646 Cl  0  0  0  0  0  0  0  0  0  0  0  0
   -5.0093    4.5751    3.6762 C   0  0  0  0  0  0  0  0  0  0  0  0
   -5.8861    3.6371    3.1637 C   0  0  0  0  0  0  0  0  0  0  0  0
   -5.3822    2.5888    2.4133 C   0  0  0  0  0  0  0  0  0  0  0  0
   -6.2643    1.6881    1.9259 F   0  0  0  0  0  0  0  0  0  0  0  0
   -2.2908    1.0584    1.0359 C   0  0  0  0  0  0  0  0  0  0  0  0
   -1.9179   -0.0499    0.2616 C   0  0  0  0  0  0  0  0  0  0  0  0
   -0.5039   -0.1665   -0.0215 N   0  0  0  0  0  0  0  0  0  0  0  0
   -0.0521    0.0299   -1.3520 C   0  0  0  0  0  0  0  0  0  0  0  0
   -1.0315    0.3770   -2.3117 C   0  0  0  0  0  0  0  0  0  0  0  0
   -0.6037    0.5638   -3.5942 C   0  0  0  0  0  0  0  0  0  0  0  0
    0.6736    0.4341   -3.9653 N   0  0  0  0  0  0  0  0  0  0  0  0
    1.6069    0.1073   -3.0701 C   0  0  0  0  0  0  0  0  0  0  0  0
    1.2563   -0.1039   -1.7281 C   0  0  0  0  0  0  0  0  0  0  0  0
    2.2700   -0.4658   -0.7543 C   0  0  0  0  0  0  0  0  0  0  0  0
    2.0425   -0.6942    0.4739 O   0  0  0  0  0  0  0  0  0  0  0  0
    3.6689   -0.6060   -1.0882 N   0  0  0  0  0  0  0  0  0  0  0  0
    4.6705   -0.9705   -0.0955 C   0  0  1  0  0  0  0  0  0  0  0  0
    5.3439   -2.2701   -0.4262 C   0  0  0  0  0  0  0  0  0  0  0  0
    6.3573   -2.5621    0.6507 C   0  0  0  0  0  0  0  0  0  0  0  0
    5.6943    0.1147    0.0965 C   0  0  0  0  0  0  0  0  0  0  0  0
    6.3974    0.4329   -1.0378 O   0  0  0  0  0  0  0  0  0  0  0  0
   -4.5400   -2.5161   -1.6491 H   0  0  0  0  0  0  0  0  0  0  0  0
   -3.3017   -3.7446   -2.1410 H   0  0  0  0  0  0  0  0  0  0  0  0
   -0.6125   -2.4731   -0.2109 H   0  0  0  0  0  0  0  0  0  0  0  0
   -1.3260   -3.8885   -0.9980 H   0  0  0  0  0  0  0  0  0  0  0  0
   -0.6563   -2.5609   -2.0302 H   0  0  0  0  0  0  0  0  0  0  0  0
   -4.9092   -1.3573   -0.2270 H   0  0  0  0  0  0  0  0  0  0  0  0
   -2.1258    3.3127    2.5001 H   0  0  0  0  0  0  0  0  0  0  0  0
   -5.3859    5.4014    4.2653 H   0  0  0  0  0  0  0  0  0  0  0  0
   -6.9396    3.7608    3.3713 H   0  0  0  0  0  0  0  0  0  0  0  0
   -1.5271    1.7402    1.3934 H   0  0  0  0  0  0  0  0  0  0  0  0
    0.0484   -0.3866    0.8110 H   0  0  0  0  0  0  0  0  0  0  0  0
   -2.0477    0.4930   -2.0613 H   0  0  0  0  0  0  0  0  0  0  0  0
   -1.2975    0.8353   -4.4033 H   0  0  0  0  0  0  0  0  0  0  0  0
    2.6444   -0.0080   -3.3247 H   0  0  0  0  0  0  0  0  0  0  0  0
    3.9494   -0.4380   -2.0667 H   0  0  0  0  0  0  0  0  0  0  0  0
    4.1477   -1.0998    0.8708 H   0  0  0  0  0  0  0  0  0  0  0  0
    5.7578   -2.3191   -1.4403 H   0  0  0  0  0  0  0  0  0  0  0  0
    4.5864   -3.1057   -0.3697 H   0  0  0  0  0  0  0  0  0  0  0  0
    7.3604   -2.1851    0.4315 H   0  0  0  0  0  0  0  0  0  0  0  0
    6.4550   -3.6483    0.8539 H   0  0  0  0  0  0  0  0  0  0  0  0
    6.0328   -2.1054    1.6158 H   0  0  0  0  0  0  0  0  0  0  0  0
    6.4078   -0.2461    0.8651 H   0  0  0  0  0  0  0  0  0  0  0  0
    5.1940    1.0241    0.4815 H   0  0  0  0  0  0  0  0  0  0  0  0
    6.7816   -0.3192   -1.5143 H   0  0  0  0  0  0  0  0  0  0  0  0
  1  2  2  3
  2  3  1  0
  2  4  1  0
  4  5  2  0
  5  6  1  0
  6  7  2  0
  7  8  1  0
  8  9  2  0
  9 10  1  0
 10 11  1  0
 10 12  2  0
 12 13  1  0
 13 14  2  0
 14 15  1  0
  7 16  1  0
 16 17  2  0
 17 18  1  0
 18 19  1  0
 19 20  2  0
 20 21  1  0
 21 22  2  0
 22 23  1  0
 23 24  2  0
 24 25  1  0
 25 26  2  0
 25 27  1  0
 27 28  1  0
 28 29  1  0
 29 30  1  0
 28 31  1  0
 31 32  1  0
 17  4  1  0
 24 19  1  0
 14  8  1  0
  1 33  1  0
  1 34  1  0
  3 35  1  0
  3 36  1  0
  3 37  1  0
  5 38  1  0
  9 39  1  0
 12 40  1  0
 13 41  1  0
 16 42  1  0
 18 43  1  0
 20 44  1  0
 21 45  1  0
 23 46  1  0
 27 47  1  0
 28 48  1  1
 29 49  1  0
 29 50  1  0
 30 51  1  0
 30 52  1  0
 30 53  1  0
 31 54  1  0
 31 55  1  0
 32 56  1  0
M  END
$$$$
