@<TRIPOS>MOLECULE
*****
 56 58 0 0 0
SMALL
GASTEIGER

@<TRIPOS>ATOM
      1 C          -3.5122   -2.7975   -1.6074 C.2     1  UNL1       -0.0951
      2 C          -2.5387   -2.1357   -1.0018 C.2     1  UNL1       -0.0472
      3 C          -1.1823   -2.7593   -1.1025 C.3     1  UNL1       -0.0396
      4 C          -2.8167   -0.9490   -0.2175 C.ar    1  UNL1        0.0166
      5 C          -4.1571   -0.6691    0.1246 C.ar    1  UNL1        0.0374
      6 N          -4.4834    0.4012    0.8657 N.ar    1  UNL1       -0.2542
      7 C          -3.6070    1.2967    1.3503 C.ar    1  UNL1        0.0755
      8 C          -4.0441    2.4380    2.1539 C.ar    1  UNL1        0.0369
      9 C          -3.1890    3.3797    2.6714 C.ar    1  UNL1       -0.0314
     10 C          -3.6608    4.4355    3.4229 C.ar    1  UNL1        0.0418
     11 CL         -2.5447    5.6135    4.0646 Cl      1  UNL1       -0.0835
     12 C          -5.0093    4.5751    3.6762 C.ar    1  UNL1       -0.0406
     13 C          -5.8861    3.6371    3.1637 C.ar    1  UNL1       -0.0244
     14 C          -5.3822    2.5888    2.4133 C.ar    1  UNL1        0.1326
     15 F          -6.2643    1.6881    1.9259 F       1  UNL1       -0.2048
     16 C          -2.2908    1.0584    1.0359 C.ar    1  UNL1       -0.0138
     17 C          -1.9179   -0.0499    0.2616 C.ar    1  UNL1        0.0423
     18 N          -0.5039   -0.1665   -0.0215 N.pl3   1  UNL1       -0.3133
     19 C          -0.0521    0.0299   -1.3520 C.ar    1  UNL1        0.0465
     20 C          -1.0315    0.3770   -2.3117 C.ar    1  UNL1       -0.0217
     21 C          -0.6037    0.5638   -3.5942 C.ar    1  UNL1        0.0293
     22 N           0.6736    0.4341   -3.9653 N.ar    1  UNL1       -0.2624
     23 C           1.6069    0.1073   -3.0701 C.ar    1  UNL1        0.0415
     24 C           1.2563   -0.1039   -1.7281 C.ar    1  UNL1        0.0758
     25 C           2.2700   -0.4658   -0.7543 C.2     1  UNL1        0.2476
     26 O           2.0425   -0.6942    0.4739 O.2     1  UNL1       -0.2701
     27 N           3.6689   -0.6060   -1.0882 N.am    1  UNL1       -0.3062
     28 CA          4.6705   -0.9705   -0.0955 C.3     1  UNL1        0.0462
     29 C           5.3439   -2.2701   -0.4262 C.3     1  UNL1       -0.0352
     30 C           6.3573   -2.5621    0.6507 C.3     1  UNL1       -0.0635
     31 C           5.6943    0.1147    0.0965 C.3     1  UNL1        0.0626
     32 O           6.3974    0.4329   -1.0378 O.3     1  UNL1       -0.3932
     33 H          -4.5400   -2.5161   -1.6491 H       1  UNL1        0.0538
     34 H          -3.3017   -3.7446   -2.1410 H       1  UNL1        0.0538
     35 H          -0.6125   -2.4731   -0.2109 H       1  UNL1        0.0278
     36 H          -1.3260   -3.8885   -0.9980 H       1  UNL1        0.0278
     37 H          -0.6563   -2.5609   -2.0302 H       1  UNL1        0.0278
     38 H          -4.9092   -1.3573   -0.2270 H       1  UNL1        0.0836
     39 H          -2.1258    3.3127    2.5001 H       1  UNL1        0.0639
     40 H          -5.3859    5.4014    4.2653 H       1  UNL1        0.0633
     41 H          -6.9396    3.7608    3.3713 H       1  UNL1        0.0647
     42 H          -1.5271    1.7402    1.3934 H       1  UNL1        0.0658
     43 H           0.0484   -0.3866    0.8110 H       1  UNL1        0.1522
     44 H          -2.0477    0.4930   -2.0613 H       1  UNL1        0.0651
     45 H          -1.2975    0.8353   -4.4033 H       1  UNL1        0.0830
     46 H           2.6444   -0.0080   -3.3247 H       1  UNL1        0.0838
     47 H           3.9494   -0.4380   -2.0667 H       1  UNL1        0.1494
     48 HA          4.1477   -1.0998    0.8708 H       1  UNL1        0.0521
     49 H           5.7578   -2.3191   -1.4403 H       1  UNL1        0.0281
     50 H           4.5864   -3.1057   -0.3697 H       1  UNL1        0.0281
     51 H           7.3604   -2.1851    0.4315 H       1  UNL1        0.0230
     52 H           6.4550   -3.6483    0.8539 H       1  UNL1        0.0230
     53 H           6.0328   -2.1054    1.6158 H       1  UNL1        0.0230
     54 H1          6.4078   -0.2461    0.8651 H       1  UNL1        0.0575
     55 H2          5.1940    1.0241    0.4815 H       1  UNL1        0.0575
     56 H           6.7816   -0.3192   -1.5143 H       1  UNL1        0.2095
@<TRIPOS>BOND
     1     1     2    2
     2     2     3    1
     3     2     4    1
     4     4     5   ar
     5     5     6   ar
     6     6     7   ar
     7     7     8    1
     8     8     9   ar
     9     9    10   ar
    10    10    11    1
    11    10    12   ar
    12    12    13   ar
    13    13    14   ar
    14    14    15    1
    15     7    16   ar
    16    16    17   ar
    17    17    18    1
    18    18    19    1
    19    19    20   ar
    20    20    21   ar
    21    21    22   ar
    22    22    23   ar
    23    23    24   ar
    24    24    25    1
    25    25    26    2
    26    25    27   am
    27    27    28    1
    28    28    29    1
    29    29    30    1
    30    28    31    1
    31    31    32    1
    32    17     4   ar
    33    24    19   ar
    34    14     8   ar
    35     1    33    1
    36     1    34    1
    37     3    35    1
    38     3    36    1
    39     3    37    1
    40     5    38    1
    41     9    39    1
    42    12    40    1
    43    13    41    1
    44    16    42    1
    45    18    43    1
    46    20    44    1
    47    21    45    1
    48    23    46    1
    49    27    47    1
    50    28    48    1
    51    29    49    1
    52    29    50    1
    53    30    51    1
    54    30    52    1
    55    30    53    1
    56    31    54    1
    57    31    55    1
    58    32    56    1
