@<TRIPOS>MOLECULE
*****
 39 41 0 0 0
SMALL
GASTEIGER

@<TRIPOS>ATOM
      1 N           0.2981   -4.2520   -2.3182 N.1     1  UNL1       -0.1943
      2 C           0.1364   -3.3070   -1.4880 C.1     1  UNL1        0.0890
      3 C          -0.0283   -2.2031   -0.5087 C.3     1  UNL1        0.1288
      4 N           1.1127   -1.3390   -0.4446 N.am    1  UNL1       -0.2955
      5 C           1.5885   -0.4799   -1.4793 C.2     1  UNL1        0.2313
      6 O           0.9848   -0.4508   -2.5556 O.2     1  UNL1       -0.2741
      7 C           2.8269    0.3688   -1.1996 C.3     1  UNL1        0.0868
      8 N           3.3354    0.8266   -2.4705 N.3     1  UNL1       -0.3197
      9 C           2.5148    1.5330   -0.3075 C.3     1  UNL1        0.0023
     10 C           1.3979    2.3490   -0.9601 C.ar    1  UNL1       -0.0083
     11 C           0.1020    2.1711   -0.7363 C.ar    1  UNL1       -0.0515
     12 C          -0.8067    2.9958   -1.4371 C.ar    1  UNL1       -0.0545
     13 C          -0.3106    3.8970   -2.2675 C.ar    1  UNL1       -0.0241
     14 S           1.5332    3.6214   -2.1035 S.2     1  UNL1       -0.1015
     15 C          -1.3920   -1.5728   -0.7792 C.3     1  UNL1       -0.0079
     16 C          -1.0457   -2.4023    0.5011 C.3     1  UNL1        0.0216
     17 C          -1.3632   -1.5925    1.6725 C.ar    1  UNL1       -0.0411
     18 C          -0.7104   -0.5379    2.1800 C.ar    1  UNL1       -0.0582
     19 C          -1.0962    0.2552    3.2699 C.ar    1  UNL1       -0.0615
     20 C          -2.3092   -0.1542    3.8529 C.ar    1  UNL1       -0.0617
     21 C          -2.9912   -1.1701    3.4117 C.ar    1  UNL1       -0.0615
     22 C          -2.5874   -1.9622    2.3059 C.ar    1  UNL1       -0.0582
     23 H           1.6771   -1.3234    0.4307 H       1  UNL1        0.1503
     24 H           3.5836   -0.3026   -0.7413 H       1  UNL1        0.0558
     25 H           2.6889    1.5442   -2.9206 H       1  UNL1        0.1189
     26 H           3.4490    0.0132   -3.1523 H       1  UNL1        0.1189
     27 H           2.1698    1.3082    0.6890 H       1  UNL1        0.0338
     28 H           3.3883    2.2134   -0.3509 H       1  UNL1        0.0338
     29 H          -0.2803    1.4071   -0.0203 H       1  UNL1        0.0626
     30 H          -1.8937    2.8216   -1.2454 H       1  UNL1        0.0623
     31 H          -0.7038    4.6328   -2.9375 H       1  UNL1        0.0693
     32 H          -1.4495   -0.4929   -0.6966 H       1  UNL1        0.0303
     33 H          -2.1132   -2.0388   -1.4443 H       1  UNL1        0.0303
     34 H          -1.5801   -3.4178    0.5033 H       1  UNL1        0.0381
     35 H           0.2348   -0.2320    1.7421 H       1  UNL1        0.0620
     36 H          -0.5580    1.0758    3.5981 H       1  UNL1        0.0618
     37 H          -2.6607    0.4430    4.7122 H       1  UNL1        0.0618
     38 H          -3.9450   -1.4863    3.8861 H       1  UNL1        0.0618
     39 H          -3.1972   -2.7596    2.0073 H       1  UNL1        0.0620
@<TRIPOS>BOND
     1     1     2    3
     2     3     2    1
     3     3     4    1
     4     4     5   am
     5     5     6    2
     6     5     7    1
     7     7     8    1
     8     7     9    1
     9     9    10    1
    10    10    11   ar
    11    11    12   ar
    12    12    13   ar
    13    13    14   ar
    14     3    15    1
    15    15    16    1
    16    16    17    1
    17    17    18   ar
    18    18    19   ar
    19    19    20   ar
    20    20    21   ar
    21    21    22   ar
    22    16     3    1
    23    22    17   ar
    24    14    10   ar
    25     4    23    1
    26     7    24    1
    27     8    25    1
    28     8    26    1
    29     9    27    1
    30     9    28    1
    31    11    29    1
    32    12    30    1
    33    13    31    1
    34    15    32    1
    35    15    33    1
    36    16    34    1
    37    18    35    1
    38    19    36    1
    39    20    37    1
    40    21    38    1
    41    22    39    1
