
     RDKit          3D

 41 44  0  0  0  0  0  0  0  0999 V2000
    2.5251   -2.2694    0.0998 N   0  0  0  0  0  0  0  0  0  0  0  0
    1.3565   -1.4997   -0.1145 C   0  0  0  0  0  0  0  0  0  0  0  0
    0.2152   -2.1844   -0.1522 N   0  0  0  0  0  0  0  0  0  0  0  0
   -1.0112   -1.6571   -0.3225 C   0  0  0  0  0  0  0  0  0  0  0  0
   -1.0468   -0.2878   -0.4664 C   0  0  0  0  0  0  0  0  0  0  0  0
   -2.3482    0.3874   -0.6585 C   0  0  0  0  0  0  0  0  0  0  0  0
   -2.5116    1.3599   -1.6093 C   0  0  0  0  0  0  0  0  0  0  0  0
   -3.7237    1.9696   -1.7681 C   0  0  0  0  0  0  0  0  0  0  0  0
   -4.7933    1.6130   -0.9743 C   0  0  0  0  0  0  0  0  0  0  0  0
   -4.6463    0.6385   -0.0149 C   0  0  0  0  0  0  0  0  0  0  0  0
   -5.9878    0.1565    1.0171 S   0  0  0  0  0  6  0  0  0  0  0  0
   -6.8588   -1.1414    0.2642 N   0  0  0  0  0  0  0  0  0  0  0  0
   -5.5196   -0.2068    2.3840 O   0  0  0  0  0  0  0  0  0  0  0  0
   -6.9244    1.3179    1.1073 O   0  0  0  0  0  0  0  0  0  0  0  0
   -3.4181    0.0406    0.1253 C   0  0  0  0  0  0  0  0  0  0  0  0
    0.1283    0.4395   -0.4301 C   0  0  0  0  0  0  0  0  0  0  0  0
    0.3835    2.1686   -0.5657 S   0  0  0  0  0  0  0  0  0  0  0  0
    2.1835    2.1059   -0.3842 C   0  0  0  0  0  0  0  0  0  0  0  0
    2.4368    0.7294   -0.2323 C   0  0  0  0  0  0  0  0  0  0  0  0
    3.8474    0.3312   -0.1063 C   0  0  0  0  0  0  0  0  0  0  0  0
    4.3699   -0.5287   -1.0495 C   0  0  0  0  0  0  0  0  0  0  0  0
    5.6766   -0.9574   -0.9824 C   0  0  0  0  0  0  0  0  0  0  0  0
    6.5019   -0.5424    0.0250 C   0  0  0  0  0  0  0  0  0  0  0  0
    7.8055   -0.9677    0.0953 F   0  0  0  0  0  0  0  0  0  0  0  0
    6.0037    0.3207    0.9840 C   0  0  0  0  0  0  0  0  0  0  0  0
    7.0378    0.8645    2.2788 Cl  0  0  0  0  0  0  0  0  0  0  0  0
    4.6758    0.7481    0.9048 C   0  0  0  0  0  0  0  0  0  0  0  0
    1.3819   -0.0886   -0.2581 C   0  0  0  0  0  0  0  0  0  0  0  0
    2.8879   -2.9754   -0.5780 H   0  0  0  0  0  0  0  0  0  0  0  0
    3.0901   -2.1529    0.9826 H   0  0  0  0  0  0  0  0  0  0  0  0
   -1.8876   -2.2542   -0.3444 H   0  0  0  0  0  0  0  0  0  0  0  0
   -1.6865    1.6540   -2.2415 H   0  0  0  0  0  0  0  0  0  0  0  0
   -3.8822    2.7559   -2.5266 H   0  0  0  0  0  0  0  0  0  0  0  0
   -5.7548    2.0936   -1.0971 H   0  0  0  0  0  0  0  0  0  0  0  0
   -7.8221   -1.1075    0.6124 H   0  0  0  0  0  0  0  0  0  0  0  0
   -6.3585   -2.0325    0.4299 H   0  0  0  0  0  0  0  0  0  0  0  0
   -3.2859   -0.7295    0.8771 H   0  0  0  0  0  0  0  0  0  0  0  0
    2.8723    2.9775   -0.3974 H   0  0  0  0  0  0  0  0  0  0  0  0
    3.7446   -0.8781   -1.8918 H   0  0  0  0  0  0  0  0  0  0  0  0
    6.0524   -1.6224   -1.7254 H   0  0  0  0  0  0  0  0  0  0  0  0
    4.2906    1.4117    1.6409 H   0  0  0  0  0  0  0  0  0  0  0  0
  1  2  1  0
  2  3  2  0
  3  4  1  0
  4  5  2  0
  5  6  1  0
  6  7  2  0
  7  8  1  0
  8  9  2  0
  9 10  1  0
 10 11  1  0
 11 12  1  0
 11 13  2  0
 11 14  2  0
 10 15  2  0
  5 16  1  0
 16 17  1  0
 17 18  1  0
 18 19  2  0
 19 20  1  0
 20 21  2  0
 21 22  1  0
 22 23  2  0
 23 24  1  0
 23 25  1  0
 25 26  1  0
 25 27  2  0
 19 28  1  0
 28  2  1  0
 15  6  1  0
 28 16  2  0
 27 20  1  0
  1 29  1  0
  1 30  1  0
  4 31  1  0
  7 32  1  0
  8 33  1  0
  9 34  1  0
 12 35  1  0
 12 36  1  0
 15 37  1  0
 18 38  1  0
 21 39  1  0
 22 40  1  0
 27 41  1  0
M  END
$$$$
