@<TRIPOS>MOLECULE
*****
 41 44 0 0 0
SMALL
GASTEIGER

@<TRIPOS>ATOM
      1 N           2.5251   -2.2694    0.0998 N.pl3   1  UNL1       -0.3426
      2 C           1.3565   -1.4997   -0.1145 C.ar    1  UNL1        0.1250
      3 N           0.2152   -2.1844   -0.1522 N.ar    1  UNL1       -0.2394
      4 C          -1.0112   -1.6571   -0.3225 C.ar    1  UNL1        0.0385
      5 C          -1.0468   -0.2878   -0.4664 C.ar    1  UNL1        0.0147
      6 C          -2.3482    0.3874   -0.6585 C.ar    1  UNL1       -0.0135
      7 C          -2.5116    1.3599   -1.6093 C.ar    1  UNL1       -0.0538
      8 C          -3.7237    1.9696   -1.7681 C.ar    1  UNL1       -0.0593
      9 C          -4.7933    1.6130   -0.9743 C.ar    1  UNL1       -0.0353
     10 C          -4.6463    0.6385   -0.0149 C.ar    1  UNL1        0.1056
     11 S          -5.9878    0.1565    1.0171 S.O2    1  UNL1        0.0560
     12 N          -6.8588   -1.1414    0.2642 N.3     1  UNL1       -0.2035
     13 O          -5.5196   -0.2068    2.3840 O.2     1  UNL1       -0.1533
     14 O          -6.9244    1.3179    1.1073 O.2     1  UNL1       -0.1533
     15 C          -3.4181    0.0406    0.1253 C.ar    1  UNL1       -0.0276
     16 C           0.1283    0.4395   -0.4301 C.ar    1  UNL1        0.0323
     17 S           0.3835    2.1686   -0.5657 S.2     1  UNL1       -0.0953
     18 C           2.1835    2.1059   -0.3842 C.ar    1  UNL1       -0.0153
     19 C           2.4368    0.7294   -0.2323 C.ar    1  UNL1        0.0002
     20 C           3.8474    0.3312   -0.1063 C.ar    1  UNL1       -0.0151
     21 C           4.3699   -0.5287   -1.0495 C.ar    1  UNL1       -0.0512
     22 C           5.6766   -0.9574   -0.9824 C.ar    1  UNL1       -0.0244
     23 C           6.5019   -0.5424    0.0250 C.ar    1  UNL1        0.1417
     24 F           7.8055   -0.9677    0.0953 F       1  UNL1       -0.2040
     25 C           6.0037    0.3207    0.9840 C.ar    1  UNL1        0.0767
     26 CL          7.0378    0.8645    2.2788 Cl      1  UNL1       -0.0806
     27 C           4.6758    0.7481    0.9048 C.ar    1  UNL1       -0.0328
     28 C           1.3819   -0.0886   -0.2581 C.ar    1  UNL1        0.0370
     29 H           2.8879   -2.9754   -0.5780 H       1  UNL1        0.1437
     30 H           3.0901   -2.1529    0.9826 H       1  UNL1        0.1437
     31 H          -1.8876   -2.2542   -0.3444 H       1  UNL1        0.0837
     32 H          -1.6865    1.6540   -2.2415 H       1  UNL1        0.0624
     33 H          -3.8822    2.7559   -2.5266 H       1  UNL1        0.0618
     34 H          -5.7548    2.0936   -1.0971 H       1  UNL1        0.0637
     35 H          -7.8221   -1.1075    0.6124 H       1  UNL1        0.1442
     36 H          -6.3585   -2.0325    0.4299 H       1  UNL1        0.1442
     37 H          -3.2859   -0.7295    0.8771 H       1  UNL1        0.0643
     38 H           2.8723    2.9775   -0.3974 H       1  UNL1        0.0700
     39 H           3.7446   -0.8781   -1.8918 H       1  UNL1        0.0624
     40 H           6.0524   -1.6224   -1.7254 H       1  UNL1        0.0647
     41 H           4.2906    1.4117    1.6409 H       1  UNL1        0.0639
@<TRIPOS>BOND
     1     1     2    1
     2     2     3   ar
     3     3     4   ar
     4     4     5   ar
     5     5     6    1
     6     6     7   ar
     7     7     8   ar
     8     8     9   ar
     9     9    10   ar
    10    10    11    1
    11    11    12    1
    12    11    13    2
    13    11    14    2
    14    10    15   ar
    15     5    16   ar
    16    16    17   ar
    17    17    18   ar
    18    18    19   ar
    19    19    20    1
    20    20    21   ar
    21    21    22   ar
    22    22    23   ar
    23    23    24    1
    24    23    25   ar
    25    25    26    1
    26    25    27   ar
    27    19    28   ar
    28    28     2   ar
    29    15     6   ar
    30    28    16   ar
    31    27    20   ar
    32     1    29    1
    33     1    30    1
    34     4    31    1
    35     7    32    1
    36     8    33    1
    37     9    34    1
    38    12    35    1
    39    12    36    1
    40    15    37    1
    41    18    38    1
    42    21    39    1
    43    22    40    1
    44    27    41    1
