
     RDKit          3D

 35 37  0  0  0  0  0  0  0  0999 V2000
    5.5627    0.9689   -0.8072 N   0  0  0  0  0  0  0  0  0  0  0  0
    4.8608   -0.0667   -0.1517 C   0  0  0  0  0  0  0  0  0  0  0  0
    5.5127   -1.0020    0.3751 O   0  0  0  0  0  0  0  0  0  0  0  0
    3.3909   -0.0557   -0.0839 C   0  0  0  0  0  0  0  0  0  0  0  0
    2.6729    0.9706   -0.6619 C   0  0  0  0  0  0  0  0  0  0  0  0
    1.3142    0.9220   -0.5640 C   0  0  0  0  0  0  0  0  0  0  0  0
    0.6415   -0.0956    0.0793 C   0  0  0  0  0  0  0  0  0  0  0  0
   -0.7717   -0.0869    0.1456 N   0  0  0  0  0  0  0  0  0  0  0  0
   -1.4665    1.0392   -0.4932 C   0  0  0  0  0  0  0  0  0  0  0  0
   -2.9036    0.8497   -0.3069 C   0  0  0  0  0  0  0  0  0  0  0  0
   -3.7210    0.1600   -1.1906 C   0  0  0  0  0  0  0  0  0  0  0  0
   -5.0731    0.0013   -0.9820 C   0  0  0  0  0  0  0  0  0  0  0  0
   -5.6212    0.5521    0.1486 C   0  0  0  0  0  0  0  0  0  0  0  0
   -4.8273    1.2475    1.0503 C   0  0  0  0  0  0  0  0  0  0  0  0
   -5.5327    1.9584    2.5090 Cl  0  0  0  0  0  0  0  0  0  0  0  0
   -3.4850    1.4026    0.8391 C   0  0  0  0  0  0  0  0  0  0  0  0
    1.3459   -1.1251    0.6599 C   0  0  0  0  0  0  0  0  0  0  0  0
    0.7592   -2.1704    1.3154 C   0  0  0  0  0  0  0  0  0  0  0  0
    1.5212   -3.1324    1.8526 N   0  0  0  0  0  0  0  0  0  0  0  0
    2.8548   -3.0792    1.7532 C   0  0  0  0  0  0  0  0  0  0  0  0
    3.4789   -2.0822    1.1248 N   0  0  0  0  0  0  0  0  0  0  0  0
    2.7447   -1.0863    0.5658 C   0  0  0  0  0  0  0  0  0  0  0  0
    6.5003    1.3322   -0.4686 H   0  0  0  0  0  0  0  0  0  0  0  0
    5.2053    1.4527   -1.6770 H   0  0  0  0  0  0  0  0  0  0  0  0
    3.2347    1.7496   -1.1567 H   0  0  0  0  0  0  0  0  0  0  0  0
    0.7487    1.7348   -1.0218 H   0  0  0  0  0  0  0  0  0  0  0  0
   -1.3319   -0.8051    0.6039 H   0  0  0  0  0  0  0  0  0  0  0  0
   -1.1120    1.9509    0.0076 H   0  0  0  0  0  0  0  0  0  0  0  0
   -1.1721    1.0026   -1.5617 H   0  0  0  0  0  0  0  0  0  0  0  0
   -3.2358   -0.2533   -2.0652 H   0  0  0  0  0  0  0  0  0  0  0  0
   -5.6754   -0.5424   -1.6936 H   0  0  0  0  0  0  0  0  0  0  0  0
   -6.6666    0.4754    0.3882 H   0  0  0  0  0  0  0  0  0  0  0  0
   -2.8618    1.9445    1.5403 H   0  0  0  0  0  0  0  0  0  0  0  0
   -0.3087   -2.2415    1.4120 H   0  0  0  0  0  0  0  0  0  0  0  0
    3.4169   -3.8900    2.2102 H   0  0  0  0  0  0  0  0  0  0  0  0
  1  2  1  0
  2  3  2  0
  2  4  1  0
  4  5  2  0
  5  6  1  0
  6  7  2  0
  7  8  1  0
  8  9  1  0
  9 10  1  0
 10 11  2  0
 11 12  1  0
 12 13  2  0
 13 14  1  0
 14 15  1  0
 14 16  2  0
  7 17  1  0
 17 18  2  0
 18 19  1  0
 19 20  2  0
 20 21  1  0
 21 22  2  0
 22  4  1  0
 16 10  1  0
 22 17  1  0
  1 23  1  0
  1 24  1  0
  5 25  1  0
  6 26  1  0
  8 27  1  0
  9 28  1  0
  9 29  1  0
 11 30  1  0
 12 31  1  0
 13 32  1  0
 16 33  1  0
 18 34  1  0
 20 35  1  0
M  END
$$$$
