@<TRIPOS>MOLECULE
*****
 35 37 0 0 0
SMALL
GASTEIGER

@<TRIPOS>ATOM
      1 N           5.5627    0.9689   -0.8072 N.am    1  UNL1       -0.3253
      2 C           4.8608   -0.0667   -0.1517 C.2     1  UNL1        0.2436
      3 O           5.5127   -1.0020    0.3751 O.2     1  UNL1       -0.2703
      4 C           3.3909   -0.0557   -0.0839 C.ar    1  UNL1        0.0626
      5 C           2.6729    0.9706   -0.6619 C.ar    1  UNL1       -0.0458
      6 C           1.3142    0.9220   -0.5640 C.ar    1  UNL1       -0.0394
      7 C           0.6415   -0.0956    0.0793 C.ar    1  UNL1        0.0382
      8 N          -0.7717   -0.0869    0.1456 N.pl3   1  UNL1       -0.3392
      9 C          -1.4665    1.0392   -0.4932 C.3     1  UNL1        0.0344
     10 C          -2.9036    0.8497   -0.3069 C.ar    1  UNL1       -0.0290
     11 C          -3.7210    0.1600   -1.1906 C.ar    1  UNL1       -0.0570
     12 C          -5.0731    0.0013   -0.9820 C.ar    1  UNL1       -0.0601
     13 C          -5.6212    0.5521    0.1486 C.ar    1  UNL1       -0.0434
     14 C          -4.8273    1.2475    1.0503 C.ar    1  UNL1        0.0413
     15 CL         -5.5327    1.9584    2.5090 Cl      1  UNL1       -0.0835
     16 C          -3.4850    1.4026    0.8391 C.ar    1  UNL1       -0.0387
     17 C           1.3459   -1.1251    0.6599 C.ar    1  UNL1        0.0400
     18 C           0.7592   -2.1704    1.3154 C.ar    1  UNL1        0.0403
     19 N           1.5212   -3.1324    1.8526 N.ar    1  UNL1       -0.2430
     20 C           2.8548   -3.0792    1.7532 C.ar    1  UNL1        0.1166
     21 N           3.4789   -2.0822    1.1248 N.ar    1  UNL1       -0.2346
     22 C           2.7447   -1.0863    0.5658 C.ar    1  UNL1        0.0880
     23 H           6.5003    1.3322   -0.4686 H       1  UNL1        0.1453
     24 H           5.2053    1.4527   -1.6770 H       1  UNL1        0.1453
     25 H           3.2347    1.7496   -1.1567 H       1  UNL1        0.0626
     26 H           0.7487    1.7348   -1.0218 H       1  UNL1        0.0636
     27 H          -1.3319   -0.8051    0.6039 H       1  UNL1        0.1464
     28 H          -1.1120    1.9509    0.0076 H       1  UNL1        0.0511
     29 H          -1.1721    1.0026   -1.5617 H       1  UNL1        0.0511
     30 H          -3.2358   -0.2533   -2.0652 H       1  UNL1        0.0621
     31 H          -5.6754   -0.5424   -1.6936 H       1  UNL1        0.0618
     32 H          -6.6666    0.4754    0.3882 H       1  UNL1        0.0632
     33 H          -2.8618    1.9445    1.5403 H       1  UNL1        0.0635
     34 H          -0.3087   -2.2415    1.4120 H       1  UNL1        0.0837
     35 H           3.4169   -3.8900    2.2102 H       1  UNL1        0.1047
@<TRIPOS>BOND
     1     1     2   am
     2     2     3    2
     3     2     4    1
     4     4     5   ar
     5     5     6   ar
     6     6     7   ar
     7     7     8    1
     8     8     9    1
     9     9    10    1
    10    10    11   ar
    11    11    12   ar
    12    12    13   ar
    13    13    14   ar
    14    14    15    1
    15    14    16   ar
    16     7    17   ar
    17    17    18   ar
    18    18    19   ar
    19    19    20   ar
    20    20    21   ar
    21    21    22   ar
    22    22     4   ar
    23    16    10   ar
    24    22    17   ar
    25     1    23    1
    26     1    24    1
    27     5    25    1
    28     6    26    1
    29     8    27    1
    30     9    28    1
    31     9    29    1
    32    11    30    1
    33    12    31    1
    34    13    32    1
    35    16    33    1
    36    18    34    1
    37    20    35    1
