@<TRIPOS>MOLECULE
*****
 55 59 0 0 0
SMALL
GASTEIGER

@<TRIPOS>ATOM
      1 O          -0.3239   -0.2766   -1.4214 O.2     1  UNL1       -0.2748
      2 C          -0.0249    0.5231   -0.4984 C.2     1  UNL1        0.2271
      3 C          -1.0110    1.5813   -0.2117 C.3     1  UNL1        0.0826
      4 C          -2.2081    1.5243   -1.0668 C.ar    1  UNL1        0.1206
      5 N          -3.2387    0.7745   -0.6328 N.ar    1  UNL1       -0.2186
      6 C          -4.4010    0.6346   -1.3219 C.ar    1  UNL1        0.1285
      7 N          -5.4587   -0.1696   -0.8246 N.pl3   1  UNL1       -0.3106
      8 C          -5.2819   -0.9646    0.4029 C.3     1  UNL1        0.0370
      9 C          -6.4224   -0.6362    1.3366 C.3     1  UNL1        0.0634
     10 O          -7.6586   -0.8333    0.7443 O.3     1  UNL1       -0.3767
     11 C          -7.8325   -0.0662   -0.3788 C.3     1  UNL1        0.0634
     12 C          -6.7544   -0.2799   -1.4404 C.3     1  UNL1        0.0370
     13 C          -4.4640    1.3165   -2.5111 C.ar    1  UNL1        0.0427
     14 C          -3.3892    2.0946   -2.9572 C.ar    1  UNL1        0.2533
     15 O          -3.4473    2.7203   -4.0475 O.2     1  UNL1       -0.2677
     16 N          -2.2782    2.1891   -2.2330 N.ar    1  UNL1       -0.3104
     17 N           1.1909    0.3571    0.1747 N.am    1  UNL1       -0.2705
     18 C           1.7641    1.1359    1.2692 C.3     1  UNL1        0.0239
     19 C           3.2419    1.0555    0.9727 C.3     1  UNL1       -0.0091
     20 C           3.3851   -0.2882    0.3749 C.ar    1  UNL1       -0.0168
     21 C           4.5079   -1.1022    0.2524 C.ar    1  UNL1       -0.0129
     22 C           5.8233   -0.7275    0.7394 C.ar    1  UNL1       -0.0176
     23 C           6.5250   -1.7062    1.4415 C.ar    1  UNL1       -0.0540
     24 C           7.7820   -1.4595    1.9486 C.ar    1  UNL1       -0.0612
     25 C           8.3493   -0.2171    1.7532 C.ar    1  UNL1       -0.0617
     26 C           7.6515    0.7276    1.0660 C.ar    1  UNL1       -0.0612
     27 C           6.3960    0.5043    0.5506 C.ar    1  UNL1       -0.0540
     28 C           4.3624   -2.3252   -0.3623 C.ar    1  UNL1       -0.0537
     29 C           3.1340   -2.7293   -0.8427 C.ar    1  UNL1       -0.0594
     30 C           2.0395   -1.9006   -0.7064 C.ar    1  UNL1       -0.0400
     31 C           2.1515   -0.6576   -0.0900 C.ar    1  UNL1        0.0401
     32 H          -0.4810    2.5679   -0.2587 H       1  UNL1        0.0438
     33 H          -1.3375    1.4770    0.8412 H       1  UNL1        0.0438
     34 H          -4.3398   -0.7318    0.9003 H       1  UNL1        0.0487
     35 H          -5.3768   -2.0211    0.0911 H       1  UNL1        0.0487
     36 H          -6.3487   -1.3641    2.1793 H       1  UNL1        0.0575
     37 H          -6.3142    0.4047    1.7178 H       1  UNL1        0.0575
     38 H          -7.8983    1.0260   -0.1701 H       1  UNL1        0.0575
     39 H          -8.7799   -0.3673   -0.8567 H       1  UNL1        0.0575
     40 H          -6.9198    0.5048   -2.1846 H       1  UNL1        0.0487
     41 H          -6.8754   -1.3047   -1.8638 H       1  UNL1        0.0487
     42 H          -5.3486    1.2648   -3.1332 H       1  UNL1        0.0706
     43 H          -1.4410    2.7485   -2.5024 H       1  UNL1        0.1700
     44 H           1.4223    2.1862    1.2431 H       1  UNL1        0.0472
     45 H           1.6005    0.6515    2.2541 H       1  UNL1        0.0472
     46 H           3.8597    1.1887    1.8841 H       1  UNL1        0.0329
     47 H           3.4986    1.8073    0.2017 H       1  UNL1        0.0329
     48 H           6.0977   -2.7003    1.6108 H       1  UNL1        0.0624
     49 H           8.3158   -2.2149    2.4872 H       1  UNL1        0.0618
     50 H           9.3313    0.0066    2.1376 H       1  UNL1        0.0618
     51 H           8.0615    1.7350    0.8837 H       1  UNL1        0.0618
     52 H           5.8298    1.2327    0.0071 H       1  UNL1        0.0624
     53 H           5.2154   -3.0064   -0.4847 H       1  UNL1        0.0624
     54 H           3.0564   -3.6891   -1.3169 H       1  UNL1        0.0618
     55 H           1.0625   -2.2010   -1.0785 H       1  UNL1        0.0636
@<TRIPOS>BOND
     1     1     2    2
     2     2     3    1
     3     3     4    1
     4     4     5   ar
     5     5     6   ar
     6     6     7    1
     7     7     8    1
     8     8     9    1
     9     9    10    1
    10    10    11    1
    11    11    12    1
    12     6    13   ar
    13    13    14   ar
    14    14    15    2
    15    14    16   ar
    16     2    17   am
    17    17    18    1
    18    18    19    1
    19    19    20    1
    20    20    21   ar
    21    21    22    1
    22    22    23   ar
    23    23    24   ar
    24    24    25   ar
    25    25    26   ar
    26    26    27   ar
    27    21    28   ar
    28    28    29   ar
    29    29    30   ar
    30    30    31   ar
    31    16     4   ar
    32    31    17    1
    33    12     7    1
    34    31    20   ar
    35    27    22   ar
    36     3    32    1
    37     3    33    1
    38     8    34    1
    39     8    35    1
    40     9    36    1
    41     9    37    1
    42    11    38    1
    43    11    39    1
    44    12    40    1
    45    12    41    1
    46    13    42    1
    47    16    43    1
    48    18    44    1
    49    18    45    1
    50    19    46    1
    51    19    47    1
    52    23    48    1
    53    24    49    1
    54    25    50    1
    55    26    51    1
    56    27    52    1
    57    28    53    1
    58    29    54    1
    59    30    55    1
