
     RDKit          3D

 55 59  0  0  0  0  0  0  0  0999 V2000
   -0.3239   -0.2766   -1.4214 O   0  0  0  0  0  0  0  0  0  0  0  0
   -0.0249    0.5231   -0.4984 C   0  0  0  0  0  0  0  0  0  0  0  0
   -1.0110    1.5813   -0.2117 C   0  0  0  0  0  0  0  0  0  0  0  0
   -2.2081    1.5243   -1.0668 C   0  0  0  0  0  0  0  0  0  0  0  0
   -3.2387    0.7745   -0.6328 N   0  0  0  0  0  0  0  0  0  0  0  0
   -4.4010    0.6346   -1.3219 C   0  0  0  0  0  0  0  0  0  0  0  0
   -5.4587   -0.1696   -0.8246 N   0  0  0  0  0  0  0  0  0  0  0  0
   -5.2819   -0.9646    0.4029 C   0  0  0  0  0  0  0  0  0  0  0  0
   -6.4224   -0.6362    1.3366 C   0  0  0  0  0  0  0  0  0  0  0  0
   -7.6586   -0.8333    0.7443 O   0  0  0  0  0  0  0  0  0  0  0  0
   -7.8325   -0.0662   -0.3788 C   0  0  0  0  0  0  0  0  0  0  0  0
   -6.7544   -0.2799   -1.4404 C   0  0  0  0  0  0  0  0  0  0  0  0
   -4.4640    1.3165   -2.5111 C   0  0  0  0  0  0  0  0  0  0  0  0
   -3.3892    2.0946   -2.9572 C   0  0  0  0  0  0  0  0  0  0  0  0
   -3.4473    2.7203   -4.0475 O   0  0  0  0  0  0  0  0  0  0  0  0
   -2.2782    2.1891   -2.2330 N   0  0  0  0  0  0  0  0  0  0  0  0
    1.1909    0.3571    0.1747 N   0  0  0  0  0  0  0  0  0  0  0  0
    1.7641    1.1359    1.2692 C   0  0  0  0  0  0  0  0  0  0  0  0
    3.2419    1.0555    0.9727 C   0  0  0  0  0  0  0  0  0  0  0  0
    3.3851   -0.2882    0.3749 C   0  0  0  0  0  0  0  0  0  0  0  0
    4.5079   -1.1022    0.2524 C   0  0  0  0  0  0  0  0  0  0  0  0
    5.8233   -0.7275    0.7394 C   0  0  0  0  0  0  0  0  0  0  0  0
    6.5250   -1.7062    1.4415 C   0  0  0  0  0  0  0  0  0  0  0  0
    7.7820   -1.4595    1.9486 C   0  0  0  0  0  0  0  0  0  0  0  0
    8.3493   -0.2171    1.7532 C   0  0  0  0  0  0  0  0  0  0  0  0
    7.6515    0.7276    1.0660 C   0  0  0  0  0  0  0  0  0  0  0  0
    6.3960    0.5043    0.5506 C   0  0  0  0  0  0  0  0  0  0  0  0
    4.3624   -2.3252   -0.3623 C   0  0  0  0  0  0  0  0  0  0  0  0
    3.1340   -2.7293   -0.8427 C   0  0  0  0  0  0  0  0  0  0  0  0
    2.0395   -1.9006   -0.7064 C   0  0  0  0  0  0  0  0  0  0  0  0
    2.1515   -0.6576   -0.0900 C   0  0  0  0  0  0  0  0  0  0  0  0
   -0.4810    2.5679   -0.2587 H   0  0  0  0  0  0  0  0  0  0  0  0
   -1.3375    1.4770    0.8412 H   0  0  0  0  0  0  0  0  0  0  0  0
   -4.3398   -0.7318    0.9003 H   0  0  0  0  0  0  0  0  0  0  0  0
   -5.3768   -2.0211    0.0911 H   0  0  0  0  0  0  0  0  0  0  0  0
   -6.3487   -1.3641    2.1793 H   0  0  0  0  0  0  0  0  0  0  0  0
   -6.3142    0.4047    1.7178 H   0  0  0  0  0  0  0  0  0  0  0  0
   -7.8983    1.0260   -0.1701 H   0  0  0  0  0  0  0  0  0  0  0  0
   -8.7799   -0.3673   -0.8567 H   0  0  0  0  0  0  0  0  0  0  0  0
   -6.9198    0.5048   -2.1846 H   0  0  0  0  0  0  0  0  0  0  0  0
   -6.8754   -1.3047   -1.8638 H   0  0  0  0  0  0  0  0  0  0  0  0
   -5.3486    1.2648   -3.1332 H   0  0  0  0  0  0  0  0  0  0  0  0
   -1.4410    2.7485   -2.5024 H   0  0  0  0  0  0  0  0  0  0  0  0
    1.4223    2.1862    1.2431 H   0  0  0  0  0  0  0  0  0  0  0  0
    1.6005    0.6515    2.2541 H   0  0  0  0  0  0  0  0  0  0  0  0
    3.8597    1.1887    1.8841 H   0  0  0  0  0  0  0  0  0  0  0  0
    3.4986    1.8073    0.2017 H   0  0  0  0  0  0  0  0  0  0  0  0
    6.0977   -2.7003    1.6108 H   0  0  0  0  0  0  0  0  0  0  0  0
    8.3158   -2.2149    2.4872 H   0  0  0  0  0  0  0  0  0  0  0  0
    9.3313    0.0066    2.1376 H   0  0  0  0  0  0  0  0  0  0  0  0
    8.0615    1.7350    0.8837 H   0  0  0  0  0  0  0  0  0  0  0  0
    5.8298    1.2327    0.0071 H   0  0  0  0  0  0  0  0  0  0  0  0
    5.2154   -3.0064   -0.4847 H   0  0  0  0  0  0  0  0  0  0  0  0
    3.0564   -3.6891   -1.3169 H   0  0  0  0  0  0  0  0  0  0  0  0
    1.0625   -2.2010   -1.0785 H   0  0  0  0  0  0  0  0  0  0  0  0
  1  2  2  0
  2  3  1  0
  3  4  1  0
  4  5  2  0
  5  6  1  0
  6  7  1  0
  7  8  1  0
  8  9  1  0
  9 10  1  0
 10 11  1  0
 11 12  1  0
  6 13  2  0
 13 14  1  0
 14 15  2  0
 14 16  1  0
  2 17  1  0
 17 18  1  0
 18 19  1  0
 19 20  1  0
 20 21  2  0
 21 22  1  0
 22 23  2  0
 23 24  1  0
 24 25  2  0
 25 26  1  0
 26 27  2  0
 21 28  1  0
 28 29  2  0
 29 30  1  0
 30 31  2  0
 16  4  1  0
 31 17  1  0
 12  7  1  0
 31 20  1  0
 27 22  1  0
  3 32  1  0
  3 33  1  0
  8 34  1  0
  8 35  1  0
  9 36  1  0
  9 37  1  0
 11 38  1  0
 11 39  1  0
 12 40  1  0
 12 41  1  0
 13 42  1  0
 16 43  1  0
 18 44  1  0
 18 45  1  0
 19 46  1  0
 19 47  1  0
 23 48  1  0
 24 49  1  0
 25 50  1  0
 26 51  1  0
 27 52  1  0
 28 53  1  0
 29 54  1  0
 30 55  1  0
M  END
$$$$
