
     RDKit          3D

 55 59  0  0  0  0  0  0  0  0999 V2000
    7.3092    0.5561    0.8015 C   0  0  0  0  0  0  0  0  0  0  0  0
    5.8920    0.8704    1.0517 N   0  0  0  0  0  0  0  0  0  0  0  0
    5.7243    2.2637    0.6206 C   0  0  0  0  0  0  0  0  0  0  0  0
    5.1432   -0.0028    0.2096 C   0  0  0  0  0  0  0  0  0  0  0  0
    3.6238    0.1665    0.3383 C   0  0  0  0  0  0  0  0  0  0  0  0
    3.0434   -0.8283   -0.6163 C   0  0  0  0  0  0  0  0  0  0  0  0
    1.6055   -0.8550   -0.6697 N   0  0  0  0  0  0  0  0  0  0  0  0
    0.7756   -0.1530   -1.4576 C   0  0  0  0  0  0  0  0  0  0  0  0
   -0.5604   -0.4391   -1.2329 C   0  0  0  0  0  0  0  0  0  0  0  0
   -0.5249   -1.3873   -0.2325 C   0  0  0  0  0  0  0  0  0  0  0  0
    0.8070   -1.6326    0.1035 C   0  0  0  0  0  0  0  0  0  0  0  0
    1.0372   -2.5651    1.0929 C   0  0  0  0  0  0  0  0  0  0  0  0
   -0.0355   -3.1963    1.6877 C   0  0  0  0  0  0  0  0  0  0  0  0
   -1.3590   -2.9559    1.3558 C   0  0  0  0  0  0  0  0  0  0  0  0
   -1.5719   -2.0242    0.3688 C   0  0  0  0  0  0  0  0  0  0  0  0
   -1.6175    0.2111   -1.9941 C   0  0  0  0  0  0  0  0  0  0  0  0
   -2.7737    0.7639   -1.6701 C   0  0  0  0  0  0  0  0  0  0  0  0
   -3.4823    1.2854   -2.8308 C   0  0  0  0  0  0  0  0  0  0  0  0
   -4.5624    1.8653   -2.9890 O   0  0  0  0  0  0  0  0  0  0  0  0
   -2.6623    1.0153   -3.9732 N   0  0  0  0  0  0  0  0  0  0  0  0
   -1.5121    0.3537   -3.4651 C   0  0  0  0  0  0  0  0  0  0  0  0
   -0.5464   -0.0457   -4.2025 O   0  0  0  0  0  0  0  0  0  0  0  0
   -3.2568    0.8681   -0.3031 C   0  0  0  0  0  0  0  0  0  0  0  0
   -2.4922    1.2383    0.8021 C   0  0  0  0  0  0  0  0  0  0  0  0
   -3.2298    1.2283    1.9358 N   0  0  0  0  0  0  0  0  0  0  0  0
   -4.4938    0.8550    1.6237 C   0  0  0  0  0  0  0  0  0  0  0  0
   -4.4940    0.6400    0.2626 C   0  0  0  0  0  0  0  0  0  0  0  0
   -5.6773    0.2396   -0.3109 C   0  0  0  0  0  0  0  0  0  0  0  0
   -6.8338    0.0526    0.4157 C   0  0  0  0  0  0  0  0  0  0  0  0
   -6.8503    0.2639    1.7770 C   0  0  0  0  0  0  0  0  0  0  0  0
   -5.6490    0.6688    2.3539 C   0  0  0  0  0  0  0  0  0  0  0  0
    7.4177   -0.4825    0.4327 H   0  0  0  0  0  0  0  0  0  0  0  0
    7.8293    0.6796    1.7700 H   0  0  0  0  0  0  0  0  0  0  0  0
    7.7686    1.2553    0.0739 H   0  0  0  0  0  0  0  0  0  0  0  0
    4.6851    2.6130    0.6871 H   0  0  0  0  0  0  0  0  0  0  0  0
    6.3087    2.8757    1.3615 H   0  0  0  0  0  0  0  0  0  0  0  0
    6.1148    2.3760   -0.4155 H   0  0  0  0  0  0  0  0  0  0  0  0
    5.3594    0.3140   -0.8533 H   0  0  0  0  0  0  0  0  0  0  0  0
    5.4112   -1.0543    0.3051 H   0  0  0  0  0  0  0  0  0  0  0  0
    3.3912   -0.1659    1.3886 H   0  0  0  0  0  0  0  0  0  0  0  0
    3.3059    1.1962    0.1989 H   0  0  0  0  0  0  0  0  0  0  0  0
    3.4742   -1.8248   -0.3472 H   0  0  0  0  0  0  0  0  0  0  0  0
    3.4959   -0.5848   -1.6212 H   0  0  0  0  0  0  0  0  0  0  0  0
    1.1860    0.5469   -2.1725 H   0  0  0  0  0  0  0  0  0  0  0  0
    2.0673   -2.7568    1.3555 H   0  0  0  0  0  0  0  0  0  0  0  0
    0.2511   -3.9073    2.4497 H   0  0  0  0  0  0  0  0  0  0  0  0
   -2.1108   -3.5097    1.8883 H   0  0  0  0  0  0  0  0  0  0  0  0
   -2.5836   -1.8396    0.1000 H   0  0  0  0  0  0  0  0  0  0  0  0
   -2.8345    1.2422   -4.9973 H   0  0  0  0  0  0  0  0  0  0  0  0
   -1.4447    1.5064    0.8009 H   0  0  0  0  0  0  0  0  0  0  0  0
   -2.9541    1.4520    2.9062 H   0  0  0  0  0  0  0  0  0  0  0  0
   -5.7398    0.0480   -1.3707 H   0  0  0  0  0  0  0  0  0  0  0  0
   -7.7669   -0.2625   -0.0336 H   0  0  0  0  0  0  0  0  0  0  0  0
   -7.7376    0.1284    2.3826 H   0  0  0  0  0  0  0  0  0  0  0  0
   -5.6697    0.8344    3.4285 H   0  0  0  0  0  0  0  0  0  0  0  0
  1  2  1  0
  2  3  1  0
  2  4  1  0
  4  5  1  0
  5  6  1  0
  6  7  1  0
  7  8  1  0
  8  9  2  0
  9 10  1  0
 10 11  2  0
 11 12  1  0
 12 13  2  0
 13 14  1  0
 14 15  2  0
  9 16  1  0
 16 17  2  0
 17 18  1  0
 18 19  2  0
 18 20  1  0
 20 21  1  0
 21 22  2  0
 17 23  1  0
 23 24  2  0
 24 25  1  0
 25 26  1  0
 26 27  2  0
 27 28  1  0
 28 29  2  0
 29 30  1  0
 30 31  2  0
 11  7  1  0
 21 16  1  0
 27 23  1  0
 15 10  1  0
 31 26  1  0
  1 32  1  0
  1 33  1  0
  1 34  1  0
  3 35  1  0
  3 36  1  0
  3 37  1  0
  4 38  1  0
  4 39  1  0
  5 40  1  0
  5 41  1  0
  6 42  1  0
  6 43  1  0
  8 44  1  0
 12 45  1  0
 13 46  1  0
 14 47  1  0
 15 48  1  0
 20 49  1  0
 24 50  1  0
 25 51  1  0
 28 52  1  0
 29 53  1  0
 30 54  1  0
 31 55  1  0
M  END
$$$$
