@<TRIPOS>MOLECULE
*****
 55 59 0 0 0
SMALL
GASTEIGER

@<TRIPOS>ATOM
      1 C           7.3092    0.5561    0.8015 C.3     1  UNL1       -0.0130
      2 N           5.8920    0.8704    1.0517 N.3     1  UNL1       -0.3083
      3 C           5.7243    2.2637    0.6206 C.3     1  UNL1       -0.0130
      4 C           5.1432   -0.0028    0.2096 C.3     1  UNL1       -0.0001
      5 C           3.6238    0.1665    0.3383 C.3     1  UNL1       -0.0222
      6 C           3.0434   -0.8283   -0.6163 C.3     1  UNL1        0.0245
      7 N           1.6055   -0.8550   -0.6697 N.ar    1  UNL1       -0.3460
      8 C           0.7756   -0.1530   -1.4576 C.ar    1  UNL1        0.0136
      9 C          -0.5604   -0.4391   -1.2329 C.ar    1  UNL1        0.0131
     10 C          -0.5249   -1.3873   -0.2325 C.ar    1  UNL1        0.0077
     11 C           0.8070   -1.6326    0.1035 C.ar    1  UNL1        0.0497
     12 C           1.0372   -2.5651    1.0929 C.ar    1  UNL1       -0.0376
     13 C          -0.0355   -3.1963    1.6877 C.ar    1  UNL1       -0.0598
     14 C          -1.3590   -2.9559    1.3558 C.ar    1  UNL1       -0.0611
     15 C          -1.5719   -2.0242    0.3688 C.ar    1  UNL1       -0.0520
     16 C          -1.6175    0.2111   -1.9941 C.2     1  UNL1        0.0590
     17 C          -2.7737    0.7639   -1.6701 C.2     1  UNL1        0.0589
     18 C          -3.4823    1.2854   -2.8308 C.2     1  UNL1        0.2519
     19 O          -4.5624    1.8653   -2.9890 O.2     1  UNL1       -0.2697
     20 N          -2.6623    1.0153   -3.9732 N.am    1  UNL1       -0.2483
     21 C          -1.5121    0.3537   -3.4651 C.2     1  UNL1        0.2519
     22 O          -0.5464   -0.0457   -4.2025 O.2     1  UNL1       -0.2697
     23 C          -3.2568    0.8681   -0.3031 C.ar    1  UNL1        0.0129
     24 C          -2.4922    1.2383    0.8021 C.ar    1  UNL1        0.0106
     25 N          -3.2298    1.2283    1.9358 N.ar    1  UNL1       -0.3600
     26 C          -4.4938    0.8550    1.6237 C.ar    1  UNL1        0.0471
     27 C          -4.4940    0.6400    0.2626 C.ar    1  UNL1        0.0075
     28 C          -5.6773    0.2396   -0.3109 C.ar    1  UNL1       -0.0520
     29 C          -6.8338    0.0526    0.4157 C.ar    1  UNL1       -0.0611
     30 C          -6.8503    0.2639    1.7770 C.ar    1  UNL1       -0.0598
     31 C          -5.6490    0.6688    2.3539 C.ar    1  UNL1       -0.0378
     32 H           7.4177   -0.4825    0.4327 H       1  UNL1        0.0391
     33 H           7.8293    0.6796    1.7700 H       1  UNL1        0.0391
     34 H           7.7686    1.2553    0.0739 H       1  UNL1        0.0391
     35 H           4.6851    2.6130    0.6871 H       1  UNL1        0.0391
     36 H           6.3087    2.8757    1.3615 H       1  UNL1        0.0391
     37 H           6.1148    2.3760   -0.4155 H       1  UNL1        0.0391
     38 H           5.3594    0.3140   -0.8533 H       1  UNL1        0.0427
     39 H           5.4112   -1.0543    0.3051 H       1  UNL1        0.0427
     40 H           3.3912   -0.1659    1.3886 H       1  UNL1        0.0295
     41 H           3.3059    1.1962    0.1989 H       1  UNL1        0.0295
     42 H           3.4742   -1.8248   -0.3472 H       1  UNL1        0.0492
     43 H           3.4959   -0.5848   -1.6212 H       1  UNL1        0.0492
     44 H           1.1860    0.5469   -2.1725 H       1  UNL1        0.0815
     45 H           2.0673   -2.7568    1.3555 H       1  UNL1        0.0638
     46 H           0.2511   -3.9073    2.4497 H       1  UNL1        0.0618
     47 H          -2.1108   -3.5097    1.8883 H       1  UNL1        0.0618
     48 H          -2.5836   -1.8396    0.1000 H       1  UNL1        0.0624
     49 H          -2.8345    1.2422   -4.9973 H       1  UNL1        0.1581
     50 H          -1.4447    1.5064    0.8009 H       1  UNL1        0.0813
     51 H          -2.9541    1.4520    2.9062 H       1  UNL1        0.1654
     52 H          -5.7398    0.0480   -1.3707 H       1  UNL1        0.0624
     53 H          -7.7669   -0.2625   -0.0336 H       1  UNL1        0.0618
     54 H          -7.7376    0.1284    2.3826 H       1  UNL1        0.0618
     55 H          -5.6697    0.8344    3.4285 H       1  UNL1        0.0638
@<TRIPOS>BOND
     1     1     2    1
     2     2     3    1
     3     2     4    1
     4     4     5    1
     5     5     6    1
     6     6     7    1
     7     7     8   ar
     8     8     9   ar
     9     9    10   ar
    10    10    11   ar
    11    11    12   ar
    12    12    13   ar
    13    13    14   ar
    14    14    15   ar
    15     9    16    1
    16    16    17    2
    17    17    18    1
    18    18    19    2
    19    18    20   am
    20    20    21   am
    21    21    22    2
    22    17    23    1
    23    23    24   ar
    24    24    25   ar
    25    25    26   ar
    26    26    27   ar
    27    27    28   ar
    28    28    29   ar
    29    29    30   ar
    30    30    31   ar
    31    11     7   ar
    32    21    16    1
    33    27    23   ar
    34    15    10   ar
    35    31    26   ar
    36     1    32    1
    37     1    33    1
    38     1    34    1
    39     3    35    1
    40     3    36    1
    41     3    37    1
    42     4    38    1
    43     4    39    1
    44     5    40    1
    45     5    41    1
    46     6    42    1
    47     6    43    1
    48     8    44    1
    49    12    45    1
    50    13    46    1
    51    14    47    1
    52    15    48    1
    53    20    49    1
    54    24    50    1
    55    25    51    1
    56    28    52    1
    57    29    53    1
    58    30    54    1
    59    31    55    1
