@<TRIPOS>MOLECULE
*****
 62 67 0 0 0
SMALL
GASTEIGER

@<TRIPOS>ATOM
      1 O           3.7426   -0.7459    1.3038 O.2     1  UNL1       -0.2258
      2 C           3.2617    0.0832    0.4924 C.2     1  UNL1        0.4082
      3 O           4.1385    0.7251   -0.3644 O.3     1  UNL1       -0.4114
      4 C           5.4885    0.4343   -0.2947 C.ar    1  UNL1        0.1337
      5 C           6.1020   -0.5735   -1.0119 C.ar    1  UNL1       -0.0128
      6 C           7.4522   -0.8318   -0.9145 C.ar    1  UNL1        0.0191
      7 C           8.2429   -0.0877   -0.0917 C.ar    1  UNL1        0.2734
      8 N           9.6440   -0.3605    0.0055 N.pl3   1  UNL1        0.0796
      9 O          10.3342    0.3498    0.7751 O.2     1  UNL1        0.0414
     10 O          10.2362   -1.3673   -0.7153 O.co2   1  UNL1       -0.5760
     11 C           7.6592    0.9256    0.6372 C.ar    1  UNL1        0.0191
     12 C           6.3182    1.1866    0.5442 C.ar    1  UNL1       -0.0128
     13 N           1.8768    0.3912    0.4118 N.am    1  UNL1       -0.2671
     14 C           1.4078    1.3672   -0.5584 C.3     1  UNL1        0.0182
     15 C           0.1632    0.7548   -1.1785 C.3     1  UNL1       -0.0309
     16 C          -0.8281    0.4973   -0.0874 C.3     1  UNL1       -0.0009
     17 C          -2.2324    0.6367   -0.3745 C.3     1  UNL1        0.1190
     18 O          -2.4357    2.0004   -0.7788 O.3     1  UNL1       -0.3790
     19 C          -2.9829    0.5616    0.9263 C.ar    1  UNL1       -0.0078
     20 C          -3.3984   -0.6667    1.4230 C.ar    1  UNL1       -0.0518
     21 C          -4.0806   -0.8359    2.5908 C.ar    1  UNL1       -0.0158
     22 C          -4.3788    0.2905    3.3301 C.ar    1  UNL1        0.1662
     23 C          -3.9811    1.5276    2.8664 C.ar    1  UNL1        0.1666
     24 C          -3.2930    1.6617    1.6816 C.ar    1  UNL1       -0.0099
     25 O          -4.4300    2.4485    3.8315 O.3     1  UNL1       -0.4526
     26 C          -4.8310    1.7306    4.9941 C.3     1  UNL1        0.2332
     27 O          -5.0470    0.4122    4.5288 O.3     1  UNL1       -0.4526
     28 C          -2.9680   -0.1485   -1.3168 C.ar    1  UNL1       -0.0078
     29 C          -4.2971    0.1721   -1.5304 C.ar    1  UNL1       -0.0518
     30 C          -5.0573   -0.5541   -2.4383 C.ar    1  UNL1       -0.0158
     31 C          -4.5129   -1.5950   -3.1367 C.ar    1  UNL1        0.1662
     32 C          -3.2046   -1.9266   -2.9405 C.ar    1  UNL1        0.1666
     33 C          -2.4556   -1.1923   -2.0297 C.ar    1  UNL1       -0.0099
     34 O          -2.9035   -3.0001   -3.7568 O.3     1  UNL1       -0.4526
     35 C          -3.9133   -3.0095   -4.7691 C.3     1  UNL1        0.2332
     36 O          -5.0351   -2.4824   -4.0961 O.3     1  UNL1       -0.4526
     37 C          -0.3413   -0.6959    0.6883 C.3     1  UNL1       -0.0309
     38 C           1.0071   -0.3023    1.3227 C.3     1  UNL1        0.0182
     39 H           5.4611   -1.1580   -1.6626 H       1  UNL1        0.0656
     40 H           7.8826   -1.6307   -1.4958 H       1  UNL1        0.0686
     41 H           8.3238    1.5028    1.2874 H       1  UNL1        0.0686
     42 H           5.9055    1.9866    1.1309 H       1  UNL1        0.0656
     43 H           1.1791    2.3488   -0.1001 H       1  UNL1        0.0466
     44 H           2.1452    1.4619   -1.3943 H       1  UNL1        0.0466
     45 H          -0.1813    1.4495   -1.9520 H       1  UNL1        0.0284
     46 H           0.5636   -0.2081   -1.6036 H       1  UNL1        0.0284
     47 H          -0.6333    1.3441    0.6660 H       1  UNL1        0.0336
     48 H          -1.7308    2.5736   -0.3966 H       1  UNL1        0.2111
     49 H          -3.1542   -1.5350    0.8277 H       1  UNL1        0.0622
     50 H          -4.3780   -1.8430    2.9218 H       1  UNL1        0.0655
     51 H          -2.9871    2.6517    1.3323 H       1  UNL1        0.0659
     52 H          -5.7669    2.0894    5.4231 H       1  UNL1        0.1166
     53 H          -4.0104    1.6830    5.7457 H       1  UNL1        0.1166
     54 H          -4.8186    0.9755   -1.0284 H       1  UNL1        0.0622
     55 H          -6.1062   -0.3071   -2.6122 H       1  UNL1        0.0655
     56 H          -1.4480   -1.4649   -1.8981 H       1  UNL1        0.0659
     57 H          -4.0875   -4.0430   -5.1359 H       1  UNL1        0.1166
     58 H          -3.6587   -2.3210   -5.5893 H       1  UNL1        0.1166
     59 H          -0.9997   -0.8145    1.5994 H       1  UNL1        0.0284
     60 H          -0.2464   -1.6219    0.1261 H       1  UNL1        0.0284
     61 H           1.4535   -1.2659    1.6450 H       1  UNL1        0.0466
     62 H           0.8249    0.3652    2.1942 H       1  UNL1        0.0466
@<TRIPOS>UNITY_ATOM_ATTR
8 1
charge 1
10 1
charge -1
@<TRIPOS>BOND
     1     1     2    2
     2     2     3    1
     3     3     4    1
     4     4     5   ar
     5     5     6   ar
     6     6     7   ar
     7     7     8    1
     8     8     9    2
     9     8    10    1
    10     7    11   ar
    11    11    12   ar
    12     2    13   am
    13    13    14    1
    14    14    15    1
    15    15    16    1
    16    16    17    1
    17    17    18    1
    18    17    19    1
    19    19    20   ar
    20    20    21   ar
    21    21    22   ar
    22    22    23   ar
    23    23    24   ar
    24    23    25    1
    25    25    26    1
    26    26    27    1
    27    17    28    1
    28    28    29   ar
    29    29    30   ar
    30    30    31   ar
    31    31    32   ar
    32    32    33   ar
    33    32    34    1
    34    34    35    1
    35    35    36    1
    36    16    37    1
    37    37    38    1
    38    12     4   ar
    39    38    13    1
    40    24    19   ar
    41    33    28   ar
    42    27    22    1
    43    36    31    1
    44     5    39    1
    45     6    40    1
    46    11    41    1
    47    12    42    1
    48    14    43    1
    49    14    44    1
    50    15    45    1
    51    15    46    1
    52    16    47    1
    53    18    48    1
    54    20    49    1
    55    21    50    1
    56    24    51    1
    57    26    52    1
    58    26    53    1
    59    29    54    1
    60    30    55    1
    61    33    56    1
    62    35    57    1
    63    35    58    1
    64    37    59    1
    65    37    60    1
    66    38    61    1
    67    38    62    1
