@<TRIPOS>MOLECULE
*****
 58 62 0 0 0
SMALL
GASTEIGER

@<TRIPOS>ATOM
      1 C           6.8118    1.6007    0.8601 C.3     1  UNL1       -0.0264
      2 C           6.4080    1.4192   -0.5806 C.3     1  UNL1        0.1452
      3 C           7.5709    0.7819   -1.3153 C.3     1  UNL1       -0.0264
      4 O           6.2077    2.7012   -1.1171 O.3     1  UNL1       -0.3785
      5 C           5.1756    0.6118   -0.6896 C.ar    1  UNL1        0.2264
      6 C           5.1991   -0.7547   -0.8074 C.ar    1  UNL1        0.0102
      7 C           4.0168   -1.4595   -0.9053 C.ar    1  UNL1       -0.0423
      8 C           2.7910   -0.7961   -0.8858 C.ar    1  UNL1        0.0471
      9 C           1.5365   -1.5297   -0.9914 C.ar    1  UNL1       -0.0102
     10 C           1.5088   -2.7017   -1.7502 C.ar    1  UNL1       -0.0537
     11 C           0.3236   -3.3977   -1.8483 C.ar    1  UNL1       -0.0592
     12 C          -0.8074   -2.9383   -1.2065 C.ar    1  UNL1       -0.0378
     13 C          -0.7887   -1.7820   -0.4553 C.ar    1  UNL1        0.0486
     14 N          -1.9821   -1.3484    0.1910 N.ar    1  UNL1       -0.2999
     15 C          -2.5796   -0.2079   -0.1163 C.ar    1  UNL1        0.0276
     16 C          -3.7524    0.2186    0.5189 C.ar    1  UNL1        0.1004
     17 C          -4.3045    1.4939    0.0838 C.2     1  UNL1        0.2494
     18 O          -3.7100    2.1603   -0.8422 O.2     1  UNL1       -0.2700
     19 N          -5.4723    2.1146    0.5834 N.am    1  UNL1       -0.3084
     20 C          -5.9440    3.4038    0.0741 C.3     1  UNL1        0.0235
     21 C          -6.4213    4.4265    1.0374 C.3     1  UNL1       -0.0328
     22 C          -7.3738    3.7291    0.0320 C.3     1  UNL1       -0.0328
     23 C          -4.2793   -0.5856    1.4848 C.ar    1  UNL1        0.2030
     24 O          -5.3146   -0.2726    2.0891 O.2     1  UNL1       -0.2863
     25 C          -3.6302   -1.7885    1.7940 C.ar    1  UNL1        0.0652
     26 C          -4.1290   -2.6277    2.7613 C.ar    1  UNL1       -0.0459
     27 C          -3.5037   -3.8205    3.0820 C.ar    1  UNL1       -0.0428
     28 C          -2.3559   -4.1435    2.3956 C.ar    1  UNL1        0.0299
     29 N          -1.8810   -3.3240    1.4608 N.ar    1  UNL1       -0.2368
     30 C          -2.4877   -2.1482    1.1371 C.ar    1  UNL1        0.1488
     31 C           0.3934   -1.0909   -0.3595 C.ar    1  UNL1       -0.0299
     32 C           2.8262    0.5750   -0.7657 C.ar    1  UNL1        0.1908
     33 N           3.9828    1.2696   -0.6696 N.ar    1  UNL1       -0.1715
     34 O           3.9737    2.6227   -0.5531 O.co2   1  UNL1       -0.6195
     35 H           7.8431    2.0286    0.8863 H       1  UNL1        0.0262
     36 H           6.1535    2.2951    1.4027 H       1  UNL1        0.0262
     37 H           6.8518    0.6166    1.3637 H       1  UNL1        0.0262
     38 H           8.2333    1.6068   -1.6470 H       1  UNL1        0.0262
     39 H           8.1692    0.1684   -0.5928 H       1  UNL1        0.0262
     40 H           7.2332    0.1416   -2.1595 H       1  UNL1        0.0262
     41 H           6.9975    3.2588   -1.0516 H       1  UNL1        0.2109
     42 H           6.1440   -1.2572   -0.8216 H       1  UNL1        0.0681
     43 H           3.9891   -2.5387   -0.9993 H       1  UNL1        0.0627
     44 H           2.4314   -3.0042   -2.2273 H       1  UNL1        0.0624
     45 H           0.3370   -4.2995   -2.4431 H       1  UNL1        0.0618
     46 H          -1.7257   -3.5097   -1.3034 H       1  UNL1        0.0638
     47 H          -2.1433    0.4214   -0.8914 H       1  UNL1        0.0822
     48 H          -6.0107    1.6410    1.3335 H       1  UNL1        0.1493
     49 H          -5.3131    3.8169   -0.7364 H       1  UNL1        0.0498
     50 H          -6.5594    4.2103    2.1048 H       1  UNL1        0.0284
     51 H          -6.2418    5.5126    0.8358 H       1  UNL1        0.0284
     52 H          -8.1662    3.0948    0.4806 H       1  UNL1        0.0284
     53 H          -7.7718    4.3751   -0.7831 H       1  UNL1        0.0284
     54 H          -5.0222   -2.3674    3.2891 H       1  UNL1        0.0626
     55 H          -3.9094   -4.4655    3.8422 H       1  UNL1        0.0633
     56 H          -1.8058   -5.0675    2.5917 H       1  UNL1        0.0830
     57 H           0.4212   -0.1804    0.2282 H       1  UNL1        0.0644
     58 H           1.8568    1.0907   -0.7510 H       1  UNL1        0.1396
@<TRIPOS>UNITY_ATOM_ATTR
33 1
charge 1
34 1
charge -1
@<TRIPOS>BOND
     1     1     2    1
     2     2     3    1
     3     2     4    1
     4     2     5    1
     5     5     6   ar
     6     6     7   ar
     7     7     8   ar
     8     8     9    1
     9     9    10   ar
    10    10    11   ar
    11    11    12   ar
    12    12    13   ar
    13    13    14    1
    14    14    15   ar
    15    15    16   ar
    16    16    17    1
    17    17    18    2
    18    17    19   am
    19    19    20    1
    20    20    21    1
    21    21    22    1
    22    16    23   ar
    23    23    24    2
    24    23    25   ar
    25    25    26   ar
    26    26    27   ar
    27    27    28   ar
    28    28    29   ar
    29    29    30   ar
    30    13    31   ar
    31     8    32   ar
    32    32    33   ar
    33    33    34    1
    34    33     5   ar
    35    31     9   ar
    36    30    14   ar
    37    22    20    1
    38    30    25   ar
    39     1    35    1
    40     1    36    1
    41     1    37    1
    42     3    38    1
    43     3    39    1
    44     3    40    1
    45     4    41    1
    46     6    42    1
    47     7    43    1
    48    10    44    1
    49    11    45    1
    50    12    46    1
    51    15    47    1
    52    19    48    1
    53    20    49    1
    54    21    50    1
    55    21    51    1
    56    22    52    1
    57    22    53    1
    58    26    54    1
    59    27    55    1
    60    28    56    1
    61    31    57    1
    62    32    58    1
