@<TRIPOS>MOLECULE
*****
 65 69 0 0 0
SMALL
GASTEIGER

@<TRIPOS>ATOM
      1 O          -3.5440    0.2136   -1.4657 O.2     1  UNL1       -0.2702
      2 C          -3.8254    0.5968   -0.3034 C.2     1  UNL1        0.2444
      3 N          -3.8430   -0.3737    0.7048 N.am    1  UNL1       -0.3047
      4 C          -3.5685   -1.7683    0.5362 C.3     1  UNL1        0.0634
      5 C          -4.6190   -2.7129    0.9540 C.3     1  UNL1       -0.0187
      6 C          -4.5156   -3.9432    0.0298 C.3     1  UNL1       -0.0480
      7 C          -3.0669   -4.3593    0.3248 C.3     1  UNL1       -0.0465
      8 C          -2.6581   -3.6488    1.5814 C.3     1  UNL1       -0.0017
      9 C          -4.0449   -3.3985    2.2074 C.3     1  UNL1       -0.0421
     10 C          -2.3082   -2.2081    1.2635 C.3     1  UNL1        0.1246
     11 O          -1.1408   -2.0429    0.5309 O.3     1  UNL1       -0.4557
     12 C          -0.1420   -1.2335    1.0919 C.2     1  UNL1        0.3397
     13 O          -0.3443   -0.6935    2.2297 O.2     1  UNL1       -0.2449
     14 C           1.1126   -1.0005    0.4028 C.ar    1  UNL1        0.0659
     15 C           1.3621   -1.5627   -0.8268 C.ar    1  UNL1       -0.0053
     16 C           2.5572   -1.3397   -1.4776 C.ar    1  UNL1        0.1320
     17 O           2.8046   -1.9092   -2.7184 O.3     1  UNL1       -0.5059
     18 C           3.5692   -0.5378   -0.9269 C.ar    1  UNL1        0.1050
     19 C           4.8504   -0.3938   -1.5348 C.2     1  UNL1        0.2044
     20 O           5.1730   -1.3694   -2.3359 O.2     1  UNL1       -0.2863
     21 C           5.8272    0.6486   -1.3851 C.ar    1  UNL1        0.0778
     22 C           7.1697    0.2029   -1.3277 C.ar    1  UNL1        0.1285
     23 O           7.4444   -1.1775   -1.4032 O.3     1  UNL1       -0.5060
     24 C           8.1546    1.1314   -1.2005 C.ar    1  UNL1       -0.0194
     25 C           7.9068    2.4823   -1.1253 C.ar    1  UNL1       -0.0575
     26 C           6.6022    2.8908   -1.1868 C.ar    1  UNL1       -0.0468
     27 C           5.5438    1.9837   -1.3212 C.ar    1  UNL1        0.0731
     28 C           4.2077    2.5393   -1.5974 C.2     1  UNL1        0.3376
     29 O           4.0041    3.7870   -1.4044 O.2     1  UNL1       -0.2451
     30 O           3.1364    1.8324   -2.0625 O.3     1  UNL1       -0.4771
     31 C           3.2971    0.0140    0.3070 C.ar    1  UNL1        0.1320
     32 O           4.1881    0.8231    0.9917 O.3     1  UNL1       -0.5059
     33 C           2.0843   -0.2136    0.9635 C.ar    1  UNL1       -0.0053
     34 C          -4.1131    2.0027   -0.0694 C.ar    1  UNL1        0.0369
     35 C          -4.0699    2.9100   -1.1201 C.ar    1  UNL1       -0.0462
     36 C          -4.3367    4.2443   -0.9270 C.ar    1  UNL1       -0.0195
     37 C          -4.6584    4.7450    0.3124 C.ar    1  UNL1        0.1169
     38 O          -4.9277    6.0946    0.5050 O.3     1  UNL1       -0.5068
     39 C          -4.7091    3.8629    1.3799 C.ar    1  UNL1       -0.0195
     40 C          -4.4356    2.5159    1.1632 C.ar    1  UNL1       -0.0462
     41 H          -4.0764   -0.0633    1.6739 H       1  UNL1        0.1494
     42 H          -3.3425   -1.9120   -0.5554 H       1  UNL1        0.0538
     43 H          -5.6199   -2.3576    1.0813 H       1  UNL1        0.0320
     44 H          -5.1878   -4.7458    0.3910 H       1  UNL1        0.0269
     45 H          -4.6624   -3.6783   -1.0168 H       1  UNL1        0.0269
     46 H          -2.4579   -4.0424   -0.5598 H       1  UNL1        0.0269
     47 H          -2.9709   -5.4569    0.4131 H       1  UNL1        0.0269
     48 H          -1.9769   -4.1609    2.2273 H       1  UNL1        0.0337
     49 H          -3.8992   -2.7139    3.0291 H       1  UNL1        0.0272
     50 H          -4.5428   -4.3419    2.4228 H       1  UNL1        0.0272
     51 H          -2.3051   -1.6521    2.2451 H       1  UNL1        0.0755
     52 H           0.5745   -2.1798   -1.2424 H       1  UNL1        0.0662
     53 H           2.2028   -2.6543   -3.0374 H       1  UNL1        0.2922
     54 H           6.9370   -1.7599   -0.7501 H       1  UNL1        0.2922
     55 H           9.2036    0.7945   -1.1549 H       1  UNL1        0.0654
     56 H           8.7347    3.2019   -1.0189 H       1  UNL1        0.0619
     57 H           6.3421    3.9369   -1.1330 H       1  UNL1        0.0626
     58 H           2.3074    2.2099   -2.4819 H       1  UNL1        0.2954
     59 H           3.9258    1.6390    1.5012 H       1  UNL1        0.2922
     60 H           1.8907    0.2277    1.9276 H       1  UNL1        0.0662
     61 H          -3.8233    2.5704   -2.1099 H       1  UNL1        0.0626
     62 H          -4.2944    4.9340   -1.7728 H       1  UNL1        0.0654
     63 H          -5.6301    6.4337    1.1503 H       1  UNL1        0.2921
     64 H          -4.9627    4.2510    2.3638 H       1  UNL1        0.0654
     65 H          -4.4907    1.8856    2.0278 H       1  UNL1        0.0626
@<TRIPOS>BOND
     1     1     2    2
     2     2     3   am
     3     3     4    1
     4     4     5    1
     5     5     6    1
     6     6     7    1
     7     7     8    1
     8     8     9    1
     9     8    10    1
    10    10    11    1
    11    11    12    1
    12    12    13    2
    13    12    14    1
    14    14    15   ar
    15    15    16   ar
    16    16    17    1
    17    16    18   ar
    18    18    19    1
    19    19    20    2
    20    19    21    1
    21    21    22   ar
    22    22    23    1
    23    22    24   ar
    24    24    25   ar
    25    25    26   ar
    26    26    27   ar
    27    27    28    1
    28    28    29    2
    29    28    30    1
    30    18    31   ar
    31    31    32    1
    32    31    33   ar
    33     2    34    1
    34    34    35   ar
    35    35    36   ar
    36    36    37   ar
    37    37    38    1
    38    37    39   ar
    39    39    40   ar
    40    10     4    1
    41    33    14   ar
    42    40    34   ar
    43     9     5    1
    44    27    21   ar
    45     3    41    1
    46     4    42    1
    47     5    43    1
    48     6    44    1
    49     6    45    1
    50     7    46    1
    51     7    47    1
    52     8    48    1
    53     9    49    1
    54     9    50    1
    55    10    51    1
    56    15    52    1
    57    17    53    1
    58    23    54    1
    59    24    55    1
    60    25    56    1
    61    26    57    1
    62    30    58    1
    63    32    59    1
    64    33    60    1
    65    35    61    1
    66    36    62    1
    67    38    63    1
    68    39    64    1
    69    40    65    1
