
     RDKit          3D

 65 69  0  0  0  0  0  0  0  0999 V2000
   -3.5440    0.2136   -1.4657 O   0  0  0  0  0  0  0  0  0  0  0  0
   -3.8254    0.5968   -0.3034 C   0  0  0  0  0  0  0  0  0  0  0  0
   -3.8430   -0.3737    0.7048 N   0  0  0  0  0  0  0  0  0  0  0  0
   -3.5685   -1.7683    0.5362 C   0  0  0  0  0  0  0  0  0  0  0  0
   -4.6190   -2.7129    0.9540 C   0  0  0  0  0  0  0  0  0  0  0  0
   -4.5156   -3.9432    0.0298 C   0  0  0  0  0  0  0  0  0  0  0  0
   -3.0669   -4.3593    0.3248 C   0  0  0  0  0  0  0  0  0  0  0  0
   -2.6581   -3.6488    1.5814 C   0  0  0  0  0  0  0  0  0  0  0  0
   -4.0449   -3.3985    2.2074 C   0  0  0  0  0  0  0  0  0  0  0  0
   -2.3082   -2.2081    1.2635 C   0  0  0  0  0  0  0  0  0  0  0  0
   -1.1408   -2.0429    0.5309 O   0  0  0  0  0  0  0  0  0  0  0  0
   -0.1420   -1.2335    1.0919 C   0  0  0  0  0  0  0  0  0  0  0  0
   -0.3443   -0.6935    2.2297 O   0  0  0  0  0  0  0  0  0  0  0  0
    1.1126   -1.0005    0.4028 C   0  0  0  0  0  0  0  0  0  0  0  0
    1.3621   -1.5627   -0.8268 C   0  0  0  0  0  0  0  0  0  0  0  0
    2.5572   -1.3397   -1.4776 C   0  0  0  0  0  0  0  0  0  0  0  0
    2.8046   -1.9092   -2.7184 O   0  0  0  0  0  0  0  0  0  0  0  0
    3.5692   -0.5378   -0.9269 C   0  0  0  0  0  0  0  0  0  0  0  0
    4.8504   -0.3938   -1.5348 C   0  0  0  0  0  0  0  0  0  0  0  0
    5.1730   -1.3694   -2.3359 O   0  0  0  0  0  0  0  0  0  0  0  0
    5.8272    0.6486   -1.3851 C   0  0  0  0  0  0  0  0  0  0  0  0
    7.1697    0.2029   -1.3277 C   0  0  0  0  0  0  0  0  0  0  0  0
    7.4444   -1.1775   -1.4032 O   0  0  0  0  0  0  0  0  0  0  0  0
    8.1546    1.1314   -1.2005 C   0  0  0  0  0  0  0  0  0  0  0  0
    7.9068    2.4823   -1.1253 C   0  0  0  0  0  0  0  0  0  0  0  0
    6.6022    2.8908   -1.1868 C   0  0  0  0  0  0  0  0  0  0  0  0
    5.5438    1.9837   -1.3212 C   0  0  0  0  0  0  0  0  0  0  0  0
    4.2077    2.5393   -1.5974 C   0  0  0  0  0  0  0  0  0  0  0  0
    4.0041    3.7870   -1.4044 O   0  0  0  0  0  0  0  0  0  0  0  0
    3.1364    1.8324   -2.0625 O   0  0  0  0  0  0  0  0  0  0  0  0
    3.2971    0.0140    0.3070 C   0  0  0  0  0  0  0  0  0  0  0  0
    4.1881    0.8231    0.9917 O   0  0  0  0  0  0  0  0  0  0  0  0
    2.0843   -0.2136    0.9635 C   0  0  0  0  0  0  0  0  0  0  0  0
   -4.1131    2.0027   -0.0694 C   0  0  0  0  0  0  0  0  0  0  0  0
   -4.0699    2.9100   -1.1201 C   0  0  0  0  0  0  0  0  0  0  0  0
   -4.3367    4.2443   -0.9270 C   0  0  0  0  0  0  0  0  0  0  0  0
   -4.6584    4.7450    0.3124 C   0  0  0  0  0  0  0  0  0  0  0  0
   -4.9277    6.0946    0.5050 O   0  0  0  0  0  0  0  0  0  0  0  0
   -4.7091    3.8629    1.3799 C   0  0  0  0  0  0  0  0  0  0  0  0
   -4.4356    2.5159    1.1632 C   0  0  0  0  0  0  0  0  0  0  0  0
   -4.0764   -0.0633    1.6739 H   0  0  0  0  0  0  0  0  0  0  0  0
   -3.3425   -1.9120   -0.5554 H   0  0  0  0  0  0  0  0  0  0  0  0
   -5.6199   -2.3576    1.0813 H   0  0  0  0  0  0  0  0  0  0  0  0
   -5.1878   -4.7458    0.3910 H   0  0  0  0  0  0  0  0  0  0  0  0
   -4.6624   -3.6783   -1.0168 H   0  0  0  0  0  0  0  0  0  0  0  0
   -2.4579   -4.0424   -0.5598 H   0  0  0  0  0  0  0  0  0  0  0  0
   -2.9709   -5.4569    0.4131 H   0  0  0  0  0  0  0  0  0  0  0  0
   -1.9769   -4.1609    2.2273 H   0  0  0  0  0  0  0  0  0  0  0  0
   -3.8992   -2.7139    3.0291 H   0  0  0  0  0  0  0  0  0  0  0  0
   -4.5428   -4.3419    2.4228 H   0  0  0  0  0  0  0  0  0  0  0  0
   -2.3051   -1.6521    2.2451 H   0  0  0  0  0  0  0  0  0  0  0  0
    0.5745   -2.1798   -1.2424 H   0  0  0  0  0  0  0  0  0  0  0  0
    2.2028   -2.6543   -3.0374 H   0  0  0  0  0  0  0  0  0  0  0  0
    6.9370   -1.7599   -0.7501 H   0  0  0  0  0  0  0  0  0  0  0  0
    9.2036    0.7945   -1.1549 H   0  0  0  0  0  0  0  0  0  0  0  0
    8.7347    3.2019   -1.0189 H   0  0  0  0  0  0  0  0  0  0  0  0
    6.3421    3.9369   -1.1330 H   0  0  0  0  0  0  0  0  0  0  0  0
    2.3074    2.2099   -2.4819 H   0  0  0  0  0  0  0  0  0  0  0  0
    3.9258    1.6390    1.5012 H   0  0  0  0  0  0  0  0  0  0  0  0
    1.8907    0.2277    1.9276 H   0  0  0  0  0  0  0  0  0  0  0  0
   -3.8233    2.5704   -2.1099 H   0  0  0  0  0  0  0  0  0  0  0  0
   -4.2944    4.9340   -1.7728 H   0  0  0  0  0  0  0  0  0  0  0  0
   -5.6301    6.4337    1.1503 H   0  0  0  0  0  0  0  0  0  0  0  0
   -4.9627    4.2510    2.3638 H   0  0  0  0  0  0  0  0  0  0  0  0
   -4.4907    1.8856    2.0278 H   0  0  0  0  0  0  0  0  0  0  0  0
  1  2  2  0
  2  3  1  0
  3  4  1  0
  4  5  1  0
  5  6  1  0
  6  7  1  0
  7  8  1  0
  8  9  1  0
  8 10  1  0
 10 11  1  0
 11 12  1  0
 12 13  2  0
 12 14  1  0
 14 15  2  0
 15 16  1  0
 16 17  1  0
 16 18  2  0
 18 19  1  0
 19 20  2  0
 19 21  1  0
 21 22  2  0
 22 23  1  0
 22 24  1  0
 24 25  2  0
 25 26  1  0
 26 27  2  0
 27 28  1  0
 28 29  2  0
 28 30  1  0
 18 31  1  0
 31 32  1  0
 31 33  2  0
  2 34  1  0
 34 35  2  0
 35 36  1  0
 36 37  2  0
 37 38  1  0
 37 39  1  0
 39 40  2  0
 10  4  1  0
 33 14  1  0
 40 34  1  0
  9  5  1  0
 27 21  1  0
  3 41  1  0
  4 42  1  0
  5 43  1  0
  6 44  1  0
  6 45  1  0
  7 46  1  0
  7 47  1  0
  8 48  1  0
  9 49  1  0
  9 50  1  0
 10 51  1  0
 15 52  1  0
 17 53  1  0
 23 54  1  0
 24 55  1  0
 25 56  1  0
 26 57  1  0
 30 58  1  0
 32 59  1  0
 33 60  1  0
 35 61  1  0
 36 62  1  0
 38 63  1  0
 39 64  1  0
 40 65  1  0
M  END
$$$$
