@<TRIPOS>MOLECULE
*****
 47 50 0 0 0
SMALL
GASTEIGER

@<TRIPOS>ATOM
      1 C           9.8657   -1.8583   -0.9134 C.1     1  UNL1       -0.1158
      2 C           9.0533   -2.1968   -0.0699 C.1     1  UNL1       -0.0647
      3 C           8.0454   -2.5895    0.9591 C.3     1  UNL1        0.1513
      4 O           6.8592   -2.2726    0.5977 O.3     1  UNL1       -0.4624
      5 C           5.6874   -2.0039    0.1675 C.ar    1  UNL1        0.2344
      6 C           4.8299   -1.1892    0.9079 C.ar    1  UNL1        0.0899
      7 N           3.6027   -0.9134    0.4444 N.ar    1  UNL1       -0.2435
      8 C           3.1468   -1.3890   -0.7185 C.ar    1  UNL1        0.1439
      9 C           1.8248   -1.1381   -1.2557 C.2     1  UNL1        0.2681
     10 O           1.4897   -1.5789   -2.3916 O.2     1  UNL1       -0.2681
     11 N           0.8947   -0.3917   -0.4982 N.am    1  UNL1       -0.2802
     12 C          -0.4246   -0.0542   -0.8761 C.ar    1  UNL1        0.0341
     13 C          -0.9424   -0.2335   -2.1314 C.ar    1  UNL1       -0.0391
     14 C          -2.2711    0.0812   -2.4319 C.ar    1  UNL1       -0.0413
     15 C          -3.1058    0.5838   -1.4729 C.ar    1  UNL1        0.0466
     16 CL         -4.7773    0.9996   -1.7784 Cl      1  UNL1       -0.0832
     17 C          -2.5873    0.7713   -0.1859 C.ar    1  UNL1        0.0030
     18 C          -3.4962    1.3067    0.8426 C.3     1  UNL1        0.1271
     19 C          -2.7799    1.4521    2.1504 C.3     1  UNL1        0.1199
     20 F          -2.3151    0.2519    2.6515 F       1  UNL1       -0.2462
     21 N          -3.9420    2.6124    0.4054 N.2     1  UNL1       -0.2225
     22 C          -5.0530    3.1363    0.7963 C.2     1  UNL1        0.2763
     23 N          -5.4298    4.4171    0.3312 N.pl3   1  UNL1       -0.3134
     24 O          -5.8260    2.3835    1.6732 O.2     1  UNL1       -0.4622
     25 C          -5.8842    0.9779    1.5807 C.3     1  UNL1        0.1090
     26 C          -5.0837    0.0943    2.4912 C.3     1  UNL1       -0.0065
     27 C          -4.6628    0.3639    1.0557 C.3     1  UNL1        0.0314
     28 C          -1.2761    0.4577    0.0952 C.ar    1  UNL1       -0.0335
     29 C           3.9993   -2.1918   -1.4431 C.ar    1  UNL1        0.0619
     30 N           5.2135   -2.4902   -1.0267 N.ar    1  UNL1       -0.2177
     31 H          10.5678   -1.5854   -1.6361 H       1  UNL1        0.1229
     32 H           8.3996   -2.1499    1.9528 H       1  UNL1        0.0837
     33 H           8.1974   -3.7228    1.0500 H       1  UNL1        0.0837
     34 H           5.1825   -0.7971    1.8507 H       1  UNL1        0.0884
     35 H           1.2787   -0.0685    0.4472 H       1  UNL1        0.1552
     36 H          -0.3737   -0.6148   -2.9643 H       1  UNL1        0.0636
     37 H          -2.6914   -0.0545   -3.4216 H       1  UNL1        0.0633
     38 H          -3.3641    2.0163    2.9043 H       1  UNL1        0.0643
     39 H          -1.8435    2.0750    2.0352 H       1  UNL1        0.0643
     40 H          -6.0886    4.5107   -0.4923 H       1  UNL1        0.1466
     41 H          -5.1000    5.2925    0.7480 H       1  UNL1        0.1466
     42 H          -6.8696    0.5940    1.2063 H       1  UNL1        0.0737
     43 H          -4.5669    0.5359    3.3382 H       1  UNL1        0.0306
     44 H          -5.5610   -0.9000    2.7018 H       1  UNL1        0.0306
     45 H          -4.6643   -0.5160    0.4113 H       1  UNL1        0.0365
     46 H          -0.8391    0.5986    1.0732 H       1  UNL1        0.0640
     47 H           3.6810   -2.6122   -2.4073 H       1  UNL1        0.0854
@<TRIPOS>BOND
     1     1     2    3
     2     2     3    1
     3     3     4    1
     4     4     5    1
     5     5     6   ar
     6     6     7   ar
     7     7     8   ar
     8     8     9    1
     9     9    10    2
    10     9    11   am
    11    11    12    1
    12    12    13   ar
    13    13    14   ar
    14    14    15   ar
    15    15    16    1
    16    15    17   ar
    17    17    18    1
    18    18    19    1
    19    19    20    1
    20    18    21    1
    21    21    22    2
    22    22    23    1
    23    22    24    1
    24    24    25    1
    25    25    26    1
    26    26    27    1
    27    17    28   ar
    28     8    29   ar
    29    29    30   ar
    30    30     5   ar
    31    28    12   ar
    32    27    18    1
    33    27    25    1
    34     1    31    1
    35     3    32    1
    36     3    33    1
    37     6    34    1
    38    11    35    1
    39    13    36    1
    40    14    37    1
    41    19    38    1
    42    19    39    1
    43    23    40    1
    44    23    41    1
    45    25    42    1
    46    26    43    1
    47    26    44    1
    48    27    45    1
    49    28    46    1
    50    29    47    1
