@<TRIPOS>MOLECULE
*****
 49 52 0 0 0
SMALL
GASTEIGER

@<TRIPOS>ATOM
      1 C          -3.2982    3.3173   -1.2737 C.3     1  UNL1        0.0596
      2 S          -3.9707    2.3137    0.0068 S.O2    1  UNL1       -0.0055
      3 O          -3.5073    2.7785    1.3742 O.2     1  UNL1       -0.1696
      4 O          -5.4770    2.5748    0.0390 O.2     1  UNL1       -0.1696
      5 C          -3.7102    0.6207   -0.2219 C.ar    1  UNL1        0.0943
      6 C          -4.8124   -0.2391   -0.3715 C.ar    1  UNL1       -0.0192
      7 C          -4.6545   -1.5935   -0.5578 C.ar    1  UNL1        0.0536
      8 C          -5.7762   -2.4872   -0.7113 C.1     1  UNL1        0.0992
      9 N          -6.6682   -3.2115   -0.8481 N.1     1  UNL1       -0.1909
     10 C          -3.3803   -2.1551   -0.6035 C.ar    1  UNL1       -0.0439
     11 C          -2.3051   -1.3080   -0.4562 C.ar    1  UNL1       -0.0534
     12 C          -2.4829    0.0453   -0.2706 C.ar    1  UNL1        0.0022
     13 C          -1.2593    0.8785   -0.1180 C.3     1  UNL1        0.0816
     14 N          -0.7761    0.8971    1.2128 N.am    1  UNL1       -0.2877
     15 C           0.5513    0.6180    1.5667 C.2     1  UNL1        0.3114
     16 O           0.9127    0.6679    2.8094 O.2     1  UNL1       -0.2519
     17 N           1.4982    0.2821    0.5725 N.am    1  UNL1       -0.2276
     18 C           2.8330   -0.0033    0.9125 C.ar    1  UNL1        0.0430
     19 C           3.7333    1.0417    0.9435 C.ar    1  UNL1       -0.0399
     20 C           5.0710    0.8679    1.2649 C.ar    1  UNL1       -0.0595
     21 C           5.4753   -0.4043    1.5564 C.ar    1  UNL1       -0.0500
     22 C           4.5962   -1.4615    1.5320 C.ar    1  UNL1        0.0566
     23 C           5.0637   -2.8448    1.8539 C.3     1  UNL1        0.4175
     24 F           6.2330   -3.1233    1.1395 F       1  UNL1       -0.1659
     25 F           5.2612   -3.0226    3.2090 F       1  UNL1       -0.1659
     26 F           4.1155   -3.7629    1.4316 F       1  UNL1       -0.1659
     27 C           3.2612   -1.2597    1.2068 C.ar    1  UNL1       -0.0283
     28 C           1.0074    0.2530   -0.7781 C.2     1  UNL1        0.0289
     29 C          -0.2225    0.5155   -1.1028 C.2     1  UNL1        0.0373
     30 C          -0.3850    0.3794   -2.5752 C.2     1  UNL1        0.1631
     31 O          -1.3196    0.8585   -3.2441 O.2     1  UNL1       -0.2923
     32 C           0.7779   -0.4212   -3.0068 C.3     1  UNL1        0.0154
     33 C           1.8317   -0.0687   -1.9829 C.3     1  UNL1       -0.0064
     34 H          -2.5563    4.0340   -0.8577 H       1  UNL1        0.0468
     35 H          -2.9175    2.7620   -2.1317 H       1  UNL1        0.0468
     36 H          -4.1044    3.9787   -1.6923 H       1  UNL1        0.0468
     37 H          -5.7952    0.1943   -0.3365 H       1  UNL1        0.0649
     38 H          -3.2797   -3.2285   -0.7516 H       1  UNL1        0.0630
     39 H          -1.3236   -1.7706   -0.4959 H       1  UNL1        0.0622
     40 H          -1.5016    1.9573   -0.3605 H       1  UNL1        0.0601
     41 H          -1.4317    1.1334    2.0425 H       1  UNL1        0.1512
     42 H           3.4485    2.0760    0.7157 H       1  UNL1        0.0636
     43 H           5.7545    1.7202    1.2790 H       1  UNL1        0.0618
     44 H           6.5373   -0.5270    1.8090 H       1  UNL1        0.0623
     45 H           2.6014   -2.1049    1.1969 H       1  UNL1        0.0642
     46 H           1.0387   -0.1161   -4.0332 H       1  UNL1        0.0349
     47 H           0.4901   -1.4912   -2.9628 H       1  UNL1        0.0349
     48 H           2.4540   -0.9676   -1.8370 H       1  UNL1        0.0330
     49 H           2.3684    0.8065   -2.3739 H       1  UNL1        0.0330
@<TRIPOS>BOND
     1     1     2    1
     2     2     3    2
     3     2     4    2
     4     2     5    1
     5     5     6   ar
     6     6     7   ar
     7     7     8    1
     8     8     9    3
     9     7    10   ar
    10    10    11   ar
    11    11    12   ar
    12    12    13    1
    13    13    14    1
    14    14    15   am
    15    15    16    2
    16    15    17   am
    17    17    18    1
    18    18    19   ar
    19    19    20   ar
    20    20    21   ar
    21    21    22   ar
    22    22    23    1
    23    23    24    1
    24    23    25    1
    25    23    26    1
    26    22    27   ar
    27    17    28    1
    28    28    29    2
    29    29    30    1
    30    30    31    2
    31    30    32    1
    32    32    33    1
    33    12     5   ar
    34    29    13    1
    35    27    18   ar
    36    33    28    1
    37     1    34    1
    38     1    35    1
    39     1    36    1
    40     6    37    1
    41    10    38    1
    42    11    39    1
    43    13    40    1
    44    14    41    1
    45    19    42    1
    46    20    43    1
    47    21    44    1
    48    27    45    1
    49    32    46    1
    50    32    47    1
    51    33    48    1
    52    33    49    1
