
     RDKit          3D

 49 52  0  0  0  0  0  0  0  0999 V2000
   -3.2982    3.3173   -1.2737 C   0  0  0  0  0  0  0  0  0  0  0  0
   -3.9707    2.3137    0.0068 S   0  0  0  0  0  6  0  0  0  0  0  0
   -3.5073    2.7785    1.3742 O   0  0  0  0  0  0  0  0  0  0  0  0
   -5.4770    2.5748    0.0390 O   0  0  0  0  0  0  0  0  0  0  0  0
   -3.7102    0.6207   -0.2219 C   0  0  0  0  0  0  0  0  0  0  0  0
   -4.8124   -0.2391   -0.3715 C   0  0  0  0  0  0  0  0  0  0  0  0
   -4.6545   -1.5935   -0.5578 C   0  0  0  0  0  0  0  0  0  0  0  0
   -5.7762   -2.4872   -0.7113 C   0  0  0  0  0  0  0  0  0  0  0  0
   -6.6682   -3.2115   -0.8481 N   0  0  0  0  0  0  0  0  0  0  0  0
   -3.3803   -2.1551   -0.6035 C   0  0  0  0  0  0  0  0  0  0  0  0
   -2.3051   -1.3080   -0.4562 C   0  0  0  0  0  0  0  0  0  0  0  0
   -2.4829    0.0453   -0.2706 C   0  0  0  0  0  0  0  0  0  0  0  0
   -1.2593    0.8785   -0.1180 C   0  0  1  0  0  0  0  0  0  0  0  0
   -0.7761    0.8971    1.2128 N   0  0  0  0  0  0  0  0  0  0  0  0
    0.5513    0.6180    1.5667 C   0  0  0  0  0  0  0  0  0  0  0  0
    0.9127    0.6679    2.8094 O   0  0  0  0  0  0  0  0  0  0  0  0
    1.4982    0.2821    0.5725 N   0  0  0  0  0  0  0  0  0  0  0  0
    2.8330   -0.0033    0.9125 C   0  0  0  0  0  0  0  0  0  0  0  0
    3.7333    1.0417    0.9435 C   0  0  0  0  0  0  0  0  0  0  0  0
    5.0710    0.8679    1.2649 C   0  0  0  0  0  0  0  0  0  0  0  0
    5.4753   -0.4043    1.5564 C   0  0  0  0  0  0  0  0  0  0  0  0
    4.5962   -1.4615    1.5320 C   0  0  0  0  0  0  0  0  0  0  0  0
    5.0637   -2.8448    1.8539 C   0  0  0  0  0  0  0  0  0  0  0  0
    6.2330   -3.1233    1.1395 F   0  0  0  0  0  0  0  0  0  0  0  0
    5.2612   -3.0226    3.2090 F   0  0  0  0  0  0  0  0  0  0  0  0
    4.1155   -3.7629    1.4316 F   0  0  0  0  0  0  0  0  0  0  0  0
    3.2612   -1.2597    1.2068 C   0  0  0  0  0  0  0  0  0  0  0  0
    1.0074    0.2530   -0.7781 C   0  0  0  0  0  0  0  0  0  0  0  0
   -0.2225    0.5155   -1.1028 C   0  0  0  0  0  0  0  0  0  0  0  0
   -0.3850    0.3794   -2.5752 C   0  0  0  0  0  0  0  0  0  0  0  0
   -1.3196    0.8585   -3.2441 O   0  0  0  0  0  0  0  0  0  0  0  0
    0.7779   -0.4212   -3.0068 C   0  0  0  0  0  0  0  0  0  0  0  0
    1.8317   -0.0687   -1.9829 C   0  0  0  0  0  0  0  0  0  0  0  0
   -2.5563    4.0340   -0.8577 H   0  0  0  0  0  0  0  0  0  0  0  0
   -2.9175    2.7620   -2.1317 H   0  0  0  0  0  0  0  0  0  0  0  0
   -4.1044    3.9787   -1.6923 H   0  0  0  0  0  0  0  0  0  0  0  0
   -5.7952    0.1943   -0.3365 H   0  0  0  0  0  0  0  0  0  0  0  0
   -3.2797   -3.2285   -0.7516 H   0  0  0  0  0  0  0  0  0  0  0  0
   -1.3236   -1.7706   -0.4959 H   0  0  0  0  0  0  0  0  0  0  0  0
   -1.5016    1.9573   -0.3605 H   0  0  0  0  0  0  0  0  0  0  0  0
   -1.4317    1.1334    2.0425 H   0  0  0  0  0  0  0  0  0  0  0  0
    3.4485    2.0760    0.7157 H   0  0  0  0  0  0  0  0  0  0  0  0
    5.7545    1.7202    1.2790 H   0  0  0  0  0  0  0  0  0  0  0  0
    6.5373   -0.5270    1.8090 H   0  0  0  0  0  0  0  0  0  0  0  0
    2.6014   -2.1049    1.1969 H   0  0  0  0  0  0  0  0  0  0  0  0
    1.0387   -0.1161   -4.0332 H   0  0  0  0  0  0  0  0  0  0  0  0
    0.4901   -1.4912   -2.9628 H   0  0  0  0  0  0  0  0  0  0  0  0
    2.4540   -0.9676   -1.8370 H   0  0  0  0  0  0  0  0  0  0  0  0
    2.3684    0.8065   -2.3739 H   0  0  0  0  0  0  0  0  0  0  0  0
  1  2  1  0
  2  3  2  0
  2  4  2  0
  2  5  1  0
  5  6  2  0
  6  7  1  0
  7  8  1  0
  8  9  3  0
  7 10  2  0
 10 11  1  0
 11 12  2  0
 12 13  1  0
 13 14  1  0
 14 15  1  0
 15 16  2  0
 15 17  1  0
 17 18  1  0
 18 19  2  0
 19 20  1  0
 20 21  2  0
 21 22  1  0
 22 23  1  0
 23 24  1  0
 23 25  1  0
 23 26  1  0
 22 27  2  0
 17 28  1  0
 28 29  2  0
 29 30  1  0
 30 31  2  0
 30 32  1  0
 32 33  1  0
 12  5  1  0
 29 13  1  0
 27 18  1  0
 33 28  1  0
  1 34  1  0
  1 35  1  0
  1 36  1  0
  6 37  1  0
 10 38  1  0
 11 39  1  0
 13 40  1  6
 14 41  1  0
 19 42  1  0
 20 43  1  0
 21 44  1  0
 27 45  1  0
 32 46  1  0
 32 47  1  0
 33 48  1  0
 33 49  1  0
M  END
$$$$
