@<TRIPOS>MOLECULE
*****
 76 80 0 0 0
SMALL
GASTEIGER

@<TRIPOS>ATOM
      1 C          -6.6942    5.6778   -1.8659 C.3     1  UNL1       -0.0397
      2 C          -6.3059    4.3305   -1.3658 C.ar    1  UNL1       -0.0503
      3 C          -5.6506    4.1552   -0.1626 C.ar    1  UNL1       -0.0568
      4 C          -5.3095    2.8944    0.2670 C.ar    1  UNL1       -0.0359
      5 C          -5.6076    1.7678   -0.4835 C.ar    1  UNL1        0.0674
      6 N          -5.2208    0.4861    0.0377 N.ar    1  UNL1       -0.2181
      7 N          -5.9831   -0.4081    0.6151 N.ar    1  UNL1       -0.1691
      8 C          -5.2543   -1.4605    0.9643 C.ar    1  UNL1        0.0706
      9 C          -5.6734   -2.7213    1.6487 C.3     1  UNL1        0.0063
     10 C          -7.1404   -2.6977    1.9631 C.3     1  UNL1       -0.0546
     11 C          -4.8267   -2.9799    2.8798 C.3     1  UNL1       -0.0546
     12 C          -5.4400   -3.8872    0.6958 C.3     1  UNL1       -0.0546
     13 C          -3.9463   -1.1952    0.5731 C.ar    1  UNL1        0.0021
     14 C          -3.9550    0.0414   -0.0096 C.ar    1  UNL1        0.1299
     15 N          -2.8341    0.7192   -0.5510 N.am    1  UNL1       -0.2538
     16 C          -1.5104    0.2231   -0.5331 C.2     1  UNL1        0.3092
     17 O          -1.2246   -0.8628   -0.0251 O.2     1  UNL1       -0.2521
     18 N          -0.4558    0.9837   -1.1143 N.am    1  UNL1       -0.2686
     19 C           0.9020    0.5697   -1.1328 C.ar    1  UNL1        0.0427
     20 C           1.7558    0.9504   -0.0917 C.ar    1  UNL1       -0.0364
     21 C           3.0752    0.5625   -0.0822 C.ar    1  UNL1       -0.0176
     22 C           3.6180   -0.2097   -1.0817 C.ar    1  UNL1        0.1283
     23 O           4.9341   -0.6239   -1.1182 O.3     1  UNL1       -0.4901
     24 C           5.8607   -0.2786   -0.1050 C.3     1  UNL1        0.1023
     25 C           7.2277   -0.8561   -0.3855 C.3     1  UNL1        0.0333
     26 N           8.2086   -0.5500    0.5780 N.3     1  UNL1       -0.2948
     27 C           8.6528    0.7824    0.6992 C.3     1  UNL1        0.0225
     28 C           9.0913    1.2313    2.0512 C.3     1  UNL1        0.0604
     29 O           9.5729    0.1996    2.8541 O.3     1  UNL1       -0.3772
     30 C           8.6334   -0.8190    2.9979 C.3     1  UNL1        0.0604
     31 C           8.4011   -1.4335    1.6591 C.3     1  UNL1        0.0225
     32 C           2.7856   -0.5968   -2.1222 C.ar    1  UNL1        0.0256
     33 C           3.2941   -1.3739   -3.1457 C.ar    1  UNL1       -0.0505
     34 C           2.4895   -1.7686   -4.1847 C.ar    1  UNL1       -0.0611
     35 C           1.1644   -1.3718   -4.1829 C.ar    1  UNL1       -0.0611
     36 C           0.6645   -0.6057   -3.1733 C.ar    1  UNL1       -0.0521
     37 C           1.4591   -0.2039   -2.1272 C.ar    1  UNL1        0.0069
     38 C          -6.2573    1.9431   -1.6765 C.ar    1  UNL1       -0.0359
     39 C          -6.6080    3.2189   -2.1216 C.ar    1  UNL1       -0.0568
     40 H          -6.2076    6.4647   -1.2411 H       1  UNL1        0.0278
     41 H          -6.4423    5.8204   -2.9223 H       1  UNL1        0.0278
     42 H          -7.7980    5.8308   -1.7665 H       1  UNL1        0.0278
     43 H          -5.4153    5.0261    0.4267 H       1  UNL1        0.0621
     44 H          -4.7963    2.7607    1.2097 H       1  UNL1        0.0639
     45 H          -7.5963   -3.7021    1.8580 H       1  UNL1        0.0239
     46 H          -7.6443   -1.9319    1.3468 H       1  UNL1        0.0239
     47 H          -7.2334   -2.3812    3.0332 H       1  UNL1        0.0239
     48 H          -3.8187   -2.5335    2.7316 H       1  UNL1        0.0239
     49 H          -4.7809   -4.0827    3.0333 H       1  UNL1        0.0239
     50 H          -5.3144   -2.4770    3.7422 H       1  UNL1        0.0239
     51 H          -6.1516   -4.6907    1.0193 H       1  UNL1        0.0239
     52 H          -4.3980   -4.2708    0.8080 H       1  UNL1        0.0239
     53 H          -5.6610   -3.5958   -0.3386 H       1  UNL1        0.0239
     54 H          -3.0911   -1.8751    0.7196 H       1  UNL1        0.0671
     55 H          -3.0151    1.6678   -1.0058 H       1  UNL1        0.1578
     56 H          -0.6999    1.9065   -1.5550 H       1  UNL1        0.1564
     57 H           1.3688    1.5645    0.7254 H       1  UNL1        0.0637
     58 H           3.7165    0.8733    0.7399 H       1  UNL1        0.0655
     59 H           5.8804    0.8034    0.0964 H       1  UNL1        0.0709
     60 H           5.4956   -0.7648    0.8299 H       1  UNL1        0.0709
     61 H           7.0906   -1.9757   -0.3858 H       1  UNL1        0.0460
     62 H           7.5419   -0.5566   -1.3964 H       1  UNL1        0.0460
     63 H           9.5324    0.9004   -0.0021 H       1  UNL1        0.0449
     64 H           7.9014    1.4986    0.3066 H       1  UNL1        0.0449
     65 H           8.2860    1.8058    2.5953 H       1  UNL1        0.0572
     66 H           9.9141    1.9662    1.9355 H       1  UNL1        0.0572
     67 H           9.0801   -1.5748    3.6721 H       1  UNL1        0.0572
     68 H           7.7035   -0.4647    3.4803 H       1  UNL1        0.0572
     69 H           7.5601   -2.1552    1.7239 H       1  UNL1        0.0449
     70 H           9.3164   -2.0580    1.4346 H       1  UNL1        0.0449
     71 H           4.3127   -1.6718   -3.1352 H       1  UNL1        0.0625
     72 H           2.8915   -2.3818   -4.9912 H       1  UNL1        0.0618
     73 H           0.5689   -1.7062   -5.0212 H       1  UNL1        0.0618
     74 H          -0.3820   -0.3017   -3.1874 H       1  UNL1        0.0624
     75 H          -6.4886    1.0745   -2.2580 H       1  UNL1        0.0639
     76 H          -7.1189    3.3555   -3.0601 H       1  UNL1        0.0621
@<TRIPOS>BOND
     1     1     2    1
     2     2     3   ar
     3     3     4   ar
     4     4     5   ar
     5     5     6    1
     6     6     7   ar
     7     7     8   ar
     8     8     9    1
     9     9    10    1
    10     9    11    1
    11     9    12    1
    12     8    13   ar
    13    13    14   ar
    14    14    15    1
    15    15    16   am
    16    16    17    2
    17    16    18   am
    18    18    19    1
    19    19    20   ar
    20    20    21   ar
    21    21    22   ar
    22    22    23    1
    23    23    24    1
    24    24    25    1
    25    25    26    1
    26    26    27    1
    27    27    28    1
    28    28    29    1
    29    29    30    1
    30    30    31    1
    31    22    32   ar
    32    32    33   ar
    33    33    34   ar
    34    34    35   ar
    35    35    36   ar
    36    36    37   ar
    37     5    38   ar
    38    38    39   ar
    39    39     2   ar
    40    14     6   ar
    41    37    19   ar
    42    31    26    1
    43    37    32   ar
    44     1    40    1
    45     1    41    1
    46     1    42    1
    47     3    43    1
    48     4    44    1
    49    10    45    1
    50    10    46    1
    51    10    47    1
    52    11    48    1
    53    11    49    1
    54    11    50    1
    55    12    51    1
    56    12    52    1
    57    12    53    1
    58    13    54    1
    59    15    55    1
    60    18    56    1
    61    20    57    1
    62    21    58    1
    63    24    59    1
    64    24    60    1
    65    25    61    1
    66    25    62    1
    67    27    63    1
    68    27    64    1
    69    28    65    1
    70    28    66    1
    71    30    67    1
    72    30    68    1
    73    31    69    1
    74    31    70    1
    75    33    71    1
    76    34    72    1
    77    35    73    1
    78    36    74    1
    79    38    75    1
    80    39    76    1
