@<TRIPOS>MOLECULE
*****
 66 69 0 0 0
SMALL
GASTEIGER

@<TRIPOS>ATOM
      1 CD1        -3.5448   -3.6584    1.6766 C.3     2  LEU2       -0.0626
      2 CG         -2.3239   -2.6920    1.6106 C.3     2  LEU2       -0.0446
      3 CD2        -1.4829   -3.1402    2.7880 C.3     2  LEU2       -0.0626
      4 CB         -1.7318   -2.8689    0.2748 C.3     2  LEU2       -0.0234
      5 CA         -0.5457   -2.0595   -0.1176 C.3     2  LEU2        0.1035
      6 C           0.6408   -2.2701    0.6872 C.2     2  LEU2        0.2342
      7 O           0.9826   -3.4190    1.1513 O.2     2  LEU2       -0.2738
      8 N           1.5148   -1.2096    1.0158 N.am    1  UNK1       -0.3022
      9 C           1.6825   -0.1468    0.0100 C.3     1  UNK1        0.1030
     10 C           2.4786    1.0034    0.4988 C.3     1  UNK1       -0.0061
     11 C           3.8578    0.6127    0.9084 C.3     1  UNK1       -0.0221
     12 C           4.8310    1.4064    0.1484 C.ar    1  UNK1       -0.0438
     13 C           6.1991    1.4467    0.2539 C.ar    1  UNK1       -0.0583
     14 C           6.9027    2.2926   -0.5903 C.ar    1  UNK1       -0.0615
     15 C           6.2578    3.0792   -1.5173 C.ar    1  UNK1       -0.0615
     16 C           4.8805    2.9956   -1.5768 C.ar    1  UNK1       -0.0583
     17 C           4.1606    2.1706   -0.7571 C.ar    1  UNK1       -0.0438
     18 C           2.7166    1.9447   -0.6692 C.3     1  UNK1       -0.0221
     19 C           0.3044    0.2182   -0.4107 C.2     1  UNK1        0.2377
     20 O           0.1938    1.4168   -0.8331 O.2     1  UNK1       -0.2735
     21 N          -0.7961   -0.6662   -0.3561 N.am    2  LEU2       -0.2727
     22 C          -2.0991   -0.1026   -0.5876 C.3     0  UNK0        0.1310
     23 C          -2.7038    0.7715    0.3940 C.2     0  UNK0        0.2403
     24 O          -3.8539    1.2692    0.0398 O.2     0  UNK0       -0.2732
     25 N          -2.2788    1.1824    1.6617 N.am    0  UNK0       -0.3058
     26 C          -3.0954    2.1176    2.4680 C.3     0  UNK0        0.0029
     27 C          -1.0596    0.7712    2.3392 C.3     0  UNK0        0.0029
     28 C          -2.3941    0.2361   -2.0007 C.ar    0  UNK0        0.0172
     29 C          -2.5750   -0.7579   -2.9746 C.ar    0  UNK0       -0.0509
     30 C          -2.8100   -0.4460   -4.2910 C.ar    0  UNK0       -0.0259
     31 C          -2.8735    0.8661   -4.6852 C.ar    0  UNK0        0.1261
     32 F          -3.1059    1.2118   -5.9914 F       0  UNK0       -0.2054
     33 C          -2.7028    1.8702   -3.7637 C.ar    0  UNK0        0.0091
     34 C          -2.4653    1.5235   -2.4288 C.ar    0  UNK0        0.1315
     35 F          -2.3452    2.5406   -1.5756 F       0  UNK0       -0.2050
     36 HD11       -3.9485   -3.5935    2.7050 H       2  LEU2        0.0232
     37 HD12       -4.3141   -3.2646    0.9937 H       2  LEU2        0.0232
     38 HD13       -3.2063   -4.6857    1.4193 H       2  LEU2        0.0232
     39 HG         -2.7829   -1.7065    1.8237 H       2  LEU2        0.0296
     40 HD21       -0.6536   -2.4853    3.0395 H       2  LEU2        0.0232
     41 HD22       -1.1360   -4.1757    2.5947 H       2  LEU2        0.0232
     42 HD23       -2.1655   -3.2851    3.6984 H       2  LEU2        0.0232
     43 HB1        -1.2814   -3.9427    0.3162 H       2  LEU2        0.0290
     44 HB2        -2.4136   -2.9689   -0.5663 H       2  LEU2        0.0290
     45 HA         -0.2721   -2.4650   -1.1587 H       2  LEU2        0.0597
     46 H           2.0414   -1.1290    1.9086 H       1  UNK1        0.1495
     47 H           2.1653   -0.6223   -0.8870 H       1  UNK1        0.0597
     48 H           1.9328    1.5470    1.2975 H       1  UNK1        0.0330
     49 H           4.0995   -0.4585    0.7647 H       1  UNK1        0.0317
     50 H           3.9801    0.9040    1.9917 H       1  UNK1        0.0317
     51 H           6.7044    0.8282    0.9828 H       1  UNK1        0.0620
     52 H           7.9921    2.3210   -0.5021 H       1  UNK1        0.0618
     53 H           6.8421    3.7184   -2.1486 H       1  UNK1        0.0618
     54 H           4.4040    3.6407   -2.3314 H       1  UNK1        0.0620
     55 H           2.1291    2.8874   -0.5537 H       1  UNK1        0.0317
     56 H           2.3913    1.4847   -1.6333 H       1  UNK1        0.0317
     57 H          -2.7717   -1.0690   -0.4845 H       0  UNK0        0.0649
     58 H          -4.1551    2.0380    2.0909 H       0  UNK0        0.0428
     59 H          -2.7802    3.1590    2.2751 H       0  UNK0        0.0428
     60 H          -3.1129    1.8278    3.5181 H       0  UNK0        0.0428
     61 H          -0.8180   -0.2749    2.1809 H       0  UNK0        0.0428
     62 H          -1.1759    0.8514    3.4670 H       0  UNK0        0.0428
     63 H          -0.2972    1.5143    2.0985 H       0  UNK0        0.0428
     64 H          -2.5167   -1.7859   -2.6191 H       0  UNK0        0.0623
     65 H          -2.9428   -1.2253   -5.0053 H       0  UNK0        0.0646
     66 H          -2.7536    2.9061   -4.0760 H       0  UNK0        0.0675
@<TRIPOS>BOND
     1     1     2    1
     2     2     3    1
     3     2     4    1
     4     4     5    1
     5     5     6    1
     6     6     7    2
     7     6     8   am
     8     8     9    1
     9     9    10    1
    10    10    11    1
    11    11    12    1
    12    12    13   ar
    13    13    14   ar
    14    14    15   ar
    15    15    16   ar
    16    16    17   ar
    17    17    18    1
    18     9    19    1
    19    19    20    2
    20    19    21   am
    21    21    22    1
    22    22    23    1
    23    23    24    2
    24    23    25   am
    25    25    26    1
    26    25    27    1
    27    22    28    1
    28    28    29   ar
    29    29    30   ar
    30    30    31   ar
    31    31    32    1
    32    31    33   ar
    33    33    34   ar
    34    34    35    1
    35    21     5    1
    36    34    28   ar
    37    18    10    1
    38    17    12   ar
    39     1    36    1
    40     1    37    1
    41     1    38    1
    42     2    39    1
    43     3    40    1
    44     3    41    1
    45     3    42    1
    46     4    43    1
    47     4    44    1
    48     5    45    1
    49     8    46    1
    50     9    47    1
    51    10    48    1
    52    11    49    1
    53    11    50    1
    54    13    51    1
    55    14    52    1
    56    15    53    1
    57    16    54    1
    58    18    55    1
    59    18    56    1
    60    22    57    1
    61    26    58    1
    62    26    59    1
    63    26    60    1
    64    27    61    1
    65    27    62    1
    66    27    63    1
    67    29    64    1
    68    30    65    1
    69    33    66    1
