@<TRIPOS>MOLECULE
*****
 45 47 0 0 0
SMALL
GASTEIGER

@<TRIPOS>ATOM
      1 C           1.4387   -2.9365   -1.0912 C.3     1  UNL1       -0.0633
      2 C           1.1348   -1.7898   -2.0242 C.3     1  UNL1       -0.0331
      3 C           0.8885   -0.4922   -1.2797 C.3     1  UNL1        0.0496
      4 N          -0.2327   -0.6167   -0.3769 N.am    1  UNL1       -0.2921
      5 C          -1.3814    0.1520   -0.5842 C.2     1  UNL1        0.3085
      6 O          -1.4438    0.9646   -1.5694 O.2     1  UNL1       -0.2522
      7 N          -2.5379    0.0995    0.2510 N.am    1  UNL1       -0.2296
      8 C          -2.5114   -0.8052    1.3737 C.3     1  UNL1        0.0993
      9 C          -3.8536   -1.0899    1.9096 C.2     1  UNL1        0.2352
     10 O          -4.0065   -2.1037    2.6331 O.2     1  UNL1       -0.2737
     11 N          -4.9872   -0.2814    1.6543 N.am    1  UNL1       -0.2814
     12 C          -4.8914    0.7376    0.6765 C.ar    1  UNL1        0.0743
     13 C          -5.9834    1.5368    0.4115 C.ar    1  UNL1       -0.0357
     14 C          -5.8522    2.5151   -0.5442 C.ar    1  UNL1       -0.0417
     15 C          -4.6226    2.6316   -1.1800 C.ar    1  UNL1        0.0298
     16 N          -3.5698    1.8541   -0.9180 N.ar    1  UNL1       -0.2380
     17 C          -3.6906    0.8942    0.0162 C.ar    1  UNL1        0.1505
     18 C           2.1138   -0.0264   -0.5810 C.ar    1  UNL1       -0.0270
     19 C           2.8926    0.9615   -1.1446 C.ar    1  UNL1       -0.0533
     20 C           4.0394    1.4056   -0.5024 C.ar    1  UNL1       -0.0193
     21 C           4.4314    0.8808    0.7025 C.ar    1  UNL1        0.1300
     22 O           5.5772    1.3274    1.3399 O.3     1  UNL1       -0.4057
     23 C           6.8331    0.7393    1.1141 C.3     1  UNL1        0.5752
     24 F           7.7845    1.3722    1.8682 F       1  UNL1       -0.1328
     25 F           6.8325   -0.6000    1.5021 F       1  UNL1       -0.1328
     26 F           7.1194    0.7493   -0.2383 F       1  UNL1       -0.1328
     27 C           3.6505   -0.1123    1.2715 C.ar    1  UNL1       -0.0193
     28 C           2.5071   -0.5550    0.6311 C.ar    1  UNL1       -0.0533
     29 H           0.7565   -2.9510   -0.2155 H       1  UNL1        0.0230
     30 H           1.2885   -3.8732   -1.6937 H       1  UNL1        0.0230
     31 H           2.5046   -2.9582   -0.7859 H       1  UNL1        0.0230
     32 H           1.9767   -1.6474   -2.7071 H       1  UNL1        0.0284
     33 H           0.2142   -2.0062   -2.6041 H       1  UNL1        0.0284
     34 H           0.6261    0.2561   -2.0509 H       1  UNL1        0.0549
     35 H          -0.2208   -1.2748    0.4471 H       1  UNL1        0.1508
     36 H          -1.7952   -0.4728    2.1394 H       1  UNL1        0.0565
     37 H          -2.1118   -1.7936    1.0009 H       1  UNL1        0.0565
     38 H          -5.9009   -0.4337    2.1872 H       1  UNL1        0.1550
     39 H          -6.9192    1.4189    0.9223 H       1  UNL1        0.0638
     40 H          -6.6763    3.1662   -0.7883 H       1  UNL1        0.0633
     41 H          -4.5594    3.4160   -1.9282 H       1  UNL1        0.0830
     42 H           2.6271    1.4018   -2.0845 H       1  UNL1        0.0622
     43 H           4.6199    2.1869   -0.9881 H       1  UNL1        0.0654
     44 H           3.9607   -0.5296    2.2279 H       1  UNL1        0.0654
     45 H           1.9305   -1.3179    1.0943 H       1  UNL1        0.0622
@<TRIPOS>BOND
     1     1     2    1
     2     2     3    1
     3     3     4    1
     4     4     5   am
     5     5     6    2
     6     5     7   am
     7     7     8    1
     8     8     9    1
     9     9    10    2
    10     9    11   am
    11    11    12    1
    12    12    13   ar
    13    13    14   ar
    14    14    15   ar
    15    15    16   ar
    16    16    17   ar
    17     3    18    1
    18    18    19   ar
    19    19    20   ar
    20    20    21   ar
    21    21    22    1
    22    22    23    1
    23    23    24    1
    24    23    25    1
    25    23    26    1
    26    21    27   ar
    27    27    28   ar
    28    17     7    1
    29    28    18   ar
    30    17    12   ar
    31     1    29    1
    32     1    30    1
    33     1    31    1
    34     2    32    1
    35     2    33    1
    36     3    34    1
    37     4    35    1
    38     8    36    1
    39     8    37    1
    40    11    38    1
    41    13    39    1
    42    14    40    1
    43    15    41    1
    44    19    42    1
    45    20    43    1
    46    27    44    1
    47    28    45    1
