@<TRIPOS>MOLECULE
*****
 73 77 0 0 0
SMALL
GASTEIGER

@<TRIPOS>ATOM
      1 C           9.1707   -3.1290    2.1694 C.3     1  UNL1       -0.0306
      2 C           7.6869   -2.7180    2.1766 C.3     1  UNL1        0.0885
      3 O           7.4003   -1.5420    1.7253 O.3     1  UNL1       -0.4744
      4 C           7.1229   -0.3599    1.2849 C.ar    1  UNL1        0.2555
      5 N           7.6391    0.8029    1.8367 N.ar    1  UNL1       -0.1317
      6 N           7.2074    1.8486    1.2167 N.ar    1  UNL1       -0.2692
      7 C           7.5417    3.2476    1.5170 C.3     1  UNL1        0.0304
      8 C           6.3850    1.4255    0.2259 C.ar    1  UNL1        0.0503
      9 C           6.3150    0.0601    0.2446 C.ar    1  UNL1        0.1152
     10 N           5.5928   -0.7857   -0.6224 N.pl3   1  UNL1       -0.2782
     11 C           4.7295   -0.2256   -1.6358 C.ar    1  UNL1        0.2202
     12 N           5.2615    0.2207   -2.7687 N.ar    1  UNL1       -0.2224
     13 C           4.4844    0.7568   -3.7202 C.ar    1  UNL1        0.0361
     14 C           3.1121    0.8353   -3.4951 C.ar    1  UNL1       -0.0062
     15 C           2.1994    1.4243   -4.5067 C.3     1  UNL1       -0.0362
     16 C           2.5702    0.3703   -2.3206 C.ar    1  UNL1        0.0809
     17 C           1.1371    0.4308   -2.0883 C.ar    1  UNL1        0.0258
     18 C           0.4086    1.6116   -2.0493 C.ar    1  UNL1        0.0120
     19 N          -0.8782    1.3109   -1.7930 N.ar    1  UNL1       -0.3586
     20 C          -0.9821   -0.0233   -1.6703 C.ar    1  UNL1        0.0686
     21 C          -2.1054   -0.8168   -1.4187 C.ar    1  UNL1        0.0576
     22 N          -3.3337   -0.1600   -1.2226 N.am    1  UNL1       -0.2825
     23 C          -3.8411    0.1766    0.0669 C.2     1  UNL1        0.2342
     24 O          -3.1303   -0.1503    1.0527 O.2     1  UNL1       -0.2738
     25 C          -5.1186    0.8693    0.3140 C.3     1  UNL1        0.0848
     26 C          -6.1682    0.4784   -0.6658 C.3     1  UNL1       -0.0409
     27 N          -5.4812    0.7242    1.7033 N.3     1  UNL1       -0.2893
     28 C          -6.5636    1.5553    2.1228 C.3     1  UNL1        0.0124
     29 C          -7.4323    0.9693    3.1709 C.3     1  UNL1        0.0114
     30 N          -7.9504   -0.2813    2.6915 N.3     1  UNL1       -0.3029
     31 C          -8.9998   -0.1505    1.7166 C.3     1  UNL1       -0.0127
     32 C          -6.9474   -1.2014    2.2835 C.3     1  UNL1        0.0114
     33 C          -5.5843   -0.6483    2.1033 C.3     1  UNL1        0.0124
     34 C          -1.9217   -2.1792   -1.3597 C.ar    1  UNL1       -0.0384
     35 C          -0.6779   -2.7612   -1.5393 C.ar    1  UNL1       -0.0593
     36 C           0.4310   -1.9454   -1.7889 C.ar    1  UNL1       -0.0518
     37 C           0.2506   -0.5885   -1.8489 C.ar    1  UNL1        0.0107
     38 N           3.4159   -0.1566   -1.4109 N.ar    1  UNL1       -0.2139
     39 H           9.2765   -3.8185    1.2857 H       1  UNL1        0.0262
     40 H           9.7373   -2.2134    1.9061 H       1  UNL1        0.0262
     41 H           9.4883   -3.5757    3.1139 H       1  UNL1        0.0262
     42 H           7.0920   -3.6056    1.7596 H       1  UNL1        0.0694
     43 H           7.4195   -2.8103    3.2878 H       1  UNL1        0.0694
     44 H           7.2309    3.9002    0.6579 H       1  UNL1        0.0473
     45 H           8.6299    3.3540    1.6985 H       1  UNL1        0.0473
     46 H           6.9292    3.5812    2.3858 H       1  UNL1        0.0473
     47 H           5.8895    2.1255   -0.4463 H       1  UNL1        0.0846
     48 H           5.6561   -1.8214   -0.5609 H       1  UNL1        0.1552
     49 H           4.9076    1.1291   -4.6705 H       1  UNL1        0.0834
     50 H           2.6888    1.2616   -5.5072 H       1  UNL1        0.0279
     51 H           1.1838    1.0290   -4.4621 H       1  UNL1        0.0279
     52 H           2.1844    2.5451   -4.3946 H       1  UNL1        0.0279
     53 H           0.7858    2.6174   -2.1947 H       1  UNL1        0.0814
     54 H          -1.6304    2.0274   -1.7132 H       1  UNL1        0.1654
     55 H          -3.9114    0.0977   -2.0397 H       1  UNL1        0.1549
     56 H          -4.9291    1.9702    0.1660 H       1  UNL1        0.0556
     57 H          -5.7912    0.8166   -1.6778 H       1  UNL1        0.0249
     58 H          -6.3636   -0.6081   -0.7091 H       1  UNL1        0.0249
     59 H          -7.1037    0.9990   -0.4866 H       1  UNL1        0.0249
     60 H          -6.0726    2.4647    2.6018 H       1  UNL1        0.0439
     61 H          -7.0960    1.9682    1.2592 H       1  UNL1        0.0439
     62 H          -8.2953    1.6364    3.3806 H       1  UNL1        0.0439
     63 H          -6.8404    0.7764    4.0868 H       1  UNL1        0.0439
     64 H          -9.3505    0.9001    1.6662 H       1  UNL1        0.0391
     65 H          -9.8360   -0.8446    1.9919 H       1  UNL1        0.0391
     66 H          -8.6197   -0.4147    0.7053 H       1  UNL1        0.0391
     67 H          -6.8889   -2.0039    3.0790 H       1  UNL1        0.0439
     68 H          -7.3143   -1.7636    1.3767 H       1  UNL1        0.0439
     69 H          -4.9329   -0.8084    2.9798 H       1  UNL1        0.0439
     70 H          -5.1187   -1.2613    1.2705 H       1  UNL1        0.0439
     71 H          -2.8094   -2.7786   -1.1630 H       1  UNL1        0.0637
     72 H          -0.5507   -3.8281   -1.4928 H       1  UNL1        0.0618
     73 H           1.4092   -2.3390   -1.9340 H       1  UNL1        0.0624
@<TRIPOS>BOND
     1     1     2    1
     2     2     3    1
     3     3     4    1
     4     4     5   ar
     5     5     6   ar
     6     6     7    1
     7     6     8   ar
     8     8     9   ar
     9     9    10    1
    10    10    11    1
    11    11    12   ar
    12    12    13   ar
    13    13    14   ar
    14    14    15    1
    15    14    16   ar
    16    16    17    1
    17    17    18   ar
    18    18    19   ar
    19    19    20   ar
    20    20    21   ar
    21    21    22    1
    22    22    23   am
    23    23    24    2
    24    23    25    1
    25    25    26    1
    26    25    27    1
    27    27    28    1
    28    28    29    1
    29    29    30    1
    30    30    31    1
    31    30    32    1
    32    32    33    1
    33    21    34   ar
    34    34    35   ar
    35    35    36   ar
    36    36    37   ar
    37    16    38   ar
    38     9     4   ar
    39    38    11   ar
    40    37    17   ar
    41    37    20   ar
    42    33    27    1
    43     1    39    1
    44     1    40    1
    45     1    41    1
    46     2    42    1
    47     2    43    1
    48     7    44    1
    49     7    45    1
    50     7    46    1
    51     8    47    1
    52    10    48    1
    53    13    49    1
    54    15    50    1
    55    15    51    1
    56    15    52    1
    57    18    53    1
    58    19    54    1
    59    22    55    1
    60    25    56    1
    61    26    57    1
    62    26    58    1
    63    26    59    1
    64    28    60    1
    65    28    61    1
    66    29    62    1
    67    29    63    1
    68    31    64    1
    69    31    65    1
    70    31    66    1
    71    32    67    1
    72    32    68    1
    73    33    69    1
    74    33    70    1
    75    34    71    1
    76    35    72    1
    77    36    73    1
