
     RDKit          3D

 73 77  0  0  0  0  0  0  0  0999 V2000
    9.1707   -3.1290    2.1694 C   0  0  0  0  0  0  0  0  0  0  0  0
    7.6869   -2.7180    2.1766 C   0  0  0  0  0  0  0  0  0  0  0  0
    7.4003   -1.5420    1.7253 O   0  0  0  0  0  0  0  0  0  0  0  0
    7.1229   -0.3599    1.2849 C   0  0  0  0  0  0  0  0  0  0  0  0
    7.6391    0.8029    1.8367 N   0  0  0  0  0  0  0  0  0  0  0  0
    7.2074    1.8486    1.2167 N   0  0  0  0  0  0  0  0  0  0  0  0
    7.5417    3.2476    1.5170 C   0  0  0  0  0  0  0  0  0  0  0  0
    6.3850    1.4255    0.2259 C   0  0  0  0  0  0  0  0  0  0  0  0
    6.3150    0.0601    0.2446 C   0  0  0  0  0  0  0  0  0  0  0  0
    5.5928   -0.7857   -0.6224 N   0  0  0  0  0  0  0  0  0  0  0  0
    4.7295   -0.2256   -1.6358 C   0  0  0  0  0  0  0  0  0  0  0  0
    5.2615    0.2207   -2.7687 N   0  0  0  0  0  0  0  0  0  0  0  0
    4.4844    0.7568   -3.7202 C   0  0  0  0  0  0  0  0  0  0  0  0
    3.1121    0.8353   -3.4951 C   0  0  0  0  0  0  0  0  0  0  0  0
    2.1994    1.4243   -4.5067 C   0  0  0  0  0  0  0  0  0  0  0  0
    2.5702    0.3703   -2.3206 C   0  0  0  0  0  0  0  0  0  0  0  0
    1.1371    0.4308   -2.0883 C   0  0  0  0  0  0  0  0  0  0  0  0
    0.4086    1.6116   -2.0493 C   0  0  0  0  0  0  0  0  0  0  0  0
   -0.8782    1.3109   -1.7930 N   0  0  0  0  0  0  0  0  0  0  0  0
   -0.9821   -0.0233   -1.6703 C   0  0  0  0  0  0  0  0  0  0  0  0
   -2.1054   -0.8168   -1.4187 C   0  0  0  0  0  0  0  0  0  0  0  0
   -3.3337   -0.1600   -1.2226 N   0  0  0  0  0  0  0  0  0  0  0  0
   -3.8411    0.1766    0.0669 C   0  0  0  0  0  0  0  0  0  0  0  0
   -3.1303   -0.1503    1.0527 O   0  0  0  0  0  0  0  0  0  0  0  0
   -5.1186    0.8693    0.3140 C   0  0  1  0  0  0  0  0  0  0  0  0
   -6.1682    0.4784   -0.6658 C   0  0  0  0  0  0  0  0  0  0  0  0
   -5.4812    0.7242    1.7033 N   0  0  0  0  0  0  0  0  0  0  0  0
   -6.5636    1.5553    2.1228 C   0  0  0  0  0  0  0  0  0  0  0  0
   -7.4323    0.9693    3.1709 C   0  0  0  0  0  0  0  0  0  0  0  0
   -7.9504   -0.2813    2.6915 N   0  0  0  0  0  0  0  0  0  0  0  0
   -8.9998   -0.1505    1.7166 C   0  0  0  0  0  0  0  0  0  0  0  0
   -6.9474   -1.2014    2.2835 C   0  0  0  0  0  0  0  0  0  0  0  0
   -5.5843   -0.6483    2.1033 C   0  0  0  0  0  0  0  0  0  0  0  0
   -1.9217   -2.1792   -1.3597 C   0  0  0  0  0  0  0  0  0  0  0  0
   -0.6779   -2.7612   -1.5393 C   0  0  0  0  0  0  0  0  0  0  0  0
    0.4310   -1.9454   -1.7889 C   0  0  0  0  0  0  0  0  0  0  0  0
    0.2506   -0.5885   -1.8489 C   0  0  0  0  0  0  0  0  0  0  0  0
    3.4159   -0.1566   -1.4109 N   0  0  0  0  0  0  0  0  0  0  0  0
    9.2765   -3.8185    1.2857 H   0  0  0  0  0  0  0  0  0  0  0  0
    9.7373   -2.2134    1.9061 H   0  0  0  0  0  0  0  0  0  0  0  0
    9.4883   -3.5757    3.1139 H   0  0  0  0  0  0  0  0  0  0  0  0
    7.0920   -3.6056    1.7596 H   0  0  0  0  0  0  0  0  0  0  0  0
    7.4195   -2.8103    3.2878 H   0  0  0  0  0  0  0  0  0  0  0  0
    7.2309    3.9002    0.6579 H   0  0  0  0  0  0  0  0  0  0  0  0
    8.6299    3.3540    1.6985 H   0  0  0  0  0  0  0  0  0  0  0  0
    6.9292    3.5812    2.3858 H   0  0  0  0  0  0  0  0  0  0  0  0
    5.8895    2.1255   -0.4463 H   0  0  0  0  0  0  0  0  0  0  0  0
    5.6561   -1.8214   -0.5609 H   0  0  0  0  0  0  0  0  0  0  0  0
    4.9076    1.1291   -4.6705 H   0  0  0  0  0  0  0  0  0  0  0  0
    2.6888    1.2616   -5.5072 H   0  0  0  0  0  0  0  0  0  0  0  0
    1.1838    1.0290   -4.4621 H   0  0  0  0  0  0  0  0  0  0  0  0
    2.1844    2.5451   -4.3946 H   0  0  0  0  0  0  0  0  0  0  0  0
    0.7858    2.6174   -2.1947 H   0  0  0  0  0  0  0  0  0  0  0  0
   -1.6304    2.0274   -1.7132 H   0  0  0  0  0  0  0  0  0  0  0  0
   -3.9114    0.0977   -2.0397 H   0  0  0  0  0  0  0  0  0  0  0  0
   -4.9291    1.9702    0.1660 H   0  0  0  0  0  0  0  0  0  0  0  0
   -5.7912    0.8166   -1.6778 H   0  0  0  0  0  0  0  0  0  0  0  0
   -6.3636   -0.6081   -0.7091 H   0  0  0  0  0  0  0  0  0  0  0  0
   -7.1037    0.9990   -0.4866 H   0  0  0  0  0  0  0  0  0  0  0  0
   -6.0726    2.4647    2.6018 H   0  0  0  0  0  0  0  0  0  0  0  0
   -7.0960    1.9682    1.2592 H   0  0  0  0  0  0  0  0  0  0  0  0
   -8.2953    1.6364    3.3806 H   0  0  0  0  0  0  0  0  0  0  0  0
   -6.8404    0.7764    4.0868 H   0  0  0  0  0  0  0  0  0  0  0  0
   -9.3505    0.9001    1.6662 H   0  0  0  0  0  0  0  0  0  0  0  0
   -9.8360   -0.8446    1.9919 H   0  0  0  0  0  0  0  0  0  0  0  0
   -8.6197   -0.4147    0.7053 H   0  0  0  0  0  0  0  0  0  0  0  0
   -6.8889   -2.0039    3.0790 H   0  0  0  0  0  0  0  0  0  0  0  0
   -7.3143   -1.7636    1.3767 H   0  0  0  0  0  0  0  0  0  0  0  0
   -4.9329   -0.8084    2.9798 H   0  0  0  0  0  0  0  0  0  0  0  0
   -5.1187   -1.2613    1.2705 H   0  0  0  0  0  0  0  0  0  0  0  0
   -2.8094   -2.7786   -1.1630 H   0  0  0  0  0  0  0  0  0  0  0  0
   -0.5507   -3.8281   -1.4928 H   0  0  0  0  0  0  0  0  0  0  0  0
    1.4092   -2.3390   -1.9340 H   0  0  0  0  0  0  0  0  0  0  0  0
  1  2  1  0
  2  3  1  0
  3  4  1  0
  4  5  2  0
  5  6  1  0
  6  7  1  0
  6  8  1  0
  8  9  2  0
  9 10  1  0
 10 11  1  0
 11 12  2  0
 12 13  1  0
 13 14  2  0
 14 15  1  0
 14 16  1  0
 16 17  1  0
 17 18  2  0
 18 19  1  0
 19 20  1  0
 20 21  2  0
 21 22  1  0
 22 23  1  0
 23 24  2  0
 23 25  1  0
 25 26  1  0
 25 27  1  0
 27 28  1  0
 28 29  1  0
 29 30  1  0
 30 31  1  0
 30 32  1  0
 32 33  1  0
 21 34  1  0
 34 35  2  0
 35 36  1  0
 36 37  2  0
 16 38  2  0
  9  4  1  0
 38 11  1  0
 37 17  1  0
 37 20  1  0
 33 27  1  0
  1 39  1  0
  1 40  1  0
  1 41  1  0
  2 42  1  0
  2 43  1  0
  7 44  1  0
  7 45  1  0
  7 46  1  0
  8 47  1  0
 10 48  1  0
 13 49  1  0
 15 50  1  0
 15 51  1  0
 15 52  1  0
 18 53  1  0
 19 54  1  0
 22 55  1  0
 25 56  1  1
 26 57  1  0
 26 58  1  0
 26 59  1  0
 28 60  1  0
 28 61  1  0
 29 62  1  0
 29 63  1  0
 31 64  1  0
 31 65  1  0
 31 66  1  0
 32 67  1  0
 32 68  1  0
 33 69  1  0
 33 70  1  0
 34 71  1  0
 35 72  1  0
 36 73  1  0
M  END
$$$$
