@<TRIPOS>MOLECULE
*****
 76 80 0 0 0
SMALL
GASTEIGER

@<TRIPOS>ATOM
      1 C          -7.9329    4.6484    2.2503 C.3     1  UNL1       -0.0306
      2 C          -8.2389    3.1827    2.0859 C.3     1  UNL1        0.0885
      3 O          -7.3160    2.6164    1.1839 O.3     1  UNL1       -0.4744
      4 C          -7.3624    1.2649    0.8503 C.ar    1  UNL1        0.2555
      5 N          -8.2104    0.3289    1.2824 N.ar    1  UNL1       -0.1317
      6 N          -7.9635   -0.8516    0.7585 N.ar    1  UNL1       -0.2692
      7 C          -8.7208   -2.0607    1.0306 C.3     1  UNL1        0.0304
      8 C          -6.8937   -0.6753   -0.0614 C.ar    1  UNL1        0.0503
      9 C          -6.5004    0.6402   -0.0213 C.ar    1  UNL1        0.1152
     10 N          -5.4564    1.2898   -0.7238 N.pl3   1  UNL1       -0.2782
     11 C          -4.5638    0.5868   -1.5778 C.ar    1  UNL1        0.2202
     12 N          -4.9533    0.2423   -2.8084 N.ar    1  UNL1       -0.2224
     13 C          -4.1441   -0.4189   -3.6711 C.ar    1  UNL1        0.0361
     14 C          -2.8559   -0.7396   -3.2299 C.ar    1  UNL1       -0.0062
     15 C          -1.9906   -1.4674   -4.1947 C.3     1  UNL1       -0.0362
     16 C          -2.4505   -0.3861   -1.9631 C.ar    1  UNL1        0.0809
     17 C          -1.1007   -0.7106   -1.5378 C.ar    1  UNL1        0.0258
     18 C           0.0738   -0.3784   -2.2276 C.ar    1  UNL1        0.0120
     19 N           1.1210   -0.8308   -1.5223 N.ar    1  UNL1       -0.3586
     20 C           0.7062   -1.4462   -0.4004 C.ar    1  UNL1        0.0686
     21 C           1.3269   -2.0690    0.6557 C.ar    1  UNL1        0.0576
     22 N           2.7414   -2.1431    0.6699 N.am    1  UNL1       -0.2825
     23 C           3.5194   -1.1020    1.2497 C.2     1  UNL1        0.2345
     24 O           2.8720   -0.1471    1.7371 O.2     1  UNL1       -0.2737
     25 C           5.0383   -1.1386    1.2769 C.3     1  UNL1        0.0874
     26 C           5.5508   -1.8828    0.1075 C.3     1  UNL1       -0.0317
     27 C           7.0379   -2.0238   -0.0275 C.3     1  UNL1       -0.0634
     28 N           5.5351    0.1337    1.5921 N.3     1  UNL1       -0.2891
     29 C           6.8782    0.2372    2.0362 C.3     1  UNL1        0.0124
     30 C           7.6349    1.3908    1.4441 C.3     1  UNL1        0.0114
     31 N           7.3642    1.6847    0.0838 N.3     1  UNL1       -0.3029
     32 C           7.6286    3.1044   -0.1327 C.3     1  UNL1       -0.0127
     33 C           6.0310    1.4003   -0.3795 C.3     1  UNL1        0.0114
     34 C           5.1232    1.2511    0.7921 C.3     1  UNL1        0.0124
     35 C           0.6122   -2.6124    1.6888 C.ar    1  UNL1       -0.0384
     36 C          -0.7656   -2.5415    1.6836 C.ar    1  UNL1       -0.0593
     37 C          -1.3908   -1.9239    0.6375 C.ar    1  UNL1       -0.0518
     38 C          -0.6834   -1.3733   -0.4066 C.ar    1  UNL1        0.0107
     39 N          -3.3065    0.2622   -1.1734 N.ar    1  UNL1       -0.2139
     40 H          -6.8901    4.8937    1.9231 H       1  UNL1        0.0262
     41 H          -7.9987    4.9423    3.3379 H       1  UNL1        0.0262
     42 H          -8.6309    5.3124    1.7207 H       1  UNL1        0.0262
     43 H          -8.1693    2.6675    3.0682 H       1  UNL1        0.0694
     44 H          -9.2874    3.1297    1.6873 H       1  UNL1        0.0694
     45 H          -8.7528   -2.3257    2.0981 H       1  UNL1        0.0473
     46 H          -9.7680   -1.9632    0.6152 H       1  UNL1        0.0473
     47 H          -8.2400   -2.8988    0.4590 H       1  UNL1        0.0473
     48 H          -6.4307   -1.4531   -0.6493 H       1  UNL1        0.0846
     49 H          -5.3125    2.3179   -0.6333 H       1  UNL1        0.1552
     50 H          -4.4416   -0.7037   -4.6699 H       1  UNL1        0.0834
     51 H          -2.5742   -2.1306   -4.8680 H       1  UNL1        0.0279
     52 H          -1.3955   -0.7190   -4.7789 H       1  UNL1        0.0279
     53 H          -1.2445   -2.1042   -3.6690 H       1  UNL1        0.0279
     54 H           0.1248    0.1509   -3.1612 H       1  UNL1        0.0814
     55 H           2.1266   -0.7384   -1.7789 H       1  UNL1        0.1654
     56 H           3.1941   -2.9606    0.2533 H       1  UNL1        0.1549
     57 H           5.2387   -1.7908    2.1871 H       1  UNL1        0.0558
     58 H           5.1937   -2.9624    0.2585 H       1  UNL1        0.0282
     59 H           5.0890   -1.6214   -0.8666 H       1  UNL1        0.0282
     60 H           7.1801   -2.6548   -0.9675 H       1  UNL1        0.0230
     61 H           7.4842   -2.6433    0.7801 H       1  UNL1        0.0230
     62 H           7.5977   -1.1172   -0.2353 H       1  UNL1        0.0230
     63 H           6.8010    0.4882    3.1493 H       1  UNL1        0.0439
     64 H           7.4915   -0.6731    2.0410 H       1  UNL1        0.0439
     65 H           8.7287    1.1542    1.5482 H       1  UNL1        0.0439
     66 H           7.5070    2.3032    2.1010 H       1  UNL1        0.0439
     67 H           8.7044    3.2983   -0.2741 H       1  UNL1        0.0391
     68 H           7.2469    3.6866    0.7133 H       1  UNL1        0.0391
     69 H           7.0885    3.4658   -1.0350 H       1  UNL1        0.0391
     70 H           5.6655    2.2706   -0.9827 H       1  UNL1        0.0439
     71 H           6.0949    0.5112   -1.0476 H       1  UNL1        0.0439
     72 H           4.0704    1.2932    0.5699 H       1  UNL1        0.0439
     73 H           5.3219    2.1640    1.4441 H       1  UNL1        0.0439
     74 H           1.0681   -3.1110    2.5402 H       1  UNL1        0.0637
     75 H          -1.3862   -2.9580    2.4810 H       1  UNL1        0.0618
     76 H          -2.4897   -1.8616    0.6255 H       1  UNL1        0.0624
@<TRIPOS>BOND
     1     1     2    1
     2     2     3    1
     3     3     4    1
     4     4     5   ar
     5     5     6   ar
     6     6     7    1
     7     6     8   ar
     8     8     9   ar
     9     9    10    1
    10    10    11    1
    11    11    12   ar
    12    12    13   ar
    13    13    14   ar
    14    14    15    1
    15    14    16   ar
    16    16    17    1
    17    17    18   ar
    18    18    19   ar
    19    19    20   ar
    20    20    21   ar
    21    21    22    1
    22    22    23   am
    23    23    24    2
    24    23    25    1
    25    25    26    1
    26    26    27    1
    27    25    28    1
    28    28    29    1
    29    29    30    1
    30    30    31    1
    31    31    32    1
    32    31    33    1
    33    33    34    1
    34    21    35   ar
    35    35    36   ar
    36    36    37   ar
    37    37    38   ar
    38    16    39   ar
    39     9     4   ar
    40    39    11   ar
    41    38    17   ar
    42    38    20   ar
    43    34    28    1
    44     1    40    1
    45     1    41    1
    46     1    42    1
    47     2    43    1
    48     2    44    1
    49     7    45    1
    50     7    46    1
    51     7    47    1
    52     8    48    1
    53    10    49    1
    54    13    50    1
    55    15    51    1
    56    15    52    1
    57    15    53    1
    58    18    54    1
    59    19    55    1
    60    22    56    1
    61    25    57    1
    62    26    58    1
    63    26    59    1
    64    27    60    1
    65    27    61    1
    66    27    62    1
    67    29    63    1
    68    29    64    1
    69    30    65    1
    70    30    66    1
    71    32    67    1
    72    32    68    1
    73    32    69    1
    74    33    70    1
    75    33    71    1
    76    34    72    1
    77    34    73    1
    78    35    74    1
    79    36    75    1
    80    37    76    1
