
     RDKit          3D

 76 80  0  0  0  0  0  0  0  0999 V2000
   -7.9329    4.6484    2.2503 C   0  0  0  0  0  0  0  0  0  0  0  0
   -8.2389    3.1827    2.0859 C   0  0  0  0  0  0  0  0  0  0  0  0
   -7.3160    2.6164    1.1839 O   0  0  0  0  0  0  0  0  0  0  0  0
   -7.3624    1.2649    0.8503 C   0  0  0  0  0  0  0  0  0  0  0  0
   -8.2104    0.3289    1.2824 N   0  0  0  0  0  0  0  0  0  0  0  0
   -7.9635   -0.8516    0.7585 N   0  0  0  0  0  0  0  0  0  0  0  0
   -8.7208   -2.0607    1.0306 C   0  0  0  0  0  0  0  0  0  0  0  0
   -6.8937   -0.6753   -0.0614 C   0  0  0  0  0  0  0  0  0  0  0  0
   -6.5004    0.6402   -0.0213 C   0  0  0  0  0  0  0  0  0  0  0  0
   -5.4564    1.2898   -0.7238 N   0  0  0  0  0  0  0  0  0  0  0  0
   -4.5638    0.5868   -1.5778 C   0  0  0  0  0  0  0  0  0  0  0  0
   -4.9533    0.2423   -2.8084 N   0  0  0  0  0  0  0  0  0  0  0  0
   -4.1441   -0.4189   -3.6711 C   0  0  0  0  0  0  0  0  0  0  0  0
   -2.8559   -0.7396   -3.2299 C   0  0  0  0  0  0  0  0  0  0  0  0
   -1.9906   -1.4674   -4.1947 C   0  0  0  0  0  0  0  0  0  0  0  0
   -2.4505   -0.3861   -1.9631 C   0  0  0  0  0  0  0  0  0  0  0  0
   -1.1007   -0.7106   -1.5378 C   0  0  0  0  0  0  0  0  0  0  0  0
    0.0738   -0.3784   -2.2276 C   0  0  0  0  0  0  0  0  0  0  0  0
    1.1210   -0.8308   -1.5223 N   0  0  0  0  0  0  0  0  0  0  0  0
    0.7062   -1.4462   -0.4004 C   0  0  0  0  0  0  0  0  0  0  0  0
    1.3269   -2.0690    0.6557 C   0  0  0  0  0  0  0  0  0  0  0  0
    2.7414   -2.1431    0.6699 N   0  0  0  0  0  0  0  0  0  0  0  0
    3.5194   -1.1020    1.2497 C   0  0  0  0  0  0  0  0  0  0  0  0
    2.8720   -0.1471    1.7371 O   0  0  0  0  0  0  0  0  0  0  0  0
    5.0383   -1.1386    1.2769 C   0  0  1  0  0  0  0  0  0  0  0  0
    5.5508   -1.8828    0.1075 C   0  0  0  0  0  0  0  0  0  0  0  0
    7.0379   -2.0238   -0.0275 C   0  0  0  0  0  0  0  0  0  0  0  0
    5.5351    0.1337    1.5921 N   0  0  0  0  0  0  0  0  0  0  0  0
    6.8782    0.2372    2.0362 C   0  0  0  0  0  0  0  0  0  0  0  0
    7.6349    1.3908    1.4441 C   0  0  0  0  0  0  0  0  0  0  0  0
    7.3642    1.6847    0.0838 N   0  0  0  0  0  0  0  0  0  0  0  0
    7.6286    3.1044   -0.1327 C   0  0  0  0  0  0  0  0  0  0  0  0
    6.0310    1.4003   -0.3795 C   0  0  0  0  0  0  0  0  0  0  0  0
    5.1232    1.2511    0.7921 C   0  0  0  0  0  0  0  0  0  0  0  0
    0.6122   -2.6124    1.6888 C   0  0  0  0  0  0  0  0  0  0  0  0
   -0.7656   -2.5415    1.6836 C   0  0  0  0  0  0  0  0  0  0  0  0
   -1.3908   -1.9239    0.6375 C   0  0  0  0  0  0  0  0  0  0  0  0
   -0.6834   -1.3733   -0.4066 C   0  0  0  0  0  0  0  0  0  0  0  0
   -3.3065    0.2622   -1.1734 N   0  0  0  0  0  0  0  0  0  0  0  0
   -6.8901    4.8937    1.9231 H   0  0  0  0  0  0  0  0  0  0  0  0
   -7.9987    4.9423    3.3379 H   0  0  0  0  0  0  0  0  0  0  0  0
   -8.6309    5.3124    1.7207 H   0  0  0  0  0  0  0  0  0  0  0  0
   -8.1693    2.6675    3.0682 H   0  0  0  0  0  0  0  0  0  0  0  0
   -9.2874    3.1297    1.6873 H   0  0  0  0  0  0  0  0  0  0  0  0
   -8.7528   -2.3257    2.0981 H   0  0  0  0  0  0  0  0  0  0  0  0
   -9.7680   -1.9632    0.6152 H   0  0  0  0  0  0  0  0  0  0  0  0
   -8.2400   -2.8988    0.4590 H   0  0  0  0  0  0  0  0  0  0  0  0
   -6.4307   -1.4531   -0.6493 H   0  0  0  0  0  0  0  0  0  0  0  0
   -5.3125    2.3179   -0.6333 H   0  0  0  0  0  0  0  0  0  0  0  0
   -4.4416   -0.7037   -4.6699 H   0  0  0  0  0  0  0  0  0  0  0  0
   -2.5742   -2.1306   -4.8680 H   0  0  0  0  0  0  0  0  0  0  0  0
   -1.3955   -0.7190   -4.7789 H   0  0  0  0  0  0  0  0  0  0  0  0
   -1.2445   -2.1042   -3.6690 H   0  0  0  0  0  0  0  0  0  0  0  0
    0.1248    0.1509   -3.1612 H   0  0  0  0  0  0  0  0  0  0  0  0
    2.1266   -0.7384   -1.7789 H   0  0  0  0  0  0  0  0  0  0  0  0
    3.1941   -2.9606    0.2533 H   0  0  0  0  0  0  0  0  0  0  0  0
    5.2387   -1.7908    2.1871 H   0  0  0  0  0  0  0  0  0  0  0  0
    5.1937   -2.9624    0.2585 H   0  0  0  0  0  0  0  0  0  0  0  0
    5.0890   -1.6214   -0.8666 H   0  0  0  0  0  0  0  0  0  0  0  0
    7.1801   -2.6548   -0.9675 H   0  0  0  0  0  0  0  0  0  0  0  0
    7.4842   -2.6433    0.7801 H   0  0  0  0  0  0  0  0  0  0  0  0
    7.5977   -1.1172   -0.2353 H   0  0  0  0  0  0  0  0  0  0  0  0
    6.8010    0.4882    3.1493 H   0  0  0  0  0  0  0  0  0  0  0  0
    7.4915   -0.6731    2.0410 H   0  0  0  0  0  0  0  0  0  0  0  0
    8.7287    1.1542    1.5482 H   0  0  0  0  0  0  0  0  0  0  0  0
    7.5070    2.3032    2.1010 H   0  0  0  0  0  0  0  0  0  0  0  0
    8.7044    3.2983   -0.2741 H   0  0  0  0  0  0  0  0  0  0  0  0
    7.2469    3.6866    0.7133 H   0  0  0  0  0  0  0  0  0  0  0  0
    7.0885    3.4658   -1.0350 H   0  0  0  0  0  0  0  0  0  0  0  0
    5.6655    2.2706   -0.9827 H   0  0  0  0  0  0  0  0  0  0  0  0
    6.0949    0.5112   -1.0476 H   0  0  0  0  0  0  0  0  0  0  0  0
    4.0704    1.2932    0.5699 H   0  0  0  0  0  0  0  0  0  0  0  0
    5.3219    2.1640    1.4441 H   0  0  0  0  0  0  0  0  0  0  0  0
    1.0681   -3.1110    2.5402 H   0  0  0  0  0  0  0  0  0  0  0  0
   -1.3862   -2.9580    2.4810 H   0  0  0  0  0  0  0  0  0  0  0  0
   -2.4897   -1.8616    0.6255 H   0  0  0  0  0  0  0  0  0  0  0  0
  1  2  1  0
  2  3  1  0
  3  4  1  0
  4  5  2  0
  5  6  1  0
  6  7  1  0
  6  8  1  0
  8  9  2  0
  9 10  1  0
 10 11  1  0
 11 12  2  0
 12 13  1  0
 13 14  2  0
 14 15  1  0
 14 16  1  0
 16 17  1  0
 17 18  2  0
 18 19  1  0
 19 20  1  0
 20 21  2  0
 21 22  1  0
 22 23  1  0
 23 24  2  0
 23 25  1  0
 25 26  1  0
 26 27  1  0
 25 28  1  0
 28 29  1  0
 29 30  1  0
 30 31  1  0
 31 32  1  0
 31 33  1  0
 33 34  1  0
 21 35  1  0
 35 36  2  0
 36 37  1  0
 37 38  2  0
 16 39  2  0
  9  4  1  0
 39 11  1  0
 38 17  1  0
 38 20  1  0
 34 28  1  0
  1 40  1  0
  1 41  1  0
  1 42  1  0
  2 43  1  0
  2 44  1  0
  7 45  1  0
  7 46  1  0
  7 47  1  0
  8 48  1  0
 10 49  1  0
 13 50  1  0
 15 51  1  0
 15 52  1  0
 15 53  1  0
 18 54  1  0
 19 55  1  0
 22 56  1  0
 25 57  1  1
 26 58  1  0
 26 59  1  0
 27 60  1  0
 27 61  1  0
 27 62  1  0
 29 63  1  0
 29 64  1  0
 30 65  1  0
 30 66  1  0
 32 67  1  0
 32 68  1  0
 32 69  1  0
 33 70  1  0
 33 71  1  0
 34 72  1  0
 34 73  1  0
 35 74  1  0
 36 75  1  0
 37 76  1  0
M  END
$$$$
