@<TRIPOS>MOLECULE
*****
 77 80 0 0 0
SMALL
GASTEIGER

@<TRIPOS>ATOM
      1 C           3.1477   -1.9336   -4.7852 C.3     1  UNL1       -0.0306
      2 C           3.6751   -2.6413   -3.5673 C.3     1  UNL1        0.0897
      3 O           3.4316   -1.9485   -2.3804 O.3     1  UNL1       -0.4647
      4 C           3.8662   -0.6872   -2.0489 C.2     1  UNL1        0.3102
      5 O           4.3856   -0.7326   -3.1702 O.2     1  UNL1       -0.2505
      6 C           3.3417   -0.3675   -0.6498 C.3     1  UNL1        0.0577
      7 C           4.0003   -1.3425    0.2359 C.3     1  UNL1       -0.0361
      8 C           5.5223   -1.1555    0.1081 C.3     1  UNL1       -0.0269
      9 C           5.9703    0.1961    0.4935 C.ar    1  UNL1       -0.0473
     10 C           6.1478    1.2822   -0.3364 C.ar    1  UNL1       -0.0586
     11 C           6.5632    2.5454    0.0283 C.ar    1  UNL1       -0.0615
     12 C           6.8277    2.7302    1.3801 C.ar    1  UNL1       -0.0617
     13 C           6.6704    1.6745    2.2840 C.ar    1  UNL1       -0.0615
     14 C           6.2465    0.4206    1.8461 C.ar    1  UNL1       -0.0586
     15 C           1.8822   -0.3742   -0.7924 C.3     1  UNL1       -0.0261
     16 C           0.9882   -0.1320    0.3420 C.3     1  UNL1        0.0477
     17 C           1.1491    1.1555    1.0560 C.3     1  UNL1       -0.0390
     18 C           1.1244    0.8129    2.5076 C.3     1  UNL1       -0.0521
     19 C           1.2091   -0.6658    2.6849 C.3     1  UNL1       -0.0521
     20 C           0.9830   -1.2761    1.3115 C.3     1  UNL1       -0.0390
     21 C          -0.4517   -0.0945   -0.1917 C.2     1  UNL1        0.2198
     22 O          -0.3042   -0.2079   -1.4515 O.2     1  UNL1       -0.2752
     23 N          -1.6151    0.0347    0.5771 N.am    1  UNL1       -0.3035
     24 C          -2.8658    0.0510   -0.1256 C.3     1  UNL1        0.1002
     25 C          -3.6702   -1.2234    0.0467 C.3     1  UNL1       -0.0219
     26 C          -4.6125   -1.3069   -1.1636 C.3     1  UNL1       -0.0238
     27 C          -5.9283   -0.7038   -0.8238 C.ar    1  UNL1       -0.0259
     28 C          -7.0335   -1.4559   -1.1735 C.ar    1  UNL1       -0.0568
     29 C          -8.3158   -0.9993   -0.8949 C.ar    1  UNL1       -0.0614
     30 C          -8.4646    0.2095   -0.2689 C.ar    1  UNL1       -0.0600
     31 C          -7.3308    0.9514    0.0739 C.ar    1  UNL1       -0.0400
     32 C          -6.0444    0.5205   -0.1905 C.ar    1  UNL1        0.0401
     33 N          -5.0929    1.5011    0.2789 N.am    1  UNL1       -0.2589
     34 C          -5.5698    2.7289    0.8448 C.3     1  UNL1        0.1168
     35 C          -5.8117    2.6346    2.3066 C.2     1  UNL1        0.3227
     36 O          -6.0943    2.7350    3.6395 O.3     1  UNL1       -0.4795
     37 O          -5.3972    1.4335    2.2167 O.2     1  UNL1       -0.2492
     38 C          -3.6722    1.2515    0.1977 C.2     1  UNL1        0.2406
     39 O          -2.9983    2.2924    0.4642 O.2     1  UNL1       -0.2732
     40 H           2.4585   -2.5606   -5.3991 H       1  UNL1        0.0262
     41 H           3.9538   -1.6311   -5.4778 H       1  UNL1        0.0262
     42 H           2.5273   -1.0653   -4.4720 H       1  UNL1        0.0262
     43 H           3.1191   -3.6229   -3.4950 H       1  UNL1        0.0694
     44 H           4.7378   -2.9372   -3.7220 H       1  UNL1        0.0694
     45 H           3.7806    0.6565   -0.4792 H       1  UNL1        0.0414
     46 H           3.8209   -1.1794    1.3248 H       1  UNL1        0.0276
     47 H           3.7826   -2.3720   -0.0752 H       1  UNL1        0.0276
     48 H           6.0552   -1.9105    0.7312 H       1  UNL1        0.0313
     49 H           5.8708   -1.3424   -0.9311 H       1  UNL1        0.0313
     50 H           5.9493    1.1411   -1.3785 H       1  UNL1        0.0620
     51 H           6.6700    3.3281   -0.7203 H       1  UNL1        0.0618
     52 H           7.1549    3.7272    1.6683 H       1  UNL1        0.0618
     53 H           6.8931    1.8855    3.3336 H       1  UNL1        0.0618
     54 H           6.1589   -0.3206    2.6192 H       1  UNL1        0.0620
     55 H           1.6394    0.4204   -1.5714 H       1  UNL1        0.0283
     56 H           1.5903   -1.3226   -1.2991 H       1  UNL1        0.0283
     57 H           2.0589    1.7290    0.7622 H       1  UNL1        0.0275
     58 H           0.3135    1.8481    0.8378 H       1  UNL1        0.0275
     59 H           1.9736    1.2933    3.0478 H       1  UNL1        0.0266
     60 H           0.2175    1.2573    2.9936 H       1  UNL1        0.0266
     61 H           2.1965   -1.0070    3.0407 H       1  UNL1        0.0266
     62 H           0.4567   -1.0604    3.4035 H       1  UNL1        0.0266
     63 H          -0.0123   -1.8344    1.3145 H       1  UNL1        0.0275
     64 H           1.6961   -2.0875    1.0693 H       1  UNL1        0.0275
     65 H          -1.4219    0.1066    1.5974 H       1  UNL1        0.1495
     66 H          -2.6226    0.0924   -1.2132 H       1  UNL1        0.0595
     67 H          -2.9526   -2.0547   -0.0676 H       1  UNL1        0.0291
     68 H          -4.2577   -1.2419    0.9770 H       1  UNL1        0.0291
     69 H          -4.7551   -2.3567   -1.4615 H       1  UNL1        0.0314
     70 H          -4.1712   -0.7024   -1.9765 H       1  UNL1        0.0314
     71 H          -6.8170   -2.4103   -1.6706 H       1  UNL1        0.0621
     72 H          -9.0843   -1.6926   -1.2286 H       1  UNL1        0.0618
     73 H          -9.4789    0.4943   -0.0916 H       1  UNL1        0.0618
     74 H          -7.5417    1.8702    0.5592 H       1  UNL1        0.0636
     75 H          -4.6416    3.3987    0.8217 H       1  UNL1        0.0584
     76 H          -6.2714    3.3212    0.2732 H       1  UNL1        0.0584
     77 H          -6.9061    2.2304    4.0062 H       1  UNL1        0.2951
@<TRIPOS>BOND
     1     1     2    1
     2     2     3    1
     3     3     4    1
     4     4     5    2
     5     4     6    1
     6     6     7    1
     7     7     8    1
     8     8     9    1
     9     9    10   ar
    10    10    11   ar
    11    11    12   ar
    12    12    13   ar
    13    13    14   ar
    14     6    15    1
    15    15    16    1
    16    16    17    1
    17    17    18    1
    18    18    19    1
    19    19    20    1
    20    16    21    1
    21    21    22    2
    22    21    23   am
    23    23    24    1
    24    24    25    1
    25    25    26    1
    26    26    27    1
    27    27    28   ar
    28    28    29   ar
    29    29    30   ar
    30    30    31   ar
    31    31    32   ar
    32    32    33    1
    33    33    34    1
    34    34    35    1
    35    35    36    1
    36    35    37    2
    37    33    38   am
    38    38    39    2
    39    14     9   ar
    40    20    16    1
    41    38    24    1
    42    32    27   ar
    43     1    40    1
    44     1    41    1
    45     1    42    1
    46     2    43    1
    47     2    44    1
    48     6    45    1
    49     7    46    1
    50     7    47    1
    51     8    48    1
    52     8    49    1
    53    10    50    1
    54    11    51    1
    55    12    52    1
    56    13    53    1
    57    14    54    1
    58    15    55    1
    59    15    56    1
    60    17    57    1
    61    17    58    1
    62    18    59    1
    63    18    60    1
    64    19    61    1
    65    19    62    1
    66    20    63    1
    67    20    64    1
    68    23    65    1
    69    24    66    1
    70    25    67    1
    71    25    68    1
    72    26    69    1
    73    26    70    1
    74    28    71    1
    75    29    72    1
    76    30    73    1
    77    31    74    1
    78    34    75    1
    79    34    76    1
    80    36    77    1
