@<TRIPOS>MOLECULE
*****
 54 56 0 0 0
SMALL
GASTEIGER

@<TRIPOS>ATOM
      1 C          -5.5646    0.7685   -0.0382 C.3     1  UNL1       -0.0288
      2 C          -4.6296    0.2528    1.0247 C.3     1  UNL1        0.1831
      3 C          -5.4517   -0.1607    2.2241 C.3     1  UNL1       -0.0288
      4 C          -3.8007   -0.8610    0.5209 C.2     1  UNL1        0.3067
      5 N          -4.0800   -2.1908    0.8760 N.pl3   1  UNL1       -0.2488
      6 N          -2.8226   -0.5962   -0.2459 N.2     1  UNL1       -0.0727
      7 C          -2.3619    0.6495   -0.7305 C.3     1  UNL1        0.1959
      8 C          -3.0026    1.0376   -2.0596 C.3     1  UNL1       -0.0112
      9 C          -0.8975    0.4474   -1.0734 C.ar    1  UNL1        0.0420
     10 C          -0.2577   -0.7376   -0.9026 C.ar    1  UNL1       -0.0305
     11 C           1.1060   -0.8404   -1.2425 C.ar    1  UNL1        0.0280
     12 N           1.7379   -2.0938   -1.0736 N.pl3   1  UNL1       -0.3381
     13 C           3.1260   -2.3317   -1.3030 C.3     1  UNL1        0.0546
     14 C           3.9787   -1.7463   -0.2670 C.ar    1  UNL1        0.0982
     15 N           4.7584   -0.6728   -0.3755 N.ar    1  UNL1       -0.1728
     16 N           5.4130   -0.4177    0.7349 N.ar    1  UNL1       -0.2611
     17 C           6.3384    0.6738    0.9483 C.3     1  UNL1        0.1365
     18 C           7.7234    0.1977    0.5671 C.3     1  UNL1        0.4089
     19 F           8.6706    1.1886    0.7440 F       1  UNL1       -0.1687
     20 F           8.0329   -0.9228    1.2897 F       1  UNL1       -0.1687
     21 F           7.6417   -0.2011   -0.7663 F       1  UNL1       -0.1687
     22 C           5.0496   -1.3672    1.6204 C.ar    1  UNL1        0.0445
     23 C           4.1518   -2.2233    1.0388 C.ar    1  UNL1        0.0831
     24 CL          3.3474   -3.6206    1.6900 Cl      1  UNL1       -0.0800
     25 C           1.7723    0.2495   -1.7408 C.ar    1  UNL1       -0.0381
     26 C           1.0705    1.4345   -1.8945 C.ar    1  UNL1       -0.0243
     27 C          -0.2554    1.5641   -1.5721 C.ar    1  UNL1        0.1311
     28 F          -0.9152    2.7583   -1.7402 F       1  UNL1       -0.2050
     29 C          -2.3847    1.8119    0.2039 C.3     1  UNL1        0.1183
     30 S          -3.4675    1.4960    1.5576 S.O2    1  UNL1       -0.0101
     31 O          -2.6547    0.8690    2.6777 O.2     1  UNL1       -0.1731
     32 O          -4.1643    2.7325    2.0391 O.2     1  UNL1       -0.1731
     33 H          -6.6279    0.7760    0.3194 H       1  UNL1        0.0256
     34 H          -5.3192    1.8139   -0.3161 H       1  UNL1        0.0256
     35 H          -5.5405    0.1697   -0.9682 H       1  UNL1        0.0256
     36 H          -6.1502   -0.9737    1.8993 H       1  UNL1        0.0256
     37 H          -6.0479    0.6979    2.5358 H       1  UNL1        0.0256
     38 H          -4.8157   -0.5069    3.0529 H       1  UNL1        0.0256
     39 H          -4.0885   -2.5291    1.8739 H       1  UNL1        0.2881
     40 H          -4.2940   -2.9051    0.1414 H       1  UNL1        0.2881
     41 H          -3.6617    0.2525   -2.4560 H       1  UNL1        0.0279
     42 H          -2.2581    1.2550   -2.8511 H       1  UNL1        0.0279
     43 H          -3.5423    2.0173   -1.9083 H       1  UNL1        0.0279
     44 H          -0.7847   -1.5951   -0.5104 H       1  UNL1        0.0641
     45 H           1.1577   -2.9351   -0.7534 H       1  UNL1        0.1465
     46 H           3.3743   -1.8512   -2.2909 H       1  UNL1        0.0527
     47 H           3.3707   -3.4077   -1.4219 H       1  UNL1        0.0527
     48 H           6.3109    0.9838    2.0202 H       1  UNL1        0.0598
     49 H           6.0197    1.5217    0.3220 H       1  UNL1        0.0598
     50 H           5.3995   -1.4615    2.6423 H       1  UNL1        0.0841
     51 H           2.8299    0.1947   -2.0289 H       1  UNL1        0.0637
     52 H           1.6186    2.2905   -2.2923 H       1  UNL1        0.0647
     53 H          -2.7780    2.7157   -0.3497 H       1  UNL1        0.0550
     54 H          -1.3805    2.0709    0.6085 H       1  UNL1        0.0550
@<TRIPOS>BOND
     1     1     2    1
     2     2     3    1
     3     2     4    1
     4     4     5    1
     5     4     6    2
     6     6     7    1
     7     7     8    1
     8     7     9    1
     9     9    10   ar
    10    10    11   ar
    11    11    12    1
    12    12    13    1
    13    13    14    1
    14    14    15   ar
    15    15    16   ar
    16    16    17    1
    17    17    18    1
    18    18    19    1
    19    18    20    1
    20    18    21    1
    21    16    22   ar
    22    22    23   ar
    23    23    24    1
    24    11    25   ar
    25    25    26   ar
    26    26    27   ar
    27    27    28    1
    28     7    29    1
    29    29    30    1
    30    30    31    2
    31    30    32    2
    32    30     2    1
    33    27     9   ar
    34    23    14   ar
    35     1    33    1
    36     1    34    1
    37     1    35    1
    38     3    36    1
    39     3    37    1
    40     3    38    1
    41     5    39    1
    42     5    40    1
    43     8    41    1
    44     8    42    1
    45     8    43    1
    46    10    44    1
    47    12    45    1
    48    13    46    1
    49    13    47    1
    50    17    48    1
    51    17    49    1
    52    22    50    1
    53    25    51    1
    54    26    52    1
    55    29    53    1
    56    29    54    1
