@<TRIPOS>MOLECULE
*****
 61 68 0 0 0
SMALL
GASTEIGER

@<TRIPOS>ATOM
      1 C           4.8820    1.9163    0.8664 C.3     1  UNL1       -0.0155
      2 N           4.2369    0.6150    0.9136 N.3     1  UNL1       -0.3136
      3 C           3.1728    0.6276   -0.0601 C.3     1  UNL1        0.0423
      4 C           2.1465    1.7025    0.2259 C.3     1  UNL1        0.0107
      5 C           1.1637    1.7015   -0.8976 C.3     1  UNL1        0.1402
      6 O           1.2687    0.6614   -1.7648 O.3     1  UNL1       -0.3282
      7 C           1.4636   -0.6074   -1.2514 C.3     1  UNL1        0.1741
      8 C           2.1383   -1.3556   -2.4195 C.3     1  UNL1       -0.0136
      9 C           2.4158   -0.6837   -0.0970 C.3     1  UNL1        0.1214
     10 O           1.6524   -0.7145    1.0932 O.3     1  UNL1       -0.3735
     11 C           1.9860   -1.8250    1.8635 C.3     1  UNL1        0.0371
     12 N           0.2181   -1.1898   -0.8524 N.ar    1  UNL1       -0.3070
     13 C          -0.1221   -2.4969   -0.8412 C.ar    1  UNL1        0.0527
     14 C           0.5797   -3.6387   -1.1509 C.ar    1  UNL1       -0.0375
     15 C           0.0053   -4.9014   -1.0478 C.ar    1  UNL1       -0.0598
     16 C          -1.2966   -5.0135   -0.6249 C.ar    1  UNL1       -0.0611
     17 C          -2.0438   -3.8850   -0.2998 C.ar    1  UNL1       -0.0520
     18 C          -1.4348   -2.6643   -0.4174 C.ar    1  UNL1        0.0081
     19 C          -1.9062   -1.4133   -0.1582 C.ar    1  UNL1        0.0151
     20 C          -3.1413   -0.9384    0.3061 C.ar    1  UNL1       -0.0078
     21 C          -3.3626    0.4071    0.5046 C.ar    1  UNL1        0.0518
     22 C          -2.3136    1.2730    0.2268 C.ar    1  UNL1        0.0221
     23 C          -2.1914    2.6451    0.3269 C.ar    1  UNL1        0.0085
     24 C          -3.0145    3.6626    0.7088 C.ar    1  UNL1       -0.0520
     25 C          -2.5290    4.9654    0.6801 C.ar    1  UNL1       -0.0611
     26 C          -1.2428    5.2387    0.2758 C.ar    1  UNL1       -0.0598
     27 C          -0.4143    4.2287   -0.1071 C.ar    1  UNL1       -0.0375
     28 C          -0.8793    2.9271   -0.0851 C.ar    1  UNL1        0.0524
     29 N          -0.2350    1.8132   -0.4172 N.ar    1  UNL1       -0.3115
     30 C          -1.1060    0.8194   -0.2274 C.ar    1  UNL1        0.0774
     31 C          -0.8987   -0.5290   -0.4231 C.ar    1  UNL1        0.0772
     32 C          -4.7223    0.5702    0.9838 C.2     1  UNL1        0.2453
     33 O          -5.3415    1.6066    1.2897 O.2     1  UNL1       -0.2702
     34 N          -5.3123   -0.7305    1.0668 N.am    1  UNL1       -0.3072
     35 C          -4.3546   -1.7245    0.6450 C.3     1  UNL1        0.0385
     36 H           4.8115    2.3313   -0.1640 H       1  UNL1        0.0388
     37 H           4.3716    2.5830    1.6033 H       1  UNL1        0.0388
     38 H           5.9514    1.7978    1.1066 H       1  UNL1        0.0388
     39 H           4.9357   -0.0929    0.5859 H       1  UNL1        0.1220
     40 H           3.5657    0.8001   -1.0841 H       1  UNL1        0.0489
     41 H           2.7001    2.6540    0.3471 H       1  UNL1        0.0325
     42 H           1.6604    1.4169    1.1912 H       1  UNL1        0.0325
     43 H           1.3239    2.6384   -1.4795 H       1  UNL1        0.0839
     44 H           1.4211   -1.8954   -3.0370 H       1  UNL1        0.0277
     45 H           3.0419   -1.9023   -2.0944 H       1  UNL1        0.0277
     46 H           2.5831   -0.5919   -3.1532 H       1  UNL1        0.0277
     47 H           3.1025   -1.5545   -0.1382 H       1  UNL1        0.0660
     48 H           3.0645   -1.8156    2.1510 H       1  UNL1        0.0524
     49 H           1.7523   -2.7676    1.3540 H       1  UNL1        0.0524
     50 H           1.4236   -1.7282    2.8135 H       1  UNL1        0.0524
     51 H           1.6022   -3.5447   -1.4603 H       1  UNL1        0.0638
     52 H           0.6388   -5.7358   -1.3148 H       1  UNL1        0.0618
     53 H          -1.7355   -5.9781   -0.5464 H       1  UNL1        0.0618
     54 H          -3.0516   -3.9379    0.0305 H       1  UNL1        0.0624
     55 H          -4.0017    3.5060    1.0243 H       1  UNL1        0.0624
     56 H          -3.1792    5.7638    0.9812 H       1  UNL1        0.0618
     57 H          -0.8421    6.2510    0.2456 H       1  UNL1        0.0618
     58 H           0.5882    4.4457   -0.4218 H       1  UNL1        0.0638
     59 H          -6.2895   -0.9744    1.3808 H       1  UNL1        0.1493
     60 H          -4.1744   -2.4414    1.4802 H       1  UNL1        0.0512
     61 H          -4.7314   -2.2973   -0.2356 H       1  UNL1        0.0512
@<TRIPOS>BOND
     1     1     2    1
     2     2     3    1
     3     3     4    1
     4     4     5    1
     5     5     6    1
     6     6     7    1
     7     7     8    1
     8     7     9    1
     9     9    10    1
    10    10    11    1
    11     7    12    1
    12    12    13   ar
    13    13    14   ar
    14    14    15   ar
    15    15    16   ar
    16    16    17   ar
    17    17    18   ar
    18    18    19   ar
    19    19    20   ar
    20    20    21   ar
    21    21    22   ar
    22    22    23   ar
    23    23    24   ar
    24    24    25   ar
    25    25    26   ar
    26    26    27   ar
    27    27    28   ar
    28    28    29   ar
    29    29    30   ar
    30    30    31   ar
    31    21    32    1
    32    32    33    2
    33    32    34   am
    34    34    35    1
    35     9     3    1
    36    31    12   ar
    37    29     5    1
    38    18    13   ar
    39    31    19   ar
    40    35    20    1
    41    30    22   ar
    42    28    23   ar
    43     1    36    1
    44     1    37    1
    45     1    38    1
    46     2    39    1
    47     3    40    1
    48     4    41    1
    49     4    42    1
    50     5    43    1
    51     8    44    1
    52     8    45    1
    53     8    46    1
    54     9    47    1
    55    11    48    1
    56    11    49    1
    57    11    50    1
    58    14    51    1
    59    15    52    1
    60    16    53    1
    61    17    54    1
    62    24    55    1
    63    25    56    1
    64    26    57    1
    65    27    58    1
    66    34    59    1
    67    35    60    1
    68    35    61    1
