@<TRIPOS>MOLECULE
*****
 56 58 0 0 0
SMALL
GASTEIGER

@<TRIPOS>ATOM
      1 C           4.9777    1.5911    1.4562 C.3     1  UNL1       -0.0374
      2 C           5.2781    0.4801    0.5171 C.ar    1  UNL1       -0.0165
      3 C           6.5824    0.4043    0.0067 C.ar    1  UNL1       -0.0131
      4 C           6.9490   -0.6279   -0.8272 C.ar    1  UNL1        0.1452
      5 O           8.2405   -0.6670   -1.3081 O.3     1  UNL1       -0.4327
      6 C           8.8156   -1.6088   -2.1536 C.3     1  UNL1        0.3893
      7 F           9.2553   -1.0569   -3.3497 F       1  UNL1       -0.1663
      8 F           9.8980   -2.2475   -1.5318 F       1  UNL1       -0.1663
      9 C           5.9660   -1.5483   -1.1100 C.ar    1  UNL1        0.0703
     10 N           4.7351   -1.4520   -0.6126 N.ar    1  UNL1       -0.2465
     11 C           4.3221   -0.4363    0.2249 C.ar    1  UNL1        0.1288
     12 C           2.9352   -0.4373    0.6345 C.2     1  UNL1        0.2668
     13 O           2.3066   -1.5838    0.6125 O.2     1  UNL1       -0.2682
     14 N           2.1710    0.6693    1.0550 N.am    1  UNL1       -0.2802
     15 C           0.7830    0.4667    1.4406 C.ar    1  UNL1        0.0343
     16 C           0.4875    0.1797    2.7516 C.ar    1  UNL1       -0.0377
     17 C          -0.8326   -0.0064    3.0844 C.ar    1  UNL1       -0.0243
     18 C          -1.8290    0.0905    2.1389 C.ar    1  UNL1        0.1312
     19 F          -3.1219   -0.1060    2.4919 F       1  UNL1       -0.2050
     20 C          -1.5588    0.3782    0.8145 C.ar    1  UNL1        0.0448
     21 C          -2.6110    0.5006   -0.2345 C.3     1  UNL1        0.2263
     22 C          -1.9478    0.7535   -1.5994 C.3     1  UNL1        0.1433
     23 F          -2.9150    0.8689   -2.5763 F       1  UNL1       -0.2438
     24 C          -3.4679    1.6806    0.1437 C.3     1  UNL1        0.1211
     25 S          -5.0293    1.5975   -0.6940 S.O2    1  UNL1       -0.0100
     26 O          -5.0003    2.2968   -2.0230 O.2     1  UNL1       -0.1731
     27 O          -6.0302    2.3257    0.1558 O.2     1  UNL1       -0.1731
     28 C          -5.4735   -0.0925   -0.9501 C.3     1  UNL1        0.1831
     29 C          -6.7203   -0.3475   -0.1178 C.3     1  UNL1       -0.0288
     30 C          -5.8602   -0.3525   -2.3907 C.3     1  UNL1       -0.0288
     31 C          -4.4476   -1.0378   -0.5541 C.2     1  UNL1        0.3068
     32 N          -4.8361   -2.4274   -0.4933 N.pl3   1  UNL1       -0.2488
     33 N          -3.2813   -0.7527   -0.2677 N.2     1  UNL1       -0.0698
     34 C          -0.2332    0.5626    0.4918 C.ar    1  UNL1       -0.0300
     35 H           5.9945    1.8958    1.9025 H       1  UNL1        0.0278
     36 H           4.6668    2.5174    0.9441 H       1  UNL1        0.0278
     37 H           4.4111    1.2919    2.3345 H       1  UNL1        0.0278
     38 H           7.3161    1.1676    0.2700 H       1  UNL1        0.0658
     39 H           8.0882   -2.3747   -2.4210 H       1  UNL1        0.1520
     40 H           6.2088   -2.3769   -1.7602 H       1  UNL1        0.0867
     41 H           2.5723    1.6197    1.0689 H       1  UNL1        0.1552
     42 H           1.2777    0.1039    3.4958 H       1  UNL1        0.0637
     43 H          -1.0839   -0.2308    4.0998 H       1  UNL1        0.0647
     44 H          -1.3962    1.7140   -1.5849 H       1  UNL1        0.0666
     45 H          -1.2297   -0.0535   -1.8340 H       1  UNL1        0.0666
     46 H          -3.6492    1.6802    1.2171 H       1  UNL1        0.0551
     47 H          -2.9773    2.6151   -0.2039 H       1  UNL1        0.0551
     48 H          -6.7595   -1.4209    0.1512 H       1  UNL1        0.0256
     49 H          -6.6019    0.2182    0.8309 H       1  UNL1        0.0256
     50 H          -7.6362    0.0065   -0.6021 H       1  UNL1        0.0256
     51 H          -6.6468   -1.1338   -2.3909 H       1  UNL1        0.0256
     52 H          -6.1900    0.5692   -2.9117 H       1  UNL1        0.0256
     53 H          -4.9812   -0.8310   -2.8882 H       1  UNL1        0.0256
     54 H          -5.1505   -2.8711   -1.3622 H       1  UNL1        0.2881
     55 H          -4.7974   -2.9561    0.4002 H       1  UNL1        0.2881
     56 H           0.0575    0.7916   -0.5270 H       1  UNL1        0.0641
@<TRIPOS>BOND
     1     1     2    1
     2     2     3   ar
     3     3     4   ar
     4     4     5    1
     5     5     6    1
     6     6     7    1
     7     6     8    1
     8     4     9   ar
     9     9    10   ar
    10    10    11   ar
    11    11    12    1
    12    12    13    2
    13    12    14   am
    14    14    15    1
    15    15    16   ar
    16    16    17   ar
    17    17    18   ar
    18    18    19    1
    19    18    20   ar
    20    20    21    1
    21    21    22    1
    22    22    23    1
    23    21    24    1
    24    24    25    1
    25    25    26    2
    26    25    27    2
    27    25    28    1
    28    28    29    1
    29    28    30    1
    30    28    31    1
    31    31    32    1
    32    31    33    2
    33    20    34   ar
    34    11     2   ar
    35    34    15   ar
    36    33    21    1
    37     1    35    1
    38     1    36    1
    39     1    37    1
    40     3    38    1
    41     6    39    1
    42     9    40    1
    43    14    41    1
    44    16    42    1
    45    17    43    1
    46    22    44    1
    47    22    45    1
    48    24    46    1
    49    24    47    1
    50    29    48    1
    51    29    49    1
    52    29    50    1
    53    30    51    1
    54    30    52    1
    55    30    53    1
    56    32    54    1
    57    32    55    1
    58    34    56    1
