@<TRIPOS>MOLECULE
*****
 47 50 0 0 0
SMALL
GASTEIGER

@<TRIPOS>ATOM
      1 C          -0.1455   -3.6547    1.3978 C.3     1  UNL1       -0.0260
      2 C           0.7108   -2.4857    1.7122 C.2     1  UNL1        0.0161
      3 C           0.3371   -1.2589    1.3710 C.2     1  UNL1        0.0392
      4 C          -0.9229   -1.0551    0.6814 C.2     1  UNL1        0.2463
      5 O          -1.7283   -1.9816    0.3655 O.2     1  UNL1       -0.2701
      6 N          -1.3243    0.2656    0.3129 N.am    1  UNL1       -0.2816
      7 C          -2.5405    0.5282   -0.3601 C.ar    1  UNL1        0.0358
      8 C          -3.6794    0.7787    0.3653 C.ar    1  UNL1       -0.0200
      9 C          -4.9025    1.0429   -0.2638 C.ar    1  UNL1        0.0680
     10 CL         -6.3528    1.3618    0.6455 Cl      1  UNL1       -0.0813
     11 C          -4.9831    1.0559   -1.6377 C.ar    1  UNL1        0.0841
     12 N          -6.0034    1.2752   -2.5135 N.ar    1  UNL1       -0.2755
     13 N          -5.5317    1.1684   -3.7427 N.ar    1  UNL1       -0.1811
     14 C          -4.1992    0.8784   -3.6836 C.ar    1  UNL1        0.0570
     15 C          -3.8320    0.8028   -2.3631 C.ar    1  UNL1        0.0226
     16 C          -2.6148    0.5398   -1.7328 C.ar    1  UNL1       -0.0297
     17 C           1.1748   -0.0960    1.6864 C.3     1  UNL1        0.0238
     18 C           2.0041    0.4161    0.5969 C.ar    1  UNL1       -0.0393
     19 C           2.7662   -0.4330   -0.1660 C.ar    1  UNL1       -0.0574
     20 C           3.5576    0.0678   -1.1958 C.ar    1  UNL1       -0.0498
     21 C           3.6136    1.4100   -1.4931 C.ar    1  UNL1        0.0548
     22 C           4.4505    1.9646   -2.5863 C.3     1  UNL1        0.4174
     23 F           3.6045    2.1697   -3.6765 F       1  UNL1       -0.1659
     24 F           5.5005    1.1479   -2.8807 F       1  UNL1       -0.1659
     25 F           4.9591    3.1922   -2.1613 F       1  UNL1       -0.1659
     26 C           2.8443    2.2727   -0.7241 C.ar    1  UNL1       -0.0498
     27 C           2.0613    1.7731    0.2955 C.ar    1  UNL1       -0.0574
     28 C           2.0737   -0.3475    2.9064 C.3     1  UNL1        0.0353
     29 C           2.7724   -1.6320    2.6791 C.2     1  UNL1        0.2179
     30 O           4.0348   -1.7614    2.7398 O.2     1  UNL1       -0.2754
     31 N           1.9376   -2.7489    2.3805 N.am    1  UNL1       -0.2889
     32 H           0.3032   -4.5956    1.7826 H       1  UNL1        0.0290
     33 H          -1.1069   -3.5407    1.9386 H       1  UNL1        0.0290
     34 H          -0.3094   -3.7907    0.3005 H       1  UNL1        0.0290
     35 H          -0.7286    1.0928    0.5282 H       1  UNL1        0.1551
     36 H          -3.7089    0.7887    1.4462 H       1  UNL1        0.0651
     37 H          -6.9932    1.4915   -2.2797 H       1  UNL1        0.1890
     38 H          -3.5225    0.7283   -4.5048 H       1  UNL1        0.0854
     39 H          -1.7548    0.3504   -2.3670 H       1  UNL1        0.0643
     40 H           0.5419    0.7845    2.0396 H       1  UNL1        0.0404
     41 H           2.7287   -1.4845    0.0561 H       1  UNL1        0.0621
     42 H           4.1453   -0.6131   -1.7794 H       1  UNL1        0.0623
     43 H           2.8958    3.3317   -0.9675 H       1  UNL1        0.0623
     44 H           1.4667    2.4766    0.8836 H       1  UNL1        0.0621
     45 H           1.4295   -0.4679    3.8006 H       1  UNL1        0.0368
     46 H           2.7667    0.5077    2.9904 H       1  UNL1        0.0368
     47 H           2.2038   -3.7168    2.6328 H       1  UNL1        0.1545
@<TRIPOS>BOND
     1     1     2    1
     2     2     3    2
     3     3     4    1
     4     4     5    2
     5     4     6   am
     6     6     7    1
     7     7     8   ar
     8     8     9   ar
     9     9    10    1
    10     9    11   ar
    11    11    12   ar
    12    12    13   ar
    13    13    14   ar
    14    14    15   ar
    15    15    16   ar
    16     3    17    1
    17    17    18    1
    18    18    19   ar
    19    19    20   ar
    20    20    21   ar
    21    21    22    1
    22    22    23    1
    23    22    24    1
    24    22    25    1
    25    21    26   ar
    26    26    27   ar
    27    17    28    1
    28    28    29    1
    29    29    30    2
    30    29    31   am
    31    31     2    1
    32    16     7   ar
    33    27    18   ar
    34    15    11   ar
    35     1    32    1
    36     1    33    1
    37     1    34    1
    38     6    35    1
    39     8    36    1
    40    12    37    1
    41    14    38    1
    42    16    39    1
    43    17    40    1
    44    19    41    1
    45    20    42    1
    46    26    43    1
    47    27    44    1
    48    28    45    1
    49    28    46    1
    50    31    47    1
