
     RDKit          3D

 47 50  0  0  0  0  0  0  0  0999 V2000
   -0.1455   -3.6547    1.3978 C   0  0  0  0  0  0  0  0  0  0  0  0
    0.7108   -2.4857    1.7122 C   0  0  0  0  0  0  0  0  0  0  0  0
    0.3371   -1.2589    1.3710 C   0  0  0  0  0  0  0  0  0  0  0  0
   -0.9229   -1.0551    0.6814 C   0  0  0  0  0  0  0  0  0  0  0  0
   -1.7283   -1.9816    0.3655 O   0  0  0  0  0  0  0  0  0  0  0  0
   -1.3243    0.2656    0.3129 N   0  0  0  0  0  0  0  0  0  0  0  0
   -2.5405    0.5282   -0.3601 C   0  0  0  0  0  0  0  0  0  0  0  0
   -3.6794    0.7787    0.3653 C   0  0  0  0  0  0  0  0  0  0  0  0
   -4.9025    1.0429   -0.2638 C   0  0  0  0  0  0  0  0  0  0  0  0
   -6.3528    1.3618    0.6455 Cl  0  0  0  0  0  0  0  0  0  0  0  0
   -4.9831    1.0559   -1.6377 C   0  0  0  0  0  0  0  0  0  0  0  0
   -6.0034    1.2752   -2.5135 N   0  0  0  0  0  0  0  0  0  0  0  0
   -5.5317    1.1684   -3.7427 N   0  0  0  0  0  0  0  0  0  0  0  0
   -4.1992    0.8784   -3.6836 C   0  0  0  0  0  0  0  0  0  0  0  0
   -3.8320    0.8028   -2.3631 C   0  0  0  0  0  0  0  0  0  0  0  0
   -2.6148    0.5398   -1.7328 C   0  0  0  0  0  0  0  0  0  0  0  0
    1.1748   -0.0960    1.6864 C   0  0  0  0  0  0  0  0  0  0  0  0
    2.0041    0.4161    0.5969 C   0  0  0  0  0  0  0  0  0  0  0  0
    2.7662   -0.4330   -0.1660 C   0  0  0  0  0  0  0  0  0  0  0  0
    3.5576    0.0678   -1.1958 C   0  0  0  0  0  0  0  0  0  0  0  0
    3.6136    1.4100   -1.4931 C   0  0  0  0  0  0  0  0  0  0  0  0
    4.4505    1.9646   -2.5863 C   0  0  0  0  0  0  0  0  0  0  0  0
    3.6045    2.1697   -3.6765 F   0  0  0  0  0  0  0  0  0  0  0  0
    5.5005    1.1479   -2.8807 F   0  0  0  0  0  0  0  0  0  0  0  0
    4.9591    3.1922   -2.1613 F   0  0  0  0  0  0  0  0  0  0  0  0
    2.8443    2.2727   -0.7241 C   0  0  0  0  0  0  0  0  0  0  0  0
    2.0613    1.7731    0.2955 C   0  0  0  0  0  0  0  0  0  0  0  0
    2.0737   -0.3475    2.9064 C   0  0  0  0  0  0  0  0  0  0  0  0
    2.7724   -1.6320    2.6791 C   0  0  0  0  0  0  0  0  0  0  0  0
    4.0348   -1.7614    2.7398 O   0  0  0  0  0  0  0  0  0  0  0  0
    1.9376   -2.7489    2.3805 N   0  0  0  0  0  0  0  0  0  0  0  0
    0.3032   -4.5956    1.7826 H   0  0  0  0  0  0  0  0  0  0  0  0
   -1.1069   -3.5407    1.9386 H   0  0  0  0  0  0  0  0  0  0  0  0
   -0.3094   -3.7907    0.3005 H   0  0  0  0  0  0  0  0  0  0  0  0
   -0.7286    1.0928    0.5282 H   0  0  0  0  0  0  0  0  0  0  0  0
   -3.7089    0.7887    1.4462 H   0  0  0  0  0  0  0  0  0  0  0  0
   -6.9932    1.4915   -2.2797 H   0  0  0  0  0  0  0  0  0  0  0  0
   -3.5225    0.7283   -4.5048 H   0  0  0  0  0  0  0  0  0  0  0  0
   -1.7548    0.3504   -2.3670 H   0  0  0  0  0  0  0  0  0  0  0  0
    0.5419    0.7845    2.0396 H   0  0  0  0  0  0  0  0  0  0  0  0
    2.7287   -1.4845    0.0561 H   0  0  0  0  0  0  0  0  0  0  0  0
    4.1453   -0.6131   -1.7794 H   0  0  0  0  0  0  0  0  0  0  0  0
    2.8958    3.3317   -0.9675 H   0  0  0  0  0  0  0  0  0  0  0  0
    1.4667    2.4766    0.8836 H   0  0  0  0  0  0  0  0  0  0  0  0
    1.4295   -0.4679    3.8006 H   0  0  0  0  0  0  0  0  0  0  0  0
    2.7667    0.5077    2.9904 H   0  0  0  0  0  0  0  0  0  0  0  0
    2.2038   -3.7168    2.6328 H   0  0  0  0  0  0  0  0  0  0  0  0
  1  2  1  0
  2  3  2  0
  3  4  1  0
  4  5  2  0
  4  6  1  0
  6  7  1  0
  7  8  2  0
  8  9  1  0
  9 10  1  0
  9 11  2  0
 11 12  1  0
 12 13  1  0
 13 14  2  0
 14 15  1  0
 15 16  2  0
  3 17  1  0
 17 18  1  0
 18 19  2  0
 19 20  1  0
 20 21  2  0
 21 22  1  0
 22 23  1  0
 22 24  1  0
 22 25  1  0
 21 26  1  0
 26 27  2  0
 17 28  1  0
 28 29  1  0
 29 30  2  0
 29 31  1  0
 31  2  1  0
 16  7  1  0
 27 18  1  0
 15 11  1  0
  1 32  1  0
  1 33  1  0
  1 34  1  0
  6 35  1  0
  8 36  1  0
 12 37  1  0
 14 38  1  0
 16 39  1  0
 17 40  1  0
 19 41  1  0
 20 42  1  0
 26 43  1  0
 27 44  1  0
 28 45  1  0
 28 46  1  0
 31 47  1  0
M  END
$$$$
