
     RDKit          3D

 54 55  0  0  0  0  0  0  0  0999 V2000
    1.5769    0.6007    0.1976 N   0  0  0  0  0  0  0  0  0  0  0  0
    0.7315   -0.5381    0.2328 C   0  0  0  0  0  0  0  0  0  0  0  0
   -0.6132   -0.3507   -0.3964 C   0  0  0  0  0  0  0  0  0  0  0  0
   -1.3939    0.6960    0.2263 N   0  0  0  0  0  0  0  0  0  0  0  0
   -1.1486   -2.4351   -0.0998 C   0  0  0  0  0  0  0  0  0  0  0  0
   -0.5163   -1.1367   -0.0506 N   0  0  0  0  0  0  0  0  0  0  0  0
   -1.1831    0.0233   -0.0345 C   0  0  0  0  0  0  0  0  0  0  0  0
   -0.5660    1.2647    0.0128 C   0  0  0  0  0  0  0  0  0  0  0  0
   -1.5406    2.2209    0.0165 N   0  0  0  0  0  0  0  0  0  0  0  0
   -2.7467    1.6065   -0.0273 C   0  0  0  0  0  0  0  0  0  0  0  0
   -2.5060    0.2738   -0.0577 N   0  0  0  0  0  0  0  0  0  0  0  0
    0.8110    1.2849    0.0446 C   0  0  0  0  0  0  0  0  0  0  0  0
    1.3845    2.4057    0.0877 O   0  0  0  0  0  0  0  0  0  0  0  0
    1.5109    0.1515    0.0299 N   0  0  0  0  0  0  0  0  0  0  0  0
    2.9635    0.1473    0.0626 C   0  0  0  0  0  0  0  0  0  0  0  0
    0.8399   -1.0144   -0.0166 C   0  0  0  0  0  0  0  0  0  0  0  0
    1.5216   -2.0704   -0.0296 O   0  0  0  0  0  0  0  0  0  0  0  0
   -1.1486   -2.4351   -0.0998 C   0  0  0  0  0  0  0  0  0  0  0  0
   -0.5163   -1.1367   -0.0506 N   0  0  0  0  0  0  0  0  0  0  0  0
   -1.1831    0.0233   -0.0345 C   0  0  0  0  0  0  0  0  0  0  0  0
   -0.5660    1.2647    0.0128 C   0  0  0  0  0  0  0  0  0  0  0  0
   -1.5406    2.2209    0.0165 N   0  0  0  0  0  0  0  0  0  0  0  0
   -2.7467    1.6065   -0.0273 C   0  0  0  0  0  0  0  0  0  0  0  0
   -2.5060    0.2738   -0.0577 N   0  0  0  0  0  0  0  0  0  0  0  0
    0.8110    1.2849    0.0446 C   0  0  0  0  0  0  0  0  0  0  0  0
    1.3845    2.4057    0.0877 O   0  0  0  0  0  0  0  0  0  0  0  0
    1.5109    0.1515    0.0299 N   0  0  0  0  0  0  0  0  0  0  0  0
    2.9635    0.1473    0.0626 C   0  0  0  0  0  0  0  0  0  0  0  0
    0.8399   -1.0144   -0.0166 C   0  0  0  0  0  0  0  0  0  0  0  0
    1.5216   -2.0704   -0.0296 O   0  0  0  0  0  0  0  0  0  0  0  0
    2.4115    0.5130   -0.4270 H   0  0  0  0  0  0  0  0  0  0  0  0
    1.0650    1.4655   -0.0307 H   0  0  0  0  0  0  0  0  0  0  0  0
    1.2327   -1.3637   -0.3224 H   0  0  0  0  0  0  0  0  0  0  0  0
    0.6026   -0.8583    1.2870 H   0  0  0  0  0  0  0  0  0  0  0  0
   -1.1890   -1.2938   -0.2950 H   0  0  0  0  0  0  0  0  0  0  0  0
   -0.5083   -0.0516   -1.4641 H   0  0  0  0  0  0  0  0  0  0  0  0
   -2.3438    0.6372   -0.2457 H   0  0  0  0  0  0  0  0  0  0  0  0
   -1.5719    0.5438    1.2375 H   0  0  0  0  0  0  0  0  0  0  0  0
   -1.9169   -2.4746    0.6801 H   0  0  0  0  0  0  0  0  0  0  0  0
   -0.3773   -3.2022    0.1875 H   0  0  0  0  0  0  0  0  0  0  0  0
   -1.4952   -2.7278   -1.1124 H   0  0  0  0  0  0  0  0  0  0  0  0
   -1.3660    3.2670    0.0486 H   0  0  0  0  0  0  0  0  0  0  0  0
   -3.7281    2.0606   -0.0373 H   0  0  0  0  0  0  0  0  0  0  0  0
    3.3299   -0.8892   -0.1309 H   0  0  0  0  0  0  0  0  0  0  0  0
    3.3160    0.4293    1.0932 H   0  0  0  0  0  0  0  0  0  0  0  0
    3.4132    0.8150   -0.6666 H   0  0  0  0  0  0  0  0  0  0  0  0
   -1.9169   -2.4746    0.6801 H   0  0  0  0  0  0  0  0  0  0  0  0
   -0.3773   -3.2022    0.1875 H   0  0  0  0  0  0  0  0  0  0  0  0
   -1.4952   -2.7278   -1.1124 H   0  0  0  0  0  0  0  0  0  0  0  0
   -1.3660    3.2670    0.0486 H   0  0  0  0  0  0  0  0  0  0  0  0
   -3.7281    2.0606   -0.0373 H   0  0  0  0  0  0  0  0  0  0  0  0
    3.3299   -0.8892   -0.1309 H   0  0  0  0  0  0  0  0  0  0  0  0
    3.3160    0.4293    1.0932 H   0  0  0  0  0  0  0  0  0  0  0  0
    3.4132    0.8150   -0.6666 H   0  0  0  0  0  0  0  0  0  0  0  0
  1  2  1  0
  2  3  1  0
  3  4  1  0
  5  6  1  0
  6  7  1  0
  7  8  2  0
  8  9  1  0
  9 10  1  0
 10 11  2  0
  8 12  1  0
 12 13  2  0
 12 14  1  0
 14 15  1  0
 14 16  1  0
 16 17  2  0
 18 19  1  0
 19 20  1  0
 20 21  2  0
 21 22  1  0
 22 23  1  0
 23 24  2  0
 21 25  1  0
 25 26  2  0
 25 27  1  0
 27 28  1  0
 27 29  1  0
 29 30  2  0
 16  6  1  0
 29 19  1  0
 11  7  1  0
 24 20  1  0
  1 31  1  0
  1 32  1  0
  2 33  1  0
  2 34  1  0
  3 35  1  0
  3 36  1  0
  4 37  1  0
  4 38  1  0
  5 39  1  0
  5 40  1  0
  5 41  1  0
  9 42  1  0
 10 43  1  0
 15 44  1  0
 15 45  1  0
 15 46  1  0
 18 47  1  0
 18 48  1  0
 18 49  1  0
 22 50  1  0
 23 51  1  0
 28 52  1  0
 28 53  1  0
 28 54  1  0
M  END
$$$$
