
     RDKit          3D

 61 65  0  0  0  0  0  0  0  0999 V2000
    0.7870   -4.4519   -2.2584 C   0  0  0  0  0  0  0  0  0  0  0  0
   -0.0329   -3.5083   -1.5903 O   0  0  0  0  0  0  0  0  0  0  0  0
    0.5812   -2.4758   -0.8979 C   0  0  0  0  0  0  0  0  0  0  0  0
    1.9497   -2.3327   -0.8373 C   0  0  0  0  0  0  0  0  0  0  0  0
    2.5223   -1.2783   -0.1289 C   0  0  0  0  0  0  0  0  0  0  0  0
    3.9700   -1.1258   -0.0597 C   0  0  0  0  0  0  0  0  0  0  0  0
    4.6186   -2.0390    0.5149 O   0  0  0  0  0  0  0  0  0  0  0  0
    4.6012   -0.0013   -0.6121 N   0  0  0  0  0  0  0  0  0  0  0  0
    3.9706    1.0909   -1.2970 C   0  0  0  0  0  0  0  0  0  0  0  0
    4.7986    2.3419   -0.9622 C   0  0  0  0  0  0  0  0  0  0  0  0
    5.3008    2.2741    0.4464 C   0  0  0  0  0  0  0  0  0  0  0  0
    6.3381    1.1956    0.5797 C   0  0  1  0  0  0  0  0  0  0  0  0
    6.1934    0.5123    1.8600 N   0  0  0  0  0  0  0  0  0  0  0  0
    6.0643    0.1074   -0.4738 C   0  0  0  0  0  0  0  0  0  0  0  0
    1.7160   -0.3610    0.5230 C   0  0  0  0  0  0  0  0  0  0  0  0
    0.3375   -0.4931    0.4696 C   0  0  0  0  0  0  0  0  0  0  0  0
   -0.6542    0.2280    0.9917 N   0  0  0  0  0  0  0  0  0  0  0  0
   -1.8463   -0.3360    0.6384 C   0  0  0  0  0  0  0  0  0  0  0  0
   -3.1730    0.1332    1.0084 C   0  0  0  0  0  0  0  0  0  0  0  0
   -3.9808   -0.4915    1.9407 C   0  0  0  0  0  0  0  0  0  0  0  0
   -5.1575    0.2252    2.0539 C   0  0  0  0  0  0  0  0  0  0  0  0
   -6.3058    0.1009    2.7972 C   0  0  0  0  0  0  0  0  0  0  0  0
   -7.3345    1.0054    2.6867 C   0  0  0  0  0  0  0  0  0  0  0  0
   -7.2213    2.0775    1.8027 C   0  0  0  0  0  0  0  0  0  0  0  0
   -6.0735    2.2142    1.0494 C   0  0  0  0  0  0  0  0  0  0  0  0
   -5.0485    1.2836    1.1823 C   0  0  0  0  0  0  0  0  0  0  0  0
   -3.8480    1.1997    0.5712 N   0  0  0  0  0  0  0  0  0  0  0  0
   -3.3723    2.1385   -0.4122 C   0  0  0  0  0  0  0  0  0  0  0  0
   -3.8202    1.6644   -1.7823 C   0  0  0  0  0  0  0  0  0  0  0  0
   -5.2129    1.6098   -1.8010 F   0  0  0  0  0  0  0  0  0  0  0  0
   -3.3992    0.3825   -2.0653 F   0  0  0  0  0  0  0  0  0  0  0  0
   -3.4594    2.5682   -2.7645 F   0  0  0  0  0  0  0  0  0  0  0  0
   -1.5247   -1.4067   -0.1051 N   0  0  0  0  0  0  0  0  0  0  0  0
   -2.4732   -2.3217   -0.7009 C   0  0  0  0  0  0  0  0  0  0  0  0
   -0.1919   -1.5485   -0.2398 C   0  0  0  0  0  0  0  0  0  0  0  0
    0.1653   -5.2066   -2.7895 H   0  0  0  0  0  0  0  0  0  0  0  0
    1.4120   -3.9545   -3.0237 H   0  0  0  0  0  0  0  0  0  0  0  0
    1.4108   -5.0261   -1.5531 H   0  0  0  0  0  0  0  0  0  0  0  0
    2.6111   -3.0260   -1.3301 H   0  0  0  0  0  0  0  0  0  0  0  0
    4.0491    0.9246   -2.4093 H   0  0  0  0  0  0  0  0  0  0  0  0
    2.9157    1.2503   -1.0171 H   0  0  0  0  0  0  0  0  0  0  0  0
    5.7032    2.3494   -1.6290 H   0  0  0  0  0  0  0  0  0  0  0  0
    4.1858    3.2385   -1.1409 H   0  0  0  0  0  0  0  0  0  0  0  0
    4.4626    2.1367    1.1672 H   0  0  0  0  0  0  0  0  0  0  0  0
    5.7844    3.2387    0.7153 H   0  0  0  0  0  0  0  0  0  0  0  0
    7.3519    1.6073    0.4703 H   0  0  0  0  0  0  0  0  0  0  0  0
    5.1600    0.3644    1.9853 H   0  0  0  0  0  0  0  0  0  0  0  0
    6.6841   -0.4254    1.7572 H   0  0  0  0  0  0  0  0  0  0  0  0
    6.4998   -0.8619   -0.1696 H   0  0  0  0  0  0  0  0  0  0  0  0
    6.5095    0.4155   -1.4195 H   0  0  0  0  0  0  0  0  0  0  0  0
    2.1660    0.4686    1.0896 H   0  0  0  0  0  0  0  0  0  0  0  0
   -3.7385   -1.4036    2.5030 H   0  0  0  0  0  0  0  0  0  0  0  0
   -6.3945   -0.7194    3.4744 H   0  0  0  0  0  0  0  0  0  0  0  0
   -8.2633    0.9257    3.2744 H   0  0  0  0  0  0  0  0  0  0  0  0
   -7.9969    2.8184    1.6754 H   0  0  0  0  0  0  0  0  0  0  0  0
   -5.9481    3.0301    0.3567 H   0  0  0  0  0  0  0  0  0  0  0  0
   -2.2816    2.3221   -0.3633 H   0  0  0  0  0  0  0  0  0  0  0  0
   -3.8554    3.1247   -0.2356 H   0  0  0  0  0  0  0  0  0  0  0  0
   -2.2463   -3.3746   -0.4076 H   0  0  0  0  0  0  0  0  0  0  0  0
   -3.4953   -2.1075   -0.3360 H   0  0  0  0  0  0  0  0  0  0  0  0
   -2.4707   -2.2913   -1.7930 H   0  0  0  0  0  0  0  0  0  0  0  0
  1  2  1  0
  2  3  1  0
  3  4  2  0
  4  5  1  0
  5  6  1  0
  6  7  2  0
  6  8  1  0
  8  9  1  0
  9 10  1  0
 10 11  1  0
 11 12  1  0
 12 13  1  0
 12 14  1  0
  5 15  2  0
 15 16  1  0
 16 17  1  0
 17 18  2  0
 18 19  1  0
 19 20  2  0
 20 21  1  0
 21 22  2  0
 22 23  1  0
 23 24  2  0
 24 25  1  0
 25 26  2  0
 26 27  1  0
 27 28  1  0
 28 29  1  0
 29 30  1  0
 29 31  1  0
 29 32  1  0
 18 33  1  0
 33 34  1  0
 33 35  1  0
 35  3  1  0
 14  8  1  0
 35 16  2  0
 27 19  1  0
 26 21  1  0
  1 36  1  0
  1 37  1  0
  1 38  1  0
  4 39  1  0
  9 40  1  0
  9 41  1  0
 10 42  1  0
 10 43  1  0
 11 44  1  0
 11 45  1  0
 12 46  1  6
 13 47  1  0
 13 48  1  0
 14 49  1  0
 14 50  1  0
 15 51  1  0
 20 52  1  0
 22 53  1  0
 23 54  1  0
 24 55  1  0
 25 56  1  0
 28 57  1  0
 28 58  1  0
 34 59  1  0
 34 60  1  0
 34 61  1  0
M  END
$$$$
