@<TRIPOS>MOLECULE
*****
 61 65 0 0 0
SMALL
GASTEIGER

@<TRIPOS>ATOM
      1 C           0.7870   -4.4519   -2.2584 C.3     1  UNL1        0.0789
      2 O          -0.0329   -3.5083   -1.5903 O.3     1  UNL1       -0.4930
      3 C           0.5812   -2.4758   -0.8979 C.ar    1  UNL1        0.1463
      4 C           1.9497   -2.3327   -0.8373 C.ar    1  UNL1       -0.0057
      5 C           2.5223   -1.2783   -0.1289 C.ar    1  UNL1        0.0425
      6 C           3.9700   -1.1258   -0.0597 C.2     1  UNL1        0.2468
      7 O           4.6186   -2.0390    0.5149 O.2     1  UNL1       -0.2700
      8 N           4.6012   -0.0013   -0.6121 N.am    1  UNL1       -0.2960
      9 C           3.9706    1.0909   -1.2970 C.3     1  UNL1        0.0151
     10 C           4.7986    2.3419   -0.9622 C.3     1  UNL1       -0.0357
     11 C           5.3008    2.2741    0.4464 C.3     1  UNL1       -0.0349
     12 C           6.3381    1.1956    0.5797 C.3     1  UNL1        0.0208
     13 N           6.1934    0.5123    1.8600 N.3     1  UNL1       -0.3259
     14 C           6.0643    0.1074   -0.4738 C.3     1  UNL1        0.0302
     15 C           1.7160   -0.3610    0.5230 C.ar    1  UNL1       -0.0219
     16 C           0.3375   -0.4931    0.4696 C.ar    1  UNL1        0.0940
     17 N          -0.6542    0.2280    0.9917 N.ar    1  UNL1       -0.2259
     18 C          -1.8463   -0.3360    0.6384 C.ar    1  UNL1        0.1583
     19 C          -3.1730    0.1332    1.0084 C.ar    1  UNL1        0.0862
     20 C          -3.9808   -0.4915    1.9407 C.ar    1  UNL1       -0.0255
     21 C          -5.1575    0.2252    2.0539 C.ar    1  UNL1        0.0006
     22 C          -6.3058    0.1009    2.7972 C.ar    1  UNL1       -0.0526
     23 C          -7.3345    1.0054    2.6867 C.ar    1  UNL1       -0.0611
     24 C          -7.2213    2.0775    1.8027 C.ar    1  UNL1       -0.0598
     25 C          -6.0735    2.2142    1.0494 C.ar    1  UNL1       -0.0376
     26 C          -5.0485    1.2836    1.1823 C.ar    1  UNL1        0.0499
     27 N          -3.8480    1.1997    0.5712 N.ar    1  UNL1       -0.3288
     28 C          -3.3723    2.1385   -0.4122 C.3     1  UNL1        0.1191
     29 C          -3.8202    1.6644   -1.7823 C.3     1  UNL1        0.4073
     30 F          -5.2129    1.6098   -1.8010 F       1  UNL1       -0.1687
     31 F          -3.3992    0.3825   -2.0653 F       1  UNL1       -0.1687
     32 F          -3.4594    2.5682   -2.7645 F       1  UNL1       -0.1687
     33 N          -1.5247   -1.4067   -0.1051 N.ar    1  UNL1       -0.3227
     34 C          -2.4732   -2.3217   -0.7009 C.3     1  UNL1        0.0140
     35 C          -0.1919   -1.5485   -0.2398 C.ar    1  UNL1        0.1111
     36 H           0.1653   -5.2066   -2.7895 H       1  UNL1        0.0660
     37 H           1.4120   -3.9545   -3.0237 H       1  UNL1        0.0660
     38 H           1.4108   -5.0261   -1.5531 H       1  UNL1        0.0660
     39 H           2.6111   -3.0260   -1.3301 H       1  UNL1        0.0662
     40 H           4.0491    0.9246   -2.4093 H       1  UNL1        0.0465
     41 H           2.9157    1.2503   -1.0171 H       1  UNL1        0.0465
     42 H           5.7032    2.3494   -1.6290 H       1  UNL1        0.0281
     43 H           4.1858    3.2385   -1.1409 H       1  UNL1        0.0281
     44 H           4.4626    2.1367    1.1672 H       1  UNL1        0.0281
     45 H           5.7844    3.2387    0.7153 H       1  UNL1        0.0281
     46 H           7.3519    1.6073    0.4703 H       1  UNL1        0.0474
     47 H           5.1600    0.3644    1.9853 H       1  UNL1        0.1185
     48 H           6.6841   -0.4254    1.7572 H       1  UNL1        0.1185
     49 H           6.4998   -0.8619   -0.1696 H       1  UNL1        0.0480
     50 H           6.5095    0.4155   -1.4195 H       1  UNL1        0.0480
     51 H           2.1660    0.4686    1.0896 H       1  UNL1        0.0647
     52 H          -3.7385   -1.4036    2.5030 H       1  UNL1        0.0646
     53 H          -6.3945   -0.7194    3.4744 H       1  UNL1        0.0624
     54 H          -8.2633    0.9257    3.2744 H       1  UNL1        0.0618
     55 H          -7.9969    2.8184    1.6754 H       1  UNL1        0.0618
     56 H          -5.9481    3.0301    0.3567 H       1  UNL1        0.0638
     57 H          -2.2816    2.3221   -0.3633 H       1  UNL1        0.0581
     58 H          -3.8554    3.1247   -0.2356 H       1  UNL1        0.0581
     59 H          -2.2463   -3.3746   -0.4076 H       1  UNL1        0.0456
     60 H          -3.4953   -2.1075   -0.3360 H       1  UNL1        0.0456
     61 H          -2.4707   -2.2913   -1.7930 H       1  UNL1        0.0456
@<TRIPOS>BOND
     1     1     2    1
     2     2     3    1
     3     3     4   ar
     4     4     5   ar
     5     5     6    1
     6     6     7    2
     7     6     8   am
     8     8     9    1
     9     9    10    1
    10    10    11    1
    11    11    12    1
    12    12    13    1
    13    12    14    1
    14     5    15   ar
    15    15    16   ar
    16    16    17   ar
    17    17    18   ar
    18    18    19    1
    19    19    20   ar
    20    20    21   ar
    21    21    22   ar
    22    22    23   ar
    23    23    24   ar
    24    24    25   ar
    25    25    26   ar
    26    26    27   ar
    27    27    28    1
    28    28    29    1
    29    29    30    1
    30    29    31    1
    31    29    32    1
    32    18    33   ar
    33    33    34    1
    34    33    35   ar
    35    35     3   ar
    36    14     8    1
    37    35    16   ar
    38    27    19   ar
    39    26    21   ar
    40     1    36    1
    41     1    37    1
    42     1    38    1
    43     4    39    1
    44     9    40    1
    45     9    41    1
    46    10    42    1
    47    10    43    1
    48    11    44    1
    49    11    45    1
    50    12    46    1
    51    13    47    1
    52    13    48    1
    53    14    49    1
    54    14    50    1
    55    15    51    1
    56    20    52    1
    57    22    53    1
    58    23    54    1
    59    24    55    1
    60    25    56    1
    61    28    57    1
    62    28    58    1
    63    34    59    1
    64    34    60    1
    65    34    61    1
