@<TRIPOS>MOLECULE
*****
 44 47 0 0 0
SMALL
GASTEIGER

@<TRIPOS>ATOM
      1 F          -6.3958    1.0762   -3.1814 F       1  UNL1       -0.2055
      2 C          -5.3447    0.6889   -2.4139 C.ar    1  UNL1        0.1234
      3 C          -5.0055    1.3577   -1.2566 C.ar    1  UNL1       -0.0262
      4 C          -3.9219    0.9289   -0.4989 C.ar    1  UNL1       -0.0556
      5 C          -3.1510   -0.1646   -0.8630 C.ar    1  UNL1       -0.0436
      6 C          -1.9877   -0.6276   -0.0498 C.3     1  UNL1       -0.0076
      7 C          -2.3771   -1.2098    1.2674 C.3     1  UNL1       -0.0332
      8 C          -2.4954   -0.2175    2.3729 C.3     1  UNL1       -0.0035
      9 N          -1.4278    0.7044    2.4464 N.3     1  UNL1       -0.3156
     10 C          -0.9752    1.2854    1.2463 C.3     1  UNL1        0.0024
     11 C          -0.9082    0.3851    0.0563 C.3     1  UNL1        0.0125
     12 C           0.4424   -0.3066    0.0332 C.3     1  UNL1        0.0941
     13 O           1.4956    0.6047    0.1304 O.3     1  UNL1       -0.4915
     14 C           2.7940    0.1686    0.1266 C.ar    1  UNL1        0.1242
     15 C           3.0921   -1.1638    0.0280 C.ar    1  UNL1       -0.0162
     16 C           4.3970   -1.6082    0.0237 C.ar    1  UNL1       -0.0127
     17 C           5.4327   -0.7015    0.1201 C.ar    1  UNL1        0.1665
     18 C           5.1345    0.6432    0.2197 C.ar    1  UNL1        0.1697
     19 C           3.8282    1.0657    0.2222 C.ar    1  UNL1        0.0256
     20 O           6.3544    1.3261    0.3027 O.3     1  UNL1       -0.4525
     21 C           7.4018    0.4387    0.0464 C.3     1  UNL1        0.2332
     22 O           6.8102   -0.8358    0.1421 O.3     1  UNL1       -0.4526
     23 C          -3.5457   -0.7950   -2.0402 C.ar    1  UNL1       -0.0556
     24 C          -4.6073   -0.3883   -2.7979 C.ar    1  UNL1       -0.0262
     25 H          -5.6024    2.2215   -0.9550 H       1  UNL1        0.0646
     26 H          -3.7038    1.4785    0.3798 H       1  UNL1        0.0621
     27 H          -1.5547   -1.4962   -0.6374 H       1  UNL1        0.0353
     28 H          -3.2864   -1.8351    1.1914 H       1  UNL1        0.0283
     29 H          -1.5596   -1.9294    1.5690 H       1  UNL1        0.0283
     30 H          -3.5141    0.2656    2.4314 H       1  UNL1        0.0424
     31 H          -2.4657   -0.8223    3.3317 H       1  UNL1        0.0424
     32 H          -0.7026    0.4475    3.1428 H       1  UNL1        0.1219
     33 H           0.0832    1.6437    1.4348 H       1  UNL1        0.0428
     34 H          -1.5301    2.2412    1.0499 H       1  UNL1        0.0428
     35 H          -0.9395    1.0268   -0.8554 H       1  UNL1        0.0352
     36 H           0.5200   -0.9454   -0.8835 H       1  UNL1        0.0700
     37 H           0.4407   -1.0135    0.9058 H       1  UNL1        0.0700
     38 H           2.3105   -1.9188   -0.0504 H       1  UNL1        0.0655
     39 H           4.6418   -2.6621   -0.0541 H       1  UNL1        0.0656
     40 H           3.6084    2.1290    0.3013 H       1  UNL1        0.0692
     41 H           8.2324    0.5590    0.7727 H       1  UNL1        0.1166
     42 H           7.8070    0.5450   -0.9927 H       1  UNL1        0.1166
     43 H          -2.9682   -1.6542   -2.3588 H       1  UNL1        0.0621
     44 H          -4.8564   -0.9360   -3.7126 H       1  UNL1        0.0646
@<TRIPOS>BOND
     1     1     2    1
     2     2     3   ar
     3     3     4   ar
     4     4     5   ar
     5     5     6    1
     6     6     7    1
     7     7     8    1
     8     8     9    1
     9     9    10    1
    10    10    11    1
    11    11    12    1
    12    12    13    1
    13    13    14    1
    14    14    15   ar
    15    15    16   ar
    16    16    17   ar
    17    17    18   ar
    18    18    19   ar
    19    18    20    1
    20    20    21    1
    21    21    22    1
    22     5    23   ar
    23    23    24   ar
    24    24     2   ar
    25    11     6    1
    26    19    14   ar
    27    22    17    1
    28     3    25    1
    29     4    26    1
    30     6    27    1
    31     7    28    1
    32     7    29    1
    33     8    30    1
    34     8    31    1
    35     9    32    1
    36    10    33    1
    37    10    34    1
    38    11    35    1
    39    12    36    1
    40    12    37    1
    41    15    38    1
    42    16    39    1
    43    19    40    1
    44    21    41    1
    45    21    42    1
    46    23    43    1
    47    24    44    1
