@<TRIPOS>MOLECULE
*****
 46 48 0 0 0
SMALL
GASTEIGER

@<TRIPOS>ATOM
      1 C          -2.4011    3.1584   -1.3856 C.3     1  UNL1       -0.0639
      2 C          -3.1209    1.8712   -1.1900 C.3     1  UNL1       -0.0400
      3 C          -2.3907    0.6333   -1.5538 C.3     1  UNL1        0.0150
      4 N          -1.1638    0.3627   -0.8875 N.am    1  UNL1       -0.2944
      5 C           0.0501    0.8339   -1.4333 C.2     1  UNL1        0.2469
      6 O           0.0171    1.5111   -2.5243 O.2     1  UNL1       -0.2700
      7 C           1.3754    0.6254   -0.8727 C.ar    1  UNL1        0.0375
      8 C           2.1053    1.7186   -0.4652 C.ar    1  UNL1       -0.0490
      9 C           3.3566    1.4975    0.0464 C.ar    1  UNL1       -0.0533
     10 C           3.9354    0.2549    0.1819 C.ar    1  UNL1       -0.0178
     11 C           5.1976    0.0536    0.7000 C.ar    1  UNL1       -0.0540
     12 C           5.7164   -1.2183    0.8071 C.ar    1  UNL1       -0.0612
     13 C           4.9683   -2.3140    0.3923 C.ar    1  UNL1       -0.0612
     14 C           3.7059   -2.0776   -0.1227 C.ar    1  UNL1       -0.0540
     15 C           3.1569   -0.8267   -0.2452 C.ar    1  UNL1       -0.0172
     16 C           1.9000   -0.6458   -0.7623 C.ar    1  UNL1       -0.0419
     17 C          -1.1343   -0.3806    0.3341 C.3     1  UNL1        0.0286
     18 C          -1.8414    0.3048    1.4730 C.3     1  UNL1       -0.0217
     19 C          -3.2154   -0.2805    1.7116 C.3     1  UNL1       -0.0024
     20 N          -2.9555   -1.6385    2.1730 N.3     1  UNL1       -0.3159
     21 C          -2.4864   -2.4055    1.0753 C.3     1  UNL1       -0.0024
     22 C          -1.6386   -1.7631    0.0661 C.3     1  UNL1       -0.0217
     23 H          -1.4157    3.1628   -0.8634 H       1  UNL1        0.0230
     24 H          -3.0002    3.9344   -0.8235 H       1  UNL1        0.0230
     25 H          -2.3721    3.5301   -2.4163 H       1  UNL1        0.0230
     26 H          -4.0276    1.9146   -1.8855 H       1  UNL1        0.0278
     27 H          -3.5845    1.8597   -0.1882 H       1  UNL1        0.0278
     28 H          -2.1706    0.6547   -2.6669 H       1  UNL1        0.0465
     29 H          -3.1568   -0.1970   -1.4889 H       1  UNL1        0.0465
     30 H           1.6591    2.6928   -0.5687 H       1  UNL1        0.0625
     31 H           3.9391    2.3461    0.3711 H       1  UNL1        0.0624
     32 H           5.7610    0.9265    1.0168 H       1  UNL1        0.0624
     33 H           6.7200   -1.3390    1.2235 H       1  UNL1        0.0618
     34 H           5.3699   -3.2926    0.4791 H       1  UNL1        0.0618
     35 H           3.0834   -2.9141   -0.4611 H       1  UNL1        0.0624
     36 H           1.3453   -1.5307   -1.0763 H       1  UNL1        0.0631
     37 H          -0.0515   -0.4477    0.6684 H       1  UNL1        0.0501
     38 H          -1.2948    0.1408    2.4517 H       1  UNL1        0.0295
     39 H          -1.8823    1.3940    1.3609 H       1  UNL1        0.0295
     40 H          -3.7225    0.2490    2.5230 H       1  UNL1        0.0425
     41 H          -3.8146   -0.3697    0.7955 H       1  UNL1        0.0425
     42 H          -2.2628   -1.5884    2.9637 H       1  UNL1        0.1219
     43 H          -1.9925   -3.3268    1.5168 H       1  UNL1        0.0425
     44 H          -3.4080   -2.8449    0.5857 H       1  UNL1        0.0425
     45 H          -2.1377   -1.8155   -0.9456 H       1  UNL1        0.0295
     46 H          -0.7209   -2.4135   -0.0903 H       1  UNL1        0.0295
@<TRIPOS>BOND
     1     1     2    1
     2     2     3    1
     3     3     4    1
     4     4     5   am
     5     5     6    2
     6     5     7    1
     7     7     8   ar
     8     8     9   ar
     9     9    10   ar
    10    10    11   ar
    11    11    12   ar
    12    12    13   ar
    13    13    14   ar
    14    14    15   ar
    15    15    16   ar
    16     4    17    1
    17    17    18    1
    18    18    19    1
    19    19    20    1
    20    20    21    1
    21    21    22    1
    22    16     7   ar
    23    22    17    1
    24    15    10   ar
    25     1    23    1
    26     1    24    1
    27     1    25    1
    28     2    26    1
    29     2    27    1
    30     3    28    1
    31     3    29    1
    32     8    30    1
    33     9    31    1
    34    11    32    1
    35    12    33    1
    36    13    34    1
    37    14    35    1
    38    16    36    1
    39    17    37    1
    40    18    38    1
    41    18    39    1
    42    19    40    1
    43    19    41    1
    44    20    42    1
    45    21    43    1
    46    21    44    1
    47    22    45    1
    48    22    46    1
