
     RDKit          3D

 46 48  0  0  0  0  0  0  0  0999 V2000
   -2.4011    3.1584   -1.3856 C   0  0  0  0  0  0  0  0  0  0  0  0
   -3.1209    1.8712   -1.1900 C   0  0  0  0  0  0  0  0  0  0  0  0
   -2.3907    0.6333   -1.5538 C   0  0  0  0  0  0  0  0  0  0  0  0
   -1.1638    0.3627   -0.8875 N   0  0  0  0  0  0  0  0  0  0  0  0
    0.0501    0.8339   -1.4333 C   0  0  0  0  0  0  0  0  0  0  0  0
    0.0171    1.5111   -2.5243 O   0  0  0  0  0  0  0  0  0  0  0  0
    1.3754    0.6254   -0.8727 C   0  0  0  0  0  0  0  0  0  0  0  0
    2.1053    1.7186   -0.4652 C   0  0  0  0  0  0  0  0  0  0  0  0
    3.3566    1.4975    0.0464 C   0  0  0  0  0  0  0  0  0  0  0  0
    3.9354    0.2549    0.1819 C   0  0  0  0  0  0  0  0  0  0  0  0
    5.1976    0.0536    0.7000 C   0  0  0  0  0  0  0  0  0  0  0  0
    5.7164   -1.2183    0.8071 C   0  0  0  0  0  0  0  0  0  0  0  0
    4.9683   -2.3140    0.3923 C   0  0  0  0  0  0  0  0  0  0  0  0
    3.7059   -2.0776   -0.1227 C   0  0  0  0  0  0  0  0  0  0  0  0
    3.1569   -0.8267   -0.2452 C   0  0  0  0  0  0  0  0  0  0  0  0
    1.9000   -0.6458   -0.7623 C   0  0  0  0  0  0  0  0  0  0  0  0
   -1.1343   -0.3806    0.3341 C   0  0  0  0  0  0  0  0  0  0  0  0
   -1.8414    0.3048    1.4730 C   0  0  0  0  0  0  0  0  0  0  0  0
   -3.2154   -0.2805    1.7116 C   0  0  0  0  0  0  0  0  0  0  0  0
   -2.9555   -1.6385    2.1730 N   0  0  0  0  0  0  0  0  0  0  0  0
   -2.4864   -2.4055    1.0753 C   0  0  0  0  0  0  0  0  0  0  0  0
   -1.6386   -1.7631    0.0661 C   0  0  0  0  0  0  0  0  0  0  0  0
   -1.4157    3.1628   -0.8634 H   0  0  0  0  0  0  0  0  0  0  0  0
   -3.0002    3.9344   -0.8235 H   0  0  0  0  0  0  0  0  0  0  0  0
   -2.3721    3.5301   -2.4163 H   0  0  0  0  0  0  0  0  0  0  0  0
   -4.0276    1.9146   -1.8855 H   0  0  0  0  0  0  0  0  0  0  0  0
   -3.5845    1.8597   -0.1882 H   0  0  0  0  0  0  0  0  0  0  0  0
   -2.1706    0.6547   -2.6669 H   0  0  0  0  0  0  0  0  0  0  0  0
   -3.1568   -0.1970   -1.4889 H   0  0  0  0  0  0  0  0  0  0  0  0
    1.6591    2.6928   -0.5687 H   0  0  0  0  0  0  0  0  0  0  0  0
    3.9391    2.3461    0.3711 H   0  0  0  0  0  0  0  0  0  0  0  0
    5.7610    0.9265    1.0168 H   0  0  0  0  0  0  0  0  0  0  0  0
    6.7200   -1.3390    1.2235 H   0  0  0  0  0  0  0  0  0  0  0  0
    5.3699   -3.2926    0.4791 H   0  0  0  0  0  0  0  0  0  0  0  0
    3.0834   -2.9141   -0.4611 H   0  0  0  0  0  0  0  0  0  0  0  0
    1.3453   -1.5307   -1.0763 H   0  0  0  0  0  0  0  0  0  0  0  0
   -0.0515   -0.4477    0.6684 H   0  0  0  0  0  0  0  0  0  0  0  0
   -1.2948    0.1408    2.4517 H   0  0  0  0  0  0  0  0  0  0  0  0
   -1.8823    1.3940    1.3609 H   0  0  0  0  0  0  0  0  0  0  0  0
   -3.7225    0.2490    2.5230 H   0  0  0  0  0  0  0  0  0  0  0  0
   -3.8146   -0.3697    0.7955 H   0  0  0  0  0  0  0  0  0  0  0  0
   -2.2628   -1.5884    2.9637 H   0  0  0  0  0  0  0  0  0  0  0  0
   -1.9925   -3.3268    1.5168 H   0  0  0  0  0  0  0  0  0  0  0  0
   -3.4080   -2.8449    0.5857 H   0  0  0  0  0  0  0  0  0  0  0  0
   -2.1377   -1.8155   -0.9456 H   0  0  0  0  0  0  0  0  0  0  0  0
   -0.7209   -2.4135   -0.0903 H   0  0  0  0  0  0  0  0  0  0  0  0
  1  2  1  0
  2  3  1  0
  3  4  1  0
  4  5  1  0
  5  6  2  0
  5  7  1  0
  7  8  2  0
  8  9  1  0
  9 10  2  0
 10 11  1  0
 11 12  2  0
 12 13  1  0
 13 14  2  0
 14 15  1  0
 15 16  2  0
  4 17  1  0
 17 18  1  0
 18 19  1  0
 19 20  1  0
 20 21  1  0
 21 22  1  0
 16  7  1  0
 22 17  1  0
 15 10  1  0
  1 23  1  0
  1 24  1  0
  1 25  1  0
  2 26  1  0
  2 27  1  0
  3 28  1  0
  3 29  1  0
  8 30  1  0
  9 31  1  0
 11 32  1  0
 12 33  1  0
 13 34  1  0
 14 35  1  0
 16 36  1  0
 17 37  1  0
 18 38  1  0
 18 39  1  0
 19 40  1  0
 19 41  1  0
 20 42  1  0
 21 43  1  0
 21 44  1  0
 22 45  1  0
 22 46  1  0
M  END
$$$$
