
     RDKit          3D

 26 25  0  0  0  0  0  0  0  0999 V2000
   -1.7456    0.5111    1.3208 C   0  0  0  0  0  0  0  0  0  0  0  0
   -1.2783    0.0458    0.0157 N   0  0  0  0  0  4  0  0  0  0  0  0
   -1.3700    1.1657   -0.8744 C   0  0  0  0  0  0  0  0  0  0  0  0
   -2.2657   -0.9170   -0.4542 C   0  0  0  0  0  0  0  0  0  0  0  0
   -0.0364   -0.6375    0.0676 C   0  0  0  0  0  0  0  0  0  0  0  0
    1.1919    0.1826    0.1635 C   0  0  2  0  0  0  0  0  0  0  0  0
    1.4147    1.0638   -0.8681 O   0  0  0  0  0  0  0  0  0  0  0  0
    2.3663   -0.7869    0.1669 C   0  0  0  0  0  0  0  0  0  0  0  0
    3.6256    0.0106    0.2637 C   0  0  0  0  0  0  0  0  0  0  0  0
    4.2945    0.1070    1.4847 O   0  0  0  0  0  1  0  0  0  0  0  0
    4.0169    0.5686   -0.8144 O   0  0  0  0  0  0  0  0  0  0  0  0
   -1.8101   -0.2941    2.0601 H   0  0  0  0  0  0  0  0  0  0  0  0
   -1.0433    1.3147    1.6254 H   0  0  0  0  0  0  0  0  0  0  0  0
   -2.7281    0.9849    1.1316 H   0  0  0  0  0  0  0  0  0  0  0  0
   -0.7166    2.0146   -0.6630 H   0  0  0  0  0  0  0  0  0  0  0  0
   -1.3719    0.8073   -1.9152 H   0  0  0  0  0  0  0  0  0  0  0  0
   -2.4128    1.5642   -0.7225 H   0  0  0  0  0  0  0  0  0  0  0  0
   -3.2184   -0.8355    0.1079 H   0  0  0  0  0  0  0  0  0  0  0  0
   -2.4564   -0.7824   -1.5390 H   0  0  0  0  0  0  0  0  0  0  0  0
   -1.9002   -1.9774   -0.3581 H   0  0  0  0  0  0  0  0  0  0  0  0
   -0.0512   -1.2855    0.9711 H   0  0  0  0  0  0  0  0  0  0  0  0
    0.0012   -1.3322   -0.7974 H   0  0  0  0  0  0  0  0  0  0  0  0
    1.2106    0.7109    1.1410 H   0  0  0  0  0  0  0  0  0  0  0  0
    1.6181    0.5669   -1.6996 H   0  0  0  0  0  0  0  0  0  0  0  0
    2.3281   -1.4818    1.0140 H   0  0  0  0  0  0  0  0  0  0  0  0
    2.3369   -1.2886   -0.8281 H   0  0  0  0  0  0  0  0  0  0  0  0
  1  2  1  0
  2  3  1  0
  2  4  1  0
  2  5  1  0
  5  6  1  0
  6  7  1  0
  6  8  1  0
  8  9  1  0
  9 10  1  0
  9 11  2  0
  1 12  1  0
  1 13  1  0
  1 14  1  0
  3 15  1  0
  3 16  1  0
  3 17  1  0
  4 18  1  0
  4 19  1  0
  4 20  1  0
  5 21  1  0
  5 22  1  0
  6 23  1  1
  7 24  1  0
  8 25  1  0
  8 26  1  0
M  CHG  2   2   1  10  -1
M  END
$$$$
