
     RDKit          3D

 64 68  0  0  0  0  0  0  0  0999 V2000
    9.5406   -1.2888    0.4636 C   0  0  0  0  0  0  0  0  0  0  0  0
    8.8266   -0.3666   -0.4620 C   0  0  0  0  0  0  0  0  0  0  0  0
    9.4765    0.1763   -1.3846 O   0  0  0  0  0  0  0  0  0  0  0  0
    7.4527   -0.1008   -0.3165 N   0  0  0  0  0  0  0  0  0  0  0  0
    6.7078   -0.7240    0.7421 C   0  0  0  0  0  0  0  0  0  0  0  0
    5.5289   -1.4628    0.0874 C   0  0  0  0  0  0  0  0  0  0  0  0
    4.7888   -0.4759   -0.6624 N   0  0  0  0  0  0  0  0  0  0  0  0
    3.4432   -0.1992   -0.3713 C   0  0  0  0  0  0  0  0  0  0  0  0
    2.8315    0.9791   -0.7290 C   0  0  0  0  0  0  0  0  0  0  0  0
    1.4996    1.2052   -0.4390 C   0  0  0  0  0  0  0  0  0  0  0  0
    0.7392    0.2877    0.2048 C   0  0  0  0  0  0  0  0  0  0  0  0
   -0.5960    0.4529    0.5238 O   0  0  0  0  0  0  0  0  0  0  0  0
   -1.3694    1.5702    0.2417 C   0  0  0  0  0  0  0  0  0  0  0  0
   -2.7687    1.3407    0.7599 C   0  0  2  0  0  0  0  0  0  0  0  0
   -2.7436    0.8805    2.2147 C   0  0  0  0  0  0  0  0  0  0  0  0
   -4.0386    0.3881    2.3282 O   0  0  0  0  0  0  0  0  0  0  0  0
   -4.4859    0.0465    1.0582 C   0  0  1  0  0  0  0  0  0  0  0  0
   -4.8111   -1.4277    1.0733 C   0  0  0  0  0  0  0  0  0  0  0  0
   -5.2921   -1.8946   -0.1976 N   0  0  0  0  0  0  0  0  0  0  0  0
   -4.5413   -2.3799   -1.2011 C   0  0  0  0  0  0  0  0  0  0  0  0
   -5.3682   -2.7206   -2.2492 C   0  0  0  0  0  0  0  0  0  0  0  0
   -6.6102   -2.4376   -1.8682 N   0  0  0  0  0  0  0  0  0  0  0  0
   -6.5710   -1.9303   -0.6100 C   0  0  0  0  0  0  0  0  0  0  0  0
   -5.5723    0.9022    0.5471 C   0  0  0  0  0  0  0  0  0  0  0  0
   -5.4616    1.6125   -0.6504 C   0  0  0  0  0  0  0  0  0  0  0  0
   -6.4923    2.3889   -1.1267 C   0  0  0  0  0  0  0  0  0  0  0  0
   -7.6828    2.5040   -0.4477 C   0  0  0  0  0  0  0  0  0  0  0  0
   -9.0011    3.5054   -1.0706 Cl  0  0  0  0  0  0  0  0  0  0  0  0
   -7.8141    1.8126    0.7348 C   0  0  0  0  0  0  0  0  0  0  0  0
   -6.7629    1.0254    1.2140 C   0  0  0  0  0  0  0  0  0  0  0  0
   -6.9572    0.1698    2.7355 Cl  0  0  0  0  0  0  0  0  0  0  0  0
   -3.3753    0.2378    0.1822 O   0  0  0  0  0  0  0  0  0  0  0  0
    1.3190   -0.9033    0.5777 C   0  0  0  0  0  0  0  0  0  0  0  0
    2.6714   -1.1274    0.2804 C   0  0  0  0  0  0  0  0  0  0  0  0
    5.4946    0.2072   -1.7456 C   0  0  0  0  0  0  0  0  0  0  0  0
    6.7896    0.7938   -1.2250 C   0  0  0  0  0  0  0  0  0  0  0  0
   10.6449   -1.1719    0.3482 H   0  0  0  0  0  0  0  0  0  0  0  0
    9.3127   -1.1025    1.5168 H   0  0  0  0  0  0  0  0  0  0  0  0
    9.2467   -2.3496    0.2500 H   0  0  0  0  0  0  0  0  0  0  0  0
    7.3008   -1.4021    1.3620 H   0  0  0  0  0  0  0  0  0  0  0  0
    6.2266    0.0767    1.3603 H   0  0  0  0  0  0  0  0  0  0  0  0
    5.9188   -2.1972   -0.6591 H   0  0  0  0  0  0  0  0  0  0  0  0
    5.0003   -1.9326    0.9119 H   0  0  0  0  0  0  0  0  0  0  0  0
    3.3665    1.7575   -1.2379 H   0  0  0  0  0  0  0  0  0  0  0  0
    1.0505    2.1388   -0.7330 H   0  0  0  0  0  0  0  0  0  0  0  0
   -1.0032    2.5147    0.6746 H   0  0  0  0  0  0  0  0  0  0  0  0
   -1.4528    1.7340   -0.8521 H   0  0  0  0  0  0  0  0  0  0  0  0
   -3.3568    2.2644    0.7274 H   0  0  0  0  0  0  0  0  0  0  0  0
   -2.5120    1.6911    2.9098 H   0  0  0  0  0  0  0  0  0  0  0  0
   -2.0560    0.0110    2.2783 H   0  0  0  0  0  0  0  0  0  0  0  0
   -3.8328   -1.9309    1.3493 H   0  0  0  0  0  0  0  0  0  0  0  0
   -5.4830   -1.6609    1.9111 H   0  0  0  0  0  0  0  0  0  0  0  0
   -3.4756   -2.4991   -1.2238 H   0  0  0  0  0  0  0  0  0  0  0  0
   -5.0910   -3.1466   -3.2267 H   0  0  0  0  0  0  0  0  0  0  0  0
   -7.4243   -1.6039   -0.0236 H   0  0  0  0  0  0  0  0  0  0  0  0
   -4.5165    1.5058   -1.1801 H   0  0  0  0  0  0  0  0  0  0  0  0
   -6.3740    2.9239   -2.0534 H   0  0  0  0  0  0  0  0  0  0  0  0
   -8.7370    1.8820    1.2921 H   0  0  0  0  0  0  0  0  0  0  0  0
    0.7746   -1.6862    1.0963 H   0  0  0  0  0  0  0  0  0  0  0  0
    3.0784   -2.0862    0.5893 H   0  0  0  0  0  0  0  0  0  0  0  0
    5.8051   -0.5478   -2.5142 H   0  0  0  0  0  0  0  0  0  0  0  0
    4.8699    0.9332   -2.2488 H   0  0  0  0  0  0  0  0  0  0  0  0
    6.5070    1.7343   -0.6762 H   0  0  0  0  0  0  0  0  0  0  0  0
    7.4179    1.1029   -2.0637 H   0  0  0  0  0  0  0  0  0  0  0  0
  1  2  1  0
  2  3  2  0
  2  4  1  0
  4  5  1  0
  5  6  1  0
  6  7  1  0
  7  8  1  0
  8  9  2  0
  9 10  1  0
 10 11  2  0
 11 12  1  0
 12 13  1  0
 13 14  1  0
 14 15  1  0
 15 16  1  0
 16 17  1  0
 17 18  1  1
 18 19  1  0
 19 20  1  0
 20 21  2  0
 21 22  1  0
 22 23  2  0
 17 24  1  0
 24 25  2  0
 25 26  1  0
 26 27  2  0
 27 28  1  0
 27 29  1  0
 29 30  2  0
 30 31  1  0
 17 32  1  0
 11 33  1  0
 33 34  2  0
  7 35  1  0
 35 36  1  0
 36  4  1  0
 34  8  1  0
 32 14  1  0
 23 19  1  0
 30 24  1  0
  1 37  1  0
  1 38  1  0
  1 39  1  0
  5 40  1  0
  5 41  1  0
  6 42  1  0
  6 43  1  0
  9 44  1  0
 10 45  1  0
 13 46  1  0
 13 47  1  0
 14 48  1  1
 15 49  1  0
 15 50  1  0
 18 51  1  0
 18 52  1  0
 20 53  1  0
 21 54  1  0
 23 55  1  0
 25 56  1  0
 26 57  1  0
 29 58  1  0
 33 59  1  0
 34 60  1  0
 35 61  1  0
 35 62  1  0
 36 63  1  0
 36 64  1  0
M  END
$$$$
