@<TRIPOS>MOLECULE
*****
 64 68 0 0 0
SMALL
GASTEIGER

@<TRIPOS>ATOM
      1 C           9.5406   -1.2888    0.4636 C.3     1  UNL1        0.0124
      2 C           8.8266   -0.3666   -0.4620 C.2     1  UNL1        0.2126
      3 O           9.4765    0.1763   -1.3846 O.2     1  UNL1       -0.2759
      4 N           7.4527   -0.1008   -0.3165 N.am    1  UNL1       -0.2987
      5 C           6.7078   -0.7240    0.7421 C.3     1  UNL1        0.0304
      6 C           5.5289   -1.4628    0.0874 C.3     1  UNL1        0.0280
      7 N           4.7888   -0.4759   -0.6624 N.pl3   1  UNL1       -0.3269
      8 C           3.4432   -0.1992   -0.3713 C.ar    1  UNL1        0.0300
      9 C           2.8315    0.9791   -0.7290 C.ar    1  UNL1       -0.0372
     10 C           1.4996    1.2052   -0.4390 C.ar    1  UNL1       -0.0182
     11 C           0.7392    0.2877    0.2048 C.ar    1  UNL1        0.1207
     12 O          -0.5960    0.4529    0.5238 O.3     1  UNL1       -0.4893
     13 C          -1.3694    1.5702    0.2417 C.3     1  UNL1        0.1179
     14 C          -2.7687    1.3407    0.7599 C.3     1  UNL1        0.1195
     15 C          -2.7436    0.8805    2.2147 C.3     1  UNL1        0.0808
     16 O          -4.0386    0.3881    2.3282 O.3     1  UNL1       -0.3406
     17 C          -4.4859    0.0465    1.0582 C.3     1  UNL1        0.2169
     18 C          -4.8111   -1.4277    1.0733 C.3     1  UNL1        0.0828
     19 N          -5.2921   -1.8946   -0.1976 N.ar    1  UNL1       -0.3313
     20 C          -4.5413   -2.3799   -1.2011 C.ar    1  UNL1        0.0242
     21 C          -5.3682   -2.7206   -2.2492 C.ar    1  UNL1        0.0454
     22 N          -6.6102   -2.4376   -1.8682 N.ar    1  UNL1       -0.2441
     23 C          -6.5710   -1.9303   -0.6100 C.ar    1  UNL1        0.0961
     24 C          -5.5723    0.9022    0.5471 C.ar    1  UNL1        0.0313
     25 C          -5.4616    1.6125   -0.6504 C.ar    1  UNL1       -0.0507
     26 C          -6.4923    2.3889   -1.1267 C.ar    1  UNL1       -0.0429
     27 C          -7.6828    2.5040   -0.4477 C.ar    1  UNL1        0.0424
     28 CL         -9.0011    3.5054   -1.0706 Cl      1  UNL1       -0.0835
     29 C          -7.8141    1.8126    0.7348 C.ar    1  UNL1       -0.0246
     30 C          -6.7629    1.0254    1.2140 C.ar    1  UNL1        0.0507
     31 CL         -6.9572    0.1698    2.7355 Cl      1  UNL1       -0.0830
     32 O          -3.3753    0.2378    0.1822 O.3     1  UNL1       -0.3343
     33 C           1.3190   -0.9033    0.5777 C.ar    1  UNL1       -0.0182
     34 C           2.6714   -1.1274    0.2804 C.ar    1  UNL1       -0.0372
     35 C           5.4946    0.2072   -1.7456 C.3     1  UNL1        0.0280
     36 C           6.7896    0.7938   -1.2250 C.3     1  UNL1        0.0304
     37 H          10.6449   -1.1719    0.3482 H       1  UNL1        0.0323
     38 H           9.3127   -1.1025    1.5168 H       1  UNL1        0.0323
     39 H           9.2467   -2.3496    0.2500 H       1  UNL1        0.0323
     40 H           7.3008   -1.4021    1.3620 H       1  UNL1        0.0480
     41 H           6.2266    0.0767    1.3603 H       1  UNL1        0.0480
     42 H           5.9188   -2.1972   -0.6591 H       1  UNL1        0.0479
     43 H           5.0003   -1.9326    0.9119 H       1  UNL1        0.0479
     44 H           3.3665    1.7575   -1.2379 H       1  UNL1        0.0637
     45 H           1.0505    2.1388   -0.7330 H       1  UNL1        0.0655
     46 H          -1.0032    2.5147    0.6746 H       1  UNL1        0.0723
     47 H          -1.4528    1.7340   -0.8521 H       1  UNL1        0.0723
     48 H          -3.3568    2.2644    0.7274 H       1  UNL1        0.0654
     49 H          -2.5120    1.6911    2.9098 H       1  UNL1        0.0588
     50 H          -2.0560    0.0110    2.2783 H       1  UNL1        0.0588
     51 H          -3.8328   -1.9309    1.3493 H       1  UNL1        0.0549
     52 H          -5.4830   -1.6609    1.9111 H       1  UNL1        0.0549
     53 H          -3.4756   -2.4991   -1.2238 H       1  UNL1        0.0825
     54 H          -5.0910   -3.1466   -3.2267 H       1  UNL1        0.0845
     55 H          -7.4243   -1.6039   -0.0236 H       1  UNL1        0.1029
     56 H          -4.5165    1.5058   -1.1801 H       1  UNL1        0.0623
     57 H          -6.3740    2.9239   -2.0534 H       1  UNL1        0.0632
     58 H          -8.7370    1.8820    1.2921 H       1  UNL1        0.0647
     59 H           0.7746   -1.6862    1.0963 H       1  UNL1        0.0655
     60 H           3.0784   -2.0862    0.5893 H       1  UNL1        0.0637
     61 H           5.8051   -0.5478   -2.5142 H       1  UNL1        0.0479
     62 H           4.8699    0.9332   -2.2488 H       1  UNL1        0.0479
     63 H           6.5070    1.7343   -0.6762 H       1  UNL1        0.0480
     64 H           7.4179    1.1029   -2.0637 H       1  UNL1        0.0480
@<TRIPOS>BOND
     1     1     2    1
     2     2     3    2
     3     2     4   am
     4     4     5    1
     5     5     6    1
     6     6     7    1
     7     7     8    1
     8     8     9   ar
     9     9    10   ar
    10    10    11   ar
    11    11    12    1
    12    12    13    1
    13    13    14    1
    14    14    15    1
    15    15    16    1
    16    16    17    1
    17    17    18    1
    18    18    19    1
    19    19    20   ar
    20    20    21   ar
    21    21    22   ar
    22    22    23   ar
    23    17    24    1
    24    24    25   ar
    25    25    26   ar
    26    26    27   ar
    27    27    28    1
    28    27    29   ar
    29    29    30   ar
    30    30    31    1
    31    17    32    1
    32    11    33   ar
    33    33    34   ar
    34     7    35    1
    35    35    36    1
    36    36     4    1
    37    34     8   ar
    38    32    14    1
    39    23    19   ar
    40    30    24   ar
    41     1    37    1
    42     1    38    1
    43     1    39    1
    44     5    40    1
    45     5    41    1
    46     6    42    1
    47     6    43    1
    48     9    44    1
    49    10    45    1
    50    13    46    1
    51    13    47    1
    52    14    48    1
    53    15    49    1
    54    15    50    1
    55    18    51    1
    56    18    52    1
    57    20    53    1
    58    21    54    1
    59    23    55    1
    60    25    56    1
    61    26    57    1
    62    29    58    1
    63    33    59    1
    64    34    60    1
    65    35    61    1
    66    35    62    1
    67    36    63    1
    68    36    64    1
