@<TRIPOS>MOLECULE
*****
 49 53 0 0 0
SMALL
GASTEIGER

@<TRIPOS>ATOM
      1 O           5.0005    1.2705    1.8746 O.2     1  UNL1       -0.2696
      2 C           4.9571    0.2430    1.1273 C.2     1  UNL1        0.2508
      3 N           4.1454   -0.8792    1.4030 N.am    1  UNL1       -0.3073
      4 C           3.3030   -0.8981    2.5906 C.3     1  UNL1        0.0510
      5 C           2.2910    0.2447    2.5812 C.3     1  UNL1        0.1421
      6 O           1.5407    0.0981    3.7966 O.3     1  UNL1       -0.4431
      7 C           0.1824    0.2726    3.5011 C.2     1  UNL1        0.4081
      8 O          -0.7574    0.5189    4.3009 O.2     1  UNL1       -0.2259
      9 N           0.0237    0.1235    2.1108 N.am    1  UNL1       -0.2239
     10 C          -1.1012    0.0719    1.2410 C.ar    1  UNL1        0.0817
     11 C          -2.3416   -0.2081    1.7667 C.ar    1  UNL1       -0.0348
     12 C          -3.4196   -0.2535    0.9089 C.ar    1  UNL1       -0.0383
     13 C          -3.2393   -0.0181   -0.4611 C.ar    1  UNL1        0.0400
     14 N          -4.3831   -0.0742   -1.2696 N.am    1  UNL1       -0.2672
     15 C          -5.7170   -0.3020   -0.6914 C.3     1  UNL1        0.0433
     16 C          -6.7902    0.0571   -1.7011 C.3     1  UNL1        0.0644
     17 O          -6.4564    1.1469   -2.4810 O.3     1  UNL1       -0.3690
     18 C          -5.4744    0.7705   -3.4007 C.3     1  UNL1        0.1242
     19 C          -4.3753    0.0863   -2.6856 C.2     1  UNL1        0.2456
     20 O          -3.4184   -0.3610   -3.3419 O.2     1  UNL1       -0.2727
     21 C          -1.9820    0.2582   -0.9428 C.ar    1  UNL1        0.0034
     22 C          -0.8995    0.3066   -0.1001 C.ar    1  UNL1        0.1438
     23 O           0.3865    0.5888   -0.5914 O.3     1  UNL1       -0.4881
     24 C           1.3884    0.9877    0.3594 C.3     1  UNL1        0.1122
     25 C           1.3247    0.0002    1.4819 C.3     1  UNL1        0.1067
     26 C           5.7863    0.1997   -0.0915 C.ar    1  UNL1        0.0752
     27 C           5.9007   -0.7723   -1.0206 C.ar    1  UNL1       -0.0411
     28 C           6.7323   -0.5809   -2.0580 C.ar    1  UNL1       -0.0355
     29 C           7.4340    0.5706   -2.1535 C.ar    1  UNL1        0.0787
     30 CL          8.5686    1.1703   -3.3022 Cl      1  UNL1       -0.0758
     31 S           6.8684    1.4618   -0.6433 S.2     1  UNL1       -0.0722
     32 H           4.1527   -1.6920    0.7531 H       1  UNL1        0.1492
     33 H           3.9585   -0.8303    3.5066 H       1  UNL1        0.0499
     34 H           2.7953   -1.8796    2.6612 H       1  UNL1        0.0499
     35 H           2.7822    1.2170    2.5870 H       1  UNL1        0.0770
     36 H          -2.4350   -0.3830    2.8281 H       1  UNL1        0.0638
     37 H          -4.3921   -0.4706    1.3049 H       1  UNL1        0.0637
     38 H          -5.8698    0.3699    0.1773 H       1  UNL1        0.0491
     39 H          -5.8641   -1.3579   -0.4167 H       1  UNL1        0.0491
     40 H          -7.0816   -0.8288   -2.3001 H       1  UNL1        0.0576
     41 H          -7.7131    0.3571   -1.1231 H       1  UNL1        0.0576
     42 H          -5.8852    0.1252   -4.1844 H       1  UNL1        0.0657
     43 H          -5.0687    1.7227   -3.8388 H       1  UNL1        0.0657
     44 H          -1.7933    0.4494   -1.9790 H       1  UNL1        0.0673
     45 H           2.3711    1.0527   -0.1090 H       1  UNL1        0.0717
     46 H           1.0368    1.9867    0.7357 H       1  UNL1        0.0717
     47 H           1.3711   -1.0205    1.0542 H       1  UNL1        0.0577
     48 H           5.2977   -1.7139   -0.9008 H       1  UNL1        0.0631
     49 H           6.8595   -1.3740   -2.8644 H       1  UNL1        0.0638
@<TRIPOS>BOND
     1     1     2    2
     2     2     3   am
     3     3     4    1
     4     4     5    1
     5     5     6    1
     6     6     7    1
     7     7     8    2
     8     7     9   am
     9     9    10    1
    10    10    11   ar
    11    11    12   ar
    12    12    13   ar
    13    13    14    1
    14    14    15    1
    15    15    16    1
    16    16    17    1
    17    17    18    1
    18    18    19    1
    19    19    20    2
    20    13    21   ar
    21    21    22   ar
    22    22    23    1
    23    23    24    1
    24    24    25    1
    25     2    26    1
    26    26    27   ar
    27    27    28   ar
    28    28    29   ar
    29    29    30    1
    30    29    31   ar
    31    25     5    1
    32    31    26   ar
    33    25     9    1
    34    22    10   ar
    35    19    14   am
    36     3    32    1
    37     4    33    1
    38     4    34    1
    39     5    35    1
    40    11    36    1
    41    12    37    1
    42    15    38    1
    43    15    39    1
    44    16    40    1
    45    16    41    1
    46    18    42    1
    47    18    43    1
    48    21    44    1
    49    24    45    1
    50    24    46    1
    51    25    47    1
    52    27    48    1
    53    28    49    1
