
     RDKit          3D

 61 68  0  0  0  0  0  0  0  0999 V2000
    3.8379    3.1413    0.8236 C   0  0  0  0  0  0  0  0  0  0  0  0
    3.7781    1.6747    0.7258 N   0  0  0  0  0  0  0  0  0  0  0  0
    2.9086    1.3785   -0.3714 C   0  0  2  0  0  0  0  0  0  0  0  0
    1.5460    1.9915   -0.0482 C   0  0  0  0  0  0  0  0  0  0  0  0
    0.6921    1.7769   -1.2767 C   0  0  1  0  0  0  0  0  0  0  0  0
    0.9963    0.7249   -2.0386 O   0  0  0  0  0  0  0  0  0  0  0  0
    1.5231   -0.4206   -1.4254 C   0  0  1  0  0  0  0  0  0  0  0  0
    2.1076   -1.2061   -2.6013 C   0  0  0  0  0  0  0  0  0  0  0  0
    2.6305   -0.1299   -0.4647 C   0  0  2  0  0  0  0  0  0  0  0  0
    2.3709   -0.5505    0.8254 O   0  0  0  0  0  0  0  0  0  0  0  0
    3.3999   -1.3925    1.2906 C   0  0  0  0  0  0  0  0  0  0  0  0
    0.4304   -1.2041   -0.8421 N   0  0  0  0  0  0  0  0  0  0  0  0
    0.3997   -2.5308   -0.6396 C   0  0  0  0  0  0  0  0  0  0  0  0
    1.3191   -3.5154   -0.8390 C   0  0  0  0  0  0  0  0  0  0  0  0
    1.0210   -4.8445   -0.5271 C   0  0  0  0  0  0  0  0  0  0  0  0
   -0.1963   -5.2131   -0.0116 C   0  0  0  0  0  0  0  0  0  0  0  0
   -1.1281   -4.2293    0.1935 C   0  0  0  0  0  0  0  0  0  0  0  0
   -0.8311   -2.9227   -0.1146 C   0  0  0  0  0  0  0  0  0  0  0  0
   -1.5585   -1.7823    0.0023 C   0  0  0  0  0  0  0  0  0  0  0  0
   -2.8508   -1.5136    0.4573 C   0  0  0  0  0  0  0  0  0  0  0  0
   -3.3825   -0.2311    0.4809 C   0  0  0  0  0  0  0  0  0  0  0  0
   -2.5667    0.7812    0.0305 C   0  0  0  0  0  0  0  0  0  0  0  0
   -2.7184    2.1371   -0.0792 C   0  0  0  0  0  0  0  0  0  0  0  0
   -3.7415    2.9966    0.1994 C   0  0  0  0  0  0  0  0  0  0  0  0
   -3.5804    4.3665   -0.0290 C   0  0  0  0  0  0  0  0  0  0  0  0
   -2.3994    4.8528   -0.5320 C   0  0  0  0  0  0  0  0  0  0  0  0
   -1.3510    4.0051   -0.8216 C   0  0  0  0  0  0  0  0  0  0  0  0
   -1.5281    2.6633   -0.5906 C   0  0  0  0  0  0  0  0  0  0  0  0
   -0.6771    1.6655   -0.7879 N   0  0  0  0  0  0  0  0  0  0  0  0
   -1.2725    0.5062   -0.4246 C   0  0  0  0  0  0  0  0  0  0  0  0
   -0.7848   -0.7741   -0.4353 C   0  0  0  0  0  0  0  0  0  0  0  0
   -4.7362   -0.2878    0.9983 C   0  0  0  0  0  0  0  0  0  0  0  0
   -5.5525    0.6300    1.1793 O   0  0  0  0  0  0  0  0  0  0  0  0
   -5.0025   -1.6718    1.2888 N   0  0  0  0  0  0  0  0  0  0  0  0
   -3.8466   -2.4568    0.9730 C   0  0  0  0  0  0  0  0  0  0  0  0
    3.6236    3.6198   -0.1350 H   0  0  0  0  0  0  0  0  0  0  0  0
    4.8342    3.4814    1.1672 H   0  0  0  0  0  0  0  0  0  0  0  0
    3.1187    3.4760    1.6204 H   0  0  0  0  0  0  0  0  0  0  0  0
    4.7703    1.3816    0.5536 H   0  0  0  0  0  0  0  0  0  0  0  0
    3.2388    1.7921   -1.3271 H   0  0  0  0  0  0  0  0  0  0  0  0
    1.6239    3.0599    0.1778 H   0  0  0  0  0  0  0  0  0  0  0  0
    1.1143    1.3855    0.7739 H   0  0  0  0  0  0  0  0  0  0  0  0
    0.7860    2.7103   -1.8945 H   0  0  0  0  0  0  0  0  0  0  0  0
    3.1550   -1.5159   -2.4310 H   0  0  0  0  0  0  0  0  0  0  0  0
    2.2120   -0.5387   -3.5243 H   0  0  0  0  0  0  0  0  0  0  0  0
    1.4296   -1.9975   -2.9644 H   0  0  0  0  0  0  0  0  0  0  0  0
    3.6045   -0.5788   -0.7973 H   0  0  0  0  0  0  0  0  0  0  0  0
    4.3759   -0.8647    1.2910 H   0  0  0  0  0  0  0  0  0  0  0  0
    3.5247   -2.2127    0.5240 H   0  0  0  0  0  0  0  0  0  0  0  0
    3.1458   -1.8279    2.2657 H   0  0  0  0  0  0  0  0  0  0  0  0
    2.2772   -3.2839   -1.2206 H   0  0  0  0  0  0  0  0  0  0  0  0
    1.7594   -5.6274   -0.6889 H   0  0  0  0  0  0  0  0  0  0  0  0
   -0.4486   -6.2366    0.2369 H   0  0  0  0  0  0  0  0  0  0  0  0
   -2.1083   -4.5130    0.6064 H   0  0  0  0  0  0  0  0  0  0  0  0
   -4.6922    2.7215    0.5900 H   0  0  0  0  0  0  0  0  0  0  0  0
   -4.3742    5.0696    0.1828 H   0  0  0  0  0  0  0  0  0  0  0  0
   -2.2592    5.9202   -0.7154 H   0  0  0  0  0  0  0  0  0  0  0  0
   -0.4061    4.3706   -1.2211 H   0  0  0  0  0  0  0  0  0  0  0  0
   -5.9244   -1.9860    1.6715 H   0  0  0  0  0  0  0  0  0  0  0  0
   -3.4902   -3.0210    1.8670 H   0  0  0  0  0  0  0  0  0  0  0  0
   -4.1469   -3.1992    0.1837 H   0  0  0  0  0  0  0  0  0  0  0  0
  1  2  1  0
  2  3  1  0
  3  4  1  0
  4  5  1  0
  5  6  1  0
  6  7  1  0
  7  8  1  6
  7  9  1  0
  9 10  1  0
 10 11  1  0
  7 12  1  0
 12 13  1  0
 13 14  2  0
 14 15  1  0
 15 16  2  0
 16 17  1  0
 17 18  2  0
 18 19  1  0
 19 20  2  0
 20 21  1  0
 21 22  2  0
 22 23  1  0
 23 24  2  0
 24 25  1  0
 25 26  2  0
 26 27  1  0
 27 28  2  0
 28 29  1  0
 29 30  1  0
 30 31  2  0
 21 32  1  0
 32 33  2  0
 32 34  1  0
 34 35  1  0
  9  3  1  0
 31 12  1  0
 29  5  1  0
 18 13  1  0
 31 19  1  0
 35 20  1  0
 30 22  1  0
 28 23  1  0
  1 36  1  0
  1 37  1  0
  1 38  1  0
  2 39  1  0
  3 40  1  6
  4 41  1  0
  4 42  1  0
  5 43  1  6
  8 44  1  0
  8 45  1  0
  8 46  1  0
  9 47  1  6
 11 48  1  0
 11 49  1  0
 11 50  1  0
 14 51  1  0
 15 52  1  0
 16 53  1  0
 17 54  1  0
 24 55  1  0
 25 56  1  0
 26 57  1  0
 27 58  1  0
 34 59  1  0
 35 60  1  0
 35 61  1  0
M  END
$$$$
