@<TRIPOS>MOLECULE
*****
 61 68 0 0 0
SMALL
GASTEIGER

@<TRIPOS>ATOM
      1 C           3.8379    3.1413    0.8236 C.3     1  UNL1       -0.0155
      2 N           3.7781    1.6747    0.7258 N.3     1  UNL1       -0.3136
      3 C           2.9086    1.3785   -0.3714 C.3     1  UNL1        0.0423
      4 C           1.5460    1.9915   -0.0482 C.3     1  UNL1        0.0107
      5 C           0.6921    1.7769   -1.2767 C.3     1  UNL1        0.1402
      6 O           0.9963    0.7249   -2.0386 O.3     1  UNL1       -0.3282
      7 C           1.5231   -0.4206   -1.4254 C.3     1  UNL1        0.1741
      8 C           2.1076   -1.2061   -2.6013 C.3     1  UNL1       -0.0136
      9 C           2.6305   -0.1299   -0.4647 C.3     1  UNL1        0.1214
     10 O           2.3709   -0.5505    0.8254 O.3     1  UNL1       -0.3735
     11 C           3.3999   -1.3925    1.2906 C.3     1  UNL1        0.0371
     12 N           0.4304   -1.2041   -0.8421 N.ar    1  UNL1       -0.3070
     13 C           0.3997   -2.5308   -0.6396 C.ar    1  UNL1        0.0527
     14 C           1.3191   -3.5154   -0.8390 C.ar    1  UNL1       -0.0375
     15 C           1.0210   -4.8445   -0.5271 C.ar    1  UNL1       -0.0598
     16 C          -0.1963   -5.2131   -0.0116 C.ar    1  UNL1       -0.0611
     17 C          -1.1281   -4.2293    0.1935 C.ar    1  UNL1       -0.0520
     18 C          -0.8311   -2.9227   -0.1146 C.ar    1  UNL1        0.0081
     19 C          -1.5585   -1.7823    0.0023 C.ar    1  UNL1        0.0151
     20 C          -2.8508   -1.5136    0.4573 C.ar    1  UNL1       -0.0078
     21 C          -3.3825   -0.2311    0.4809 C.ar    1  UNL1        0.0518
     22 C          -2.5667    0.7812    0.0305 C.ar    1  UNL1        0.0221
     23 C          -2.7184    2.1371   -0.0792 C.ar    1  UNL1        0.0085
     24 C          -3.7415    2.9966    0.1994 C.ar    1  UNL1       -0.0520
     25 C          -3.5804    4.3665   -0.0290 C.ar    1  UNL1       -0.0611
     26 C          -2.3994    4.8528   -0.5320 C.ar    1  UNL1       -0.0598
     27 C          -1.3510    4.0051   -0.8216 C.ar    1  UNL1       -0.0375
     28 C          -1.5281    2.6633   -0.5906 C.ar    1  UNL1        0.0524
     29 N          -0.6771    1.6655   -0.7879 N.ar    1  UNL1       -0.3115
     30 C          -1.2725    0.5062   -0.4246 C.ar    1  UNL1        0.0774
     31 C          -0.7848   -0.7741   -0.4353 C.ar    1  UNL1        0.0772
     32 C          -4.7362   -0.2878    0.9983 C.2     1  UNL1        0.2453
     33 O          -5.5525    0.6300    1.1793 O.2     1  UNL1       -0.2702
     34 N          -5.0025   -1.6718    1.2888 N.am    1  UNL1       -0.3072
     35 C          -3.8466   -2.4568    0.9730 C.3     1  UNL1        0.0385
     36 H           3.6236    3.6198   -0.1350 H       1  UNL1        0.0388
     37 H           4.8342    3.4814    1.1672 H       1  UNL1        0.0388
     38 H           3.1187    3.4760    1.6204 H       1  UNL1        0.0388
     39 H           4.7703    1.3816    0.5536 H       1  UNL1        0.1220
     40 H           3.2388    1.7921   -1.3271 H       1  UNL1        0.0489
     41 H           1.6239    3.0599    0.1778 H       1  UNL1        0.0325
     42 H           1.1143    1.3855    0.7739 H       1  UNL1        0.0325
     43 H           0.7860    2.7103   -1.8945 H       1  UNL1        0.0839
     44 H           3.1550   -1.5159   -2.4310 H       1  UNL1        0.0277
     45 H           2.2120   -0.5387   -3.5243 H       1  UNL1        0.0277
     46 H           1.4296   -1.9975   -2.9644 H       1  UNL1        0.0277
     47 H           3.6045   -0.5788   -0.7973 H       1  UNL1        0.0660
     48 H           4.3759   -0.8647    1.2910 H       1  UNL1        0.0524
     49 H           3.5247   -2.2127    0.5240 H       1  UNL1        0.0524
     50 H           3.1458   -1.8279    2.2657 H       1  UNL1        0.0524
     51 H           2.2772   -3.2839   -1.2206 H       1  UNL1        0.0638
     52 H           1.7594   -5.6274   -0.6889 H       1  UNL1        0.0618
     53 H          -0.4486   -6.2366    0.2369 H       1  UNL1        0.0618
     54 H          -2.1083   -4.5130    0.6064 H       1  UNL1        0.0624
     55 H          -4.6922    2.7215    0.5900 H       1  UNL1        0.0624
     56 H          -4.3742    5.0696    0.1828 H       1  UNL1        0.0618
     57 H          -2.2592    5.9202   -0.7154 H       1  UNL1        0.0618
     58 H          -0.4061    4.3706   -1.2211 H       1  UNL1        0.0638
     59 H          -5.9244   -1.9860    1.6715 H       1  UNL1        0.1493
     60 H          -3.4902   -3.0210    1.8670 H       1  UNL1        0.0512
     61 H          -4.1469   -3.1992    0.1837 H       1  UNL1        0.0512
@<TRIPOS>BOND
     1     1     2    1
     2     2     3    1
     3     3     4    1
     4     4     5    1
     5     5     6    1
     6     6     7    1
     7     7     8    1
     8     7     9    1
     9     9    10    1
    10    10    11    1
    11     7    12    1
    12    12    13   ar
    13    13    14   ar
    14    14    15   ar
    15    15    16   ar
    16    16    17   ar
    17    17    18   ar
    18    18    19   ar
    19    19    20   ar
    20    20    21   ar
    21    21    22   ar
    22    22    23   ar
    23    23    24   ar
    24    24    25   ar
    25    25    26   ar
    26    26    27   ar
    27    27    28   ar
    28    28    29   ar
    29    29    30   ar
    30    30    31   ar
    31    21    32    1
    32    32    33    2
    33    32    34   am
    34    34    35    1
    35     9     3    1
    36    31    12   ar
    37    29     5    1
    38    18    13   ar
    39    31    19   ar
    40    35    20    1
    41    30    22   ar
    42    28    23   ar
    43     1    36    1
    44     1    37    1
    45     1    38    1
    46     2    39    1
    47     3    40    1
    48     4    41    1
    49     4    42    1
    50     5    43    1
    51     8    44    1
    52     8    45    1
    53     8    46    1
    54     9    47    1
    55    11    48    1
    56    11    49    1
    57    11    50    1
    58    14    51    1
    59    15    52    1
    60    16    53    1
    61    17    54    1
    62    24    55    1
    63    25    56    1
    64    26    57    1
    65    27    58    1
    66    34    59    1
    67    35    60    1
    68    35    61    1
