@<TRIPOS>MOLECULE
*****
 40 41 0 0 0
SMALL
GASTEIGER

@<TRIPOS>ATOM
      1 C           1.3367   -0.4787    0.4768 C.3     1  UNL1        0.0976
      2 C           0.4427    0.6499   -0.0059 C.3     1  UNL1        0.0232
      3 N          -0.8745    0.1287   -0.1090 N.3     1  UNL1       -0.2950
      4 C          -1.8820    1.0493   -0.4838 C.3     1  UNL1        0.0242
      5 C          -3.2334    0.4850   -0.5830 C.ar    1  UNL1       -0.0332
      6 C          -3.6184   -0.0288   -1.8260 C.ar    1  UNL1       -0.0546
      7 C          -4.8431   -0.5800   -2.0534 C.ar    1  UNL1       -0.0262
      8 C          -5.7897   -0.6624   -1.0465 C.ar    1  UNL1        0.1234
      9 F          -7.0234   -1.1799   -1.1454 F       1  UNL1       -0.2055
     10 C          -5.4331   -0.1678    0.1693 C.ar    1  UNL1       -0.0262
     11 C          -4.2007    0.3881    0.4021 C.ar    1  UNL1       -0.0546
     12 C          -1.2139   -0.9029    0.7986 C.3     1  UNL1        0.0118
     13 C          -0.4184   -0.8391    2.0796 C.3     1  UNL1        0.0094
     14 N           1.0044   -0.7701    1.8531 N.3     1  UNL1       -0.3034
     15 C           2.7229    0.0621    0.4875 C.2     1  UNL1        0.2313
     16 O           3.1653    0.0992    1.6482 O.2     1  UNL1       -0.2741
     17 N           3.4476    0.4774   -0.6383 N.am    1  UNL1       -0.3132
     18 C           4.7907    0.9932   -0.5620 C.3     1  UNL1        0.0204
     19 C           5.7569   -0.0078    0.0270 C.3     1  UNL1        0.0063
     20 S           5.8265   -1.5235   -0.9661 S.3     1  UNL1       -0.1767
     21 H           1.2118   -1.3499   -0.1959 H       1  UNL1        0.0569
     22 H           0.5428    1.4944    0.6984 H       1  UNL1        0.0447
     23 H           0.7583    0.9905   -1.0131 H       1  UNL1        0.0447
     24 H          -1.6073    1.5003   -1.4779 H       1  UNL1        0.0476
     25 H          -1.8797    1.9322    0.2065 H       1  UNL1        0.0476
     26 H          -2.9677   -0.0216   -2.6884 H       1  UNL1        0.0622
     27 H          -5.1423   -0.9811   -3.0254 H       1  UNL1        0.0646
     28 H          -6.0937   -0.1807    1.0253 H       1  UNL1        0.0646
     29 H          -3.8884    0.7942    1.3735 H       1  UNL1        0.0622
     30 H          -2.2632   -0.9778    1.0774 H       1  UNL1        0.0439
     31 H          -0.9664   -1.8781    0.2952 H       1  UNL1        0.0439
     32 H          -0.6104   -1.7483    2.6920 H       1  UNL1        0.0437
     33 H          -0.7115    0.0524    2.6724 H       1  UNL1        0.0437
     34 H           1.5582   -1.5262    2.2596 H       1  UNL1        0.1227
     35 H           2.9939    0.4086   -1.5618 H       1  UNL1        0.1488
     36 H           5.1382    1.4161   -1.5159 H       1  UNL1        0.0470
     37 H           4.7504    1.8350    0.1725 H       1  UNL1        0.0470
     38 H           5.3792   -0.2869    1.0310 H       1  UNL1        0.0389
     39 H           6.7577    0.4000    0.1759 H       1  UNL1        0.0389
     40 H           7.0768   -2.1283   -0.7242 H       1  UNL1        0.1017
@<TRIPOS>BOND
     1     1     2    1
     2     2     3    1
     3     3     4    1
     4     4     5    1
     5     5     6   ar
     6     6     7   ar
     7     7     8   ar
     8     8     9    1
     9     8    10   ar
    10    10    11   ar
    11     3    12    1
    12    12    13    1
    13    13    14    1
    14     1    15    1
    15    15    16    2
    16    15    17   am
    17    17    18    1
    18    18    19    1
    19    19    20    1
    20    14     1    1
    21    11     5   ar
    22     1    21    1
    23     2    22    1
    24     2    23    1
    25     4    24    1
    26     4    25    1
    27     6    26    1
    28     7    27    1
    29    10    28    1
    30    11    29    1
    31    12    30    1
    32    12    31    1
    33    13    32    1
    34    13    33    1
    35    14    34    1
    36    17    35    1
    37    18    36    1
    38    18    37    1
    39    19    38    1
    40    19    39    1
    41    20    40    1
