
     RDKit          3D

 80 86  0  0  0  0  0  0  0  0999 V2000
   -9.1532   -1.4316   -0.8359 C   0  0  0  0  0  0  0  0  0  0  0  0
   -8.1124   -2.4277   -0.4741 C   0  0  0  0  0  0  0  0  0  0  0  0
   -8.4583   -3.7031   -0.0719 C   0  0  0  0  0  0  0  0  0  0  0  0
   -7.4739   -4.6087    0.2582 C   0  0  0  0  0  0  0  0  0  0  0  0
   -6.1546   -4.2129    0.1774 C   0  0  0  0  0  0  0  0  0  0  0  0
   -5.8170   -2.9717   -0.2139 N   0  0  0  0  0  0  0  0  0  0  0  0
   -6.7691   -2.0697   -0.5417 C   0  0  0  0  0  0  0  0  0  0  0  0
   -6.4610   -0.6878   -0.9821 C   0  0  0  0  0  0  0  0  0  0  0  0
   -5.0155   -0.5109   -0.9574 N   0  0  0  0  0  0  0  0  0  0  0  0
   -4.6558    0.8334   -1.4064 C   0  0  0  0  0  0  0  0  0  0  0  0
   -3.1373    0.9343   -1.2552 C   0  0  0  0  0  0  0  0  0  0  0  0
   -2.8573    1.0994    0.2072 C   0  0  0  0  0  0  0  0  0  0  0  0
   -3.9606    0.5155    1.0292 C   0  0  0  0  0  0  0  0  0  0  0  0
   -4.5443   -0.7108    0.3942 C   0  0  0  0  0  0  0  0  0  0  0  0
   -1.6035    0.3341    0.5155 C   0  0  0  0  0  0  0  0  0  0  0  0
   -1.5747   -0.8732    0.8120 O   0  0  0  0  0  0  0  0  0  0  0  0
   -0.5040    1.2289    0.4062 N   0  0  0  0  0  0  0  0  0  0  0  0
    0.8705    0.9053    0.2600 C   0  0  0  0  0  0  0  0  0  0  0  0
    1.2717   -0.4308    0.1524 C   0  0  0  0  0  0  0  0  0  0  0  0
    2.6194   -0.7473    0.0168 C   0  0  0  0  0  0  0  0  0  0  0  0
    3.6062    0.2150   -0.0179 C   0  0  0  0  0  0  0  0  0  0  0  0
    5.0067   -0.1448   -0.1604 C   0  0  0  0  0  0  0  0  0  0  0  0
    6.0021    0.6149    0.4008 C   0  0  0  0  0  0  0  0  0  0  0  0
    7.3458    0.2788    0.2701 C   0  0  0  0  0  0  0  0  0  0  0  0
    7.7361   -0.8303   -0.4278 C   0  0  0  0  0  0  0  0  0  0  0  0
    9.0791   -1.1844   -0.5737 N   0  0  0  0  0  0  0  0  0  0  0  0
   10.1725   -0.4056   -0.0905 C   0  0  0  0  0  0  0  0  0  0  0  0
   10.9092   -1.2982    0.9212 C   0  0  0  0  0  0  0  0  0  0  0  0
   11.1050   -2.5636    0.4416 O   0  0  0  0  0  0  0  0  0  0  0  0
   10.8510   -2.7625   -0.8905 C   0  0  0  0  0  0  0  0  0  0  0  0
    9.4155   -2.4270   -1.2567 C   0  0  0  0  0  0  0  0  0  0  0  0
    6.7111   -1.5928   -0.9927 C   0  0  0  0  0  0  0  0  0  0  0  0
    5.3780   -1.2771   -0.8747 C   0  0  0  0  0  0  0  0  0  0  0  0
    3.2064    1.5225    0.0879 C   0  0  0  0  0  0  0  0  0  0  0  0
    1.8650    1.8316    0.2226 C   0  0  0  0  0  0  0  0  0  0  0  0
   -1.0698    2.5176    0.4597 C   0  0  0  0  0  0  0  0  0  0  0  0
   -0.4442    3.6077    0.3973 O   0  0  0  0  0  0  0  0  0  0  0  0
   -2.5143    2.4309    0.6006 N   0  0  0  0  0  0  0  0  0  0  0  0
   -3.3009    3.5092    1.0438 C   0  0  0  0  0  0  0  0  0  0  0  0
   -3.8172    4.4018    0.1312 C   0  0  0  0  0  0  0  0  0  0  0  0
   -4.5904    5.4693    0.5128 C   0  0  0  0  0  0  0  0  0  0  0  0
   -5.0659    6.2931   -0.3399 O   0  0  0  0  0  0  0  0  0  0  0  0
   -4.8588    5.6605    1.8108 N   0  0  0  0  0  0  0  0  0  0  0  0
   -4.3637    4.8016    2.7052 C   0  0  0  0  0  0  0  0  0  0  0  0
   -3.6104    3.7606    2.3400 N   0  0  0  0  0  0  0  0  0  0  0  0
   -8.6870   -0.4506   -0.9776 H   0  0  0  0  0  0  0  0  0  0  0  0
   -9.7452   -1.7368   -1.7222 H   0  0  0  0  0  0  0  0  0  0  0  0
   -9.8190   -1.3480    0.0683 H   0  0  0  0  0  0  0  0  0  0  0  0
   -9.5228   -3.9749   -0.0225 H   0  0  0  0  0  0  0  0  0  0  0  0
   -7.7649   -5.6010    0.5702 H   0  0  0  0  0  0  0  0  0  0  0  0
   -5.4034   -4.9640    0.4486 H   0  0  0  0  0  0  0  0  0  0  0  0
   -6.8570   -0.0132   -0.1742 H   0  0  0  0  0  0  0  0  0  0  0  0
   -6.8762   -0.4430   -1.9736 H   0  0  0  0  0  0  0  0  0  0  0  0
   -4.9534    0.9517   -2.4604 H   0  0  0  0  0  0  0  0  0  0  0  0
   -5.1896    1.5635   -0.7948 H   0  0  0  0  0  0  0  0  0  0  0  0
   -2.7004    1.7018   -1.8923 H   0  0  0  0  0  0  0  0  0  0  0  0
   -2.7428   -0.0571   -1.6179 H   0  0  0  0  0  0  0  0  0  0  0  0
   -4.7923    1.2236    1.2160 H   0  0  0  0  0  0  0  0  0  0  0  0
   -3.5166    0.1917    1.9994 H   0  0  0  0  0  0  0  0  0  0  0  0
   -5.4014   -1.0166    1.0636 H   0  0  0  0  0  0  0  0  0  0  0  0
   -3.8447   -1.5609    0.3787 H   0  0  0  0  0  0  0  0  0  0  0  0
    0.5381   -1.2234    0.1700 H   0  0  0  0  0  0  0  0  0  0  0  0
    2.8457   -1.8115   -0.0603 H   0  0  0  0  0  0  0  0  0  0  0  0
    5.7367    1.4895    0.9544 H   0  0  0  0  0  0  0  0  0  0  0  0
    8.0591    0.9207    0.7379 H   0  0  0  0  0  0  0  0  0  0  0  0
   10.9274   -0.2184   -0.8976 H   0  0  0  0  0  0  0  0  0  0  0  0
    9.9448    0.5463    0.3742 H   0  0  0  0  0  0  0  0  0  0  0  0
   10.4292   -1.2789    1.9065 H   0  0  0  0  0  0  0  0  0  0  0  0
   11.9183   -0.8241    1.0354 H   0  0  0  0  0  0  0  0  0  0  0  0
   10.9903   -3.8335   -1.1427 H   0  0  0  0  0  0  0  0  0  0  0  0
   11.5177   -2.1066   -1.5096 H   0  0  0  0  0  0  0  0  0  0  0  0
    8.7810   -3.2243   -0.8251 H   0  0  0  0  0  0  0  0  0  0  0  0
    9.3317   -2.3636   -2.3397 H   0  0  0  0  0  0  0  0  0  0  0  0
    7.0315   -2.4730   -1.5461 H   0  0  0  0  0  0  0  0  0  0  0  0
    4.6065   -1.8747   -1.3157 H   0  0  0  0  0  0  0  0  0  0  0  0
    3.9137    2.3260    0.0694 H   0  0  0  0  0  0  0  0  0  0  0  0
    1.6301    2.8818    0.3017 H   0  0  0  0  0  0  0  0  0  0  0  0
   -3.6129    4.2669   -0.9223 H   0  0  0  0  0  0  0  0  0  0  0  0
   -5.4583    6.4889    2.1019 H   0  0  0  0  0  0  0  0  0  0  0  0
   -4.5768    4.9523    3.7438 H   0  0  0  0  0  0  0  0  0  0  0  0
  1  2  1  0
  2  3  2  0
  3  4  1  0
  4  5  2  0
  5  6  1  0
  6  7  2  0
  7  8  1  0
  8  9  1  0
  9 10  1  0
 10 11  1  0
 11 12  1  0
 12 13  1  0
 13 14  1  0
 12 15  1  0
 15 16  2  0
 15 17  1  0
 17 18  1  0
 18 19  2  0
 19 20  1  0
 20 21  2  0
 21 22  1  0
 22 23  2  0
 23 24  1  0
 24 25  2  0
 25 26  1  0
 26 27  1  0
 27 28  1  0
 28 29  1  0
 29 30  1  0
 30 31  1  0
 25 32  1  0
 32 33  2  0
 21 34  1  0
 34 35  2  0
 17 36  1  0
 36 37  2  0
 36 38  1  0
 38 39  1  0
 39 40  2  0
 40 41  1  0
 41 42  2  0
 41 43  1  0
 43 44  1  0
 44 45  2  0
  7  2  1  0
 14  9  1  0
 35 18  1  0
 45 39  1  0
 38 12  1  0
 33 22  1  0
 31 26  1  0
  1 46  1  0
  1 47  1  0
  1 48  1  0
  3 49  1  0
  4 50  1  0
  5 51  1  0
  8 52  1  0
  8 53  1  0
 10 54  1  0
 10 55  1  0
 11 56  1  0
 11 57  1  0
 13 58  1  0
 13 59  1  0
 14 60  1  0
 14 61  1  0
 19 62  1  0
 20 63  1  0
 23 64  1  0
 24 65  1  0
 27 66  1  0
 27 67  1  0
 28 68  1  0
 28 69  1  0
 30 70  1  0
 30 71  1  0
 31 72  1  0
 31 73  1  0
 32 74  1  0
 33 75  1  0
 34 76  1  0
 35 77  1  0
 40 78  1  0
 43 79  1  0
 44 80  1  0
M  END
$$$$
