@<TRIPOS>MOLECULE
*****
 80 86 0 0 0
SMALL
GASTEIGER

@<TRIPOS>ATOM
      1 C          -9.1532   -1.4316   -0.8359 C.3     1  UNL1       -0.0380
      2 C          -8.1124   -2.4277   -0.4741 C.ar    1  UNL1       -0.0279
      3 C          -8.4583   -3.7031   -0.0719 C.ar    1  UNL1       -0.0557
      4 C          -7.4739   -4.6087    0.2582 C.ar    1  UNL1       -0.0433
      5 C          -6.1546   -4.2129    0.1774 C.ar    1  UNL1        0.0279
      6 N          -5.8170   -2.9717   -0.2139 N.ar    1  UNL1       -0.2583
      7 C          -6.7691   -2.0697   -0.5417 C.ar    1  UNL1        0.0581
      8 C          -6.4610   -0.6878   -0.9821 C.3     1  UNL1        0.0415
      9 N          -5.0155   -0.5109   -0.9574 N.3     1  UNL1       -0.2965
     10 C          -4.6558    0.8334   -1.4064 C.3     1  UNL1        0.0017
     11 C          -3.1373    0.9343   -1.2552 C.3     1  UNL1       -0.0095
     12 C          -2.8573    1.0994    0.2072 C.3     1  UNL1        0.1240
     13 C          -3.9606    0.5155    1.0292 C.3     1  UNL1       -0.0095
     14 C          -4.5443   -0.7108    0.3942 C.3     1  UNL1        0.0017
     15 C          -1.6035    0.3341    0.5155 C.2     1  UNL1        0.2516
     16 O          -1.5747   -0.8732    0.8120 O.2     1  UNL1       -0.2724
     17 N          -0.5040    1.2289    0.4062 N.am    1  UNL1       -0.1920
     18 C           0.8705    0.9053    0.2600 C.ar    1  UNL1        0.0455
     19 C           1.2717   -0.4308    0.1524 C.ar    1  UNL1       -0.0392
     20 C           2.6194   -0.7473    0.0168 C.ar    1  UNL1       -0.0523
     21 C           3.6062    0.2150   -0.0179 C.ar    1  UNL1       -0.0178
     22 C           5.0067   -0.1448   -0.1604 C.ar    1  UNL1       -0.0178
     23 C           6.0021    0.6149    0.4008 C.ar    1  UNL1       -0.0523
     24 C           7.3458    0.2788    0.2701 C.ar    1  UNL1       -0.0401
     25 C           7.7361   -0.8303   -0.4278 C.ar    1  UNL1        0.0298
     26 N           9.0791   -1.1844   -0.5737 N.pl3   1  UNL1       -0.3255
     27 C          10.1725   -0.4056   -0.0905 C.3     1  UNL1        0.0357
     28 C          10.9092   -1.2982    0.9212 C.3     1  UNL1        0.0634
     29 O          11.1050   -2.5636    0.4416 O.3     1  UNL1       -0.3767
     30 C          10.8510   -2.7625   -0.8905 C.3     1  UNL1        0.0634
     31 C           9.4155   -2.4270   -1.2567 C.3     1  UNL1        0.0357
     32 C           6.7111   -1.5928   -0.9927 C.ar    1  UNL1       -0.0401
     33 C           5.3780   -1.2771   -0.8747 C.ar    1  UNL1       -0.0523
     34 C           3.2064    1.5225    0.0879 C.ar    1  UNL1       -0.0523
     35 C           1.8650    1.8316    0.2226 C.ar    1  UNL1       -0.0392
     36 C          -1.0698    2.5176    0.4597 C.2     1  UNL1        0.3219
     37 O          -0.4442    3.6077    0.3973 O.2     1  UNL1       -0.2512
     38 N          -2.5143    2.4309    0.6006 N.am    1  UNL1       -0.2240
     39 C          -3.3009    3.5092    1.0438 C.ar    1  UNL1        0.1364
     40 C          -3.8172    4.4018    0.1312 C.ar    1  UNL1        0.0432
     41 C          -4.5904    5.4693    0.5128 C.ar    1  UNL1        0.2531
     42 O          -5.0659    6.2931   -0.3399 O.2     1  UNL1       -0.2678
     43 N          -4.8588    5.6605    1.8108 N.ar    1  UNL1       -0.3133
     44 C          -4.3637    4.8016    2.7052 C.ar    1  UNL1        0.0981
     45 N          -3.6104    3.7606    2.3400 N.ar    1  UNL1       -0.2220
     46 H          -8.6870   -0.4506   -0.9776 H       1  UNL1        0.0278
     47 H          -9.7452   -1.7368   -1.7222 H       1  UNL1        0.0278
     48 H          -9.8190   -1.3480    0.0683 H       1  UNL1        0.0278
     49 H          -9.5228   -3.9749   -0.0225 H       1  UNL1        0.0621
     50 H          -7.7649   -5.6010    0.5702 H       1  UNL1        0.0633
     51 H          -5.4034   -4.9640    0.4486 H       1  UNL1        0.0829
     52 H          -6.8570   -0.0132   -0.1742 H       1  UNL1        0.0491
     53 H          -6.8762   -0.4430   -1.9736 H       1  UNL1        0.0491
     54 H          -4.9534    0.9517   -2.4604 H       1  UNL1        0.0427
     55 H          -5.1896    1.5635   -0.7948 H       1  UNL1        0.0427
     56 H          -2.7004    1.7018   -1.8923 H       1  UNL1        0.0303
     57 H          -2.7428   -0.0571   -1.6179 H       1  UNL1        0.0303
     58 H          -4.7923    1.2236    1.2160 H       1  UNL1        0.0303
     59 H          -3.5166    0.1917    1.9994 H       1  UNL1        0.0303
     60 H          -5.4014   -1.0166    1.0636 H       1  UNL1        0.0427
     61 H          -3.8447   -1.5609    0.3787 H       1  UNL1        0.0427
     62 H           0.5381   -1.2234    0.1700 H       1  UNL1        0.0636
     63 H           2.8457   -1.8115   -0.0603 H       1  UNL1        0.0624
     64 H           5.7367    1.4895    0.9544 H       1  UNL1        0.0624
     65 H           8.0591    0.9207    0.7379 H       1  UNL1        0.0636
     66 H          10.9274   -0.2184   -0.8976 H       1  UNL1        0.0486
     67 H           9.9448    0.5463    0.3742 H       1  UNL1        0.0486
     68 H          10.4292   -1.2789    1.9065 H       1  UNL1        0.0575
     69 H          11.9183   -0.8241    1.0354 H       1  UNL1        0.0575
     70 H          10.9903   -3.8335   -1.1427 H       1  UNL1        0.0575
     71 H          11.5177   -2.1066   -1.5096 H       1  UNL1        0.0575
     72 H           8.7810   -3.2243   -0.8251 H       1  UNL1        0.0486
     73 H           9.3317   -2.3636   -2.3397 H       1  UNL1        0.0486
     74 H           7.0315   -2.4730   -1.5461 H       1  UNL1        0.0636
     75 H           4.6065   -1.8747   -1.3157 H       1  UNL1        0.0624
     76 H           3.9137    2.3260    0.0694 H       1  UNL1        0.0624
     77 H           1.6301    2.8818    0.3017 H       1  UNL1        0.0636
     78 H          -3.6129    4.2669   -0.9223 H       1  UNL1        0.0706
     79 H          -5.4583    6.4889    2.1019 H       1  UNL1        0.1698
     80 H          -4.5768    4.9523    3.7438 H       1  UNL1        0.1028
@<TRIPOS>BOND
     1     1     2    1
     2     2     3   ar
     3     3     4   ar
     4     4     5   ar
     5     5     6   ar
     6     6     7   ar
     7     7     8    1
     8     8     9    1
     9     9    10    1
    10    10    11    1
    11    11    12    1
    12    12    13    1
    13    13    14    1
    14    12    15    1
    15    15    16    2
    16    15    17   am
    17    17    18    1
    18    18    19   ar
    19    19    20   ar
    20    20    21   ar
    21    21    22    1
    22    22    23   ar
    23    23    24   ar
    24    24    25   ar
    25    25    26    1
    26    26    27    1
    27    27    28    1
    28    28    29    1
    29    29    30    1
    30    30    31    1
    31    25    32   ar
    32    32    33   ar
    33    21    34   ar
    34    34    35   ar
    35    17    36   am
    36    36    37    2
    37    36    38   am
    38    38    39    1
    39    39    40   ar
    40    40    41   ar
    41    41    42    2
    42    41    43   ar
    43    43    44   ar
    44    44    45   ar
    45     7     2   ar
    46    14     9    1
    47    35    18   ar
    48    45    39   ar
    49    38    12    1
    50    33    22   ar
    51    31    26    1
    52     1    46    1
    53     1    47    1
    54     1    48    1
    55     3    49    1
    56     4    50    1
    57     5    51    1
    58     8    52    1
    59     8    53    1
    60    10    54    1
    61    10    55    1
    62    11    56    1
    63    11    57    1
    64    13    58    1
    65    13    59    1
    66    14    60    1
    67    14    61    1
    68    19    62    1
    69    20    63    1
    70    23    64    1
    71    24    65    1
    72    27    66    1
    73    27    67    1
    74    28    68    1
    75    28    69    1
    76    30    70    1
    77    30    71    1
    78    31    72    1
    79    31    73    1
    80    32    74    1
    81    33    75    1
    82    34    76    1
    83    35    77    1
    84    40    78    1
    85    43    79    1
    86    44    80    1
