
     RDKit          3D

 43 44  0  0  0  0  0  0  0  0999 V2000
    6.5313   -0.7192    1.1590 C   0  0  0  0  0  0  0  0  0  0  0  0
    5.8033   -1.3393   -0.3392 S   0  0  0  0  0  6  0  0  0  0  0  0
    5.8811   -2.8385   -0.4148 O   0  0  0  0  0  0  0  0  0  0  0  0
    6.4952   -0.7147   -1.5298 O   0  0  0  0  0  0  0  0  0  0  0  0
    4.1662   -0.8591   -0.3715 N   0  0  0  0  0  0  0  0  0  0  0  0
    3.3962   -1.3821    0.7127 C   0  0  0  0  0  0  0  0  0  0  0  0
    2.4164   -0.3629    1.1830 C   0  0  0  0  0  0  0  0  0  0  0  0
    1.6753    0.1570   -0.0544 C   0  0  0  0  0  0  0  0  0  0  0  0
    0.5181    0.8806    0.4095 N   0  0  0  0  0  0  0  0  0  0  0  0
   -0.7902    0.3865    0.0214 C   0  0  0  0  0  0  0  0  0  0  0  0
   -0.8168   -0.6380   -0.6920 O   0  0  0  0  0  0  0  0  0  0  0  0
   -1.9654    1.0297    0.4289 N   0  0  0  0  0  0  0  0  0  0  0  0
   -3.2943    0.6579    0.1251 C   0  0  0  0  0  0  0  0  0  0  0  0
   -4.3571    1.4089    0.6117 C   0  0  0  0  0  0  0  0  0  0  0  0
   -5.6455    1.0425    0.3130 C   0  0  0  0  0  0  0  0  0  0  0  0
   -5.9398   -0.0580   -0.4630 C   0  0  0  0  0  0  0  0  0  0  0  0
   -7.2322   -0.4460   -0.7769 O   0  0  0  0  0  0  0  0  0  0  0  0
   -7.9252    0.0037   -1.9121 C   0  0  0  0  0  0  0  0  0  0  0  0
   -7.2224   -0.3665   -3.0577 F   0  0  0  0  0  0  0  0  0  0  0  0
   -9.1710   -0.5805   -1.9161 F   0  0  0  0  0  0  0  0  0  0  0  0
   -7.9823    1.3749   -1.9110 F   0  0  0  0  0  0  0  0  0  0  0  0
   -4.9045   -0.8161   -0.9555 C   0  0  0  0  0  0  0  0  0  0  0  0
   -3.6021   -0.4268   -0.6403 C   0  0  0  0  0  0  0  0  0  0  0  0
    2.6526    1.0310   -0.7945 C   0  0  0  0  0  0  0  0  0  0  0  0
    4.0585    0.5658   -0.5405 C   0  0  0  0  0  0  0  0  0  0  0  0
    7.2078   -1.4642    1.6259 H   0  0  0  0  0  0  0  0  0  0  0  0
    7.0421    0.2378    0.9281 H   0  0  0  0  0  0  0  0  0  0  0  0
    5.7407   -0.5001    1.8976 H   0  0  0  0  0  0  0  0  0  0  0  0
    4.1045   -1.6767    1.5387 H   0  0  0  0  0  0  0  0  0  0  0  0
    2.8463   -2.3267    0.4341 H   0  0  0  0  0  0  0  0  0  0  0  0
    1.6618   -0.8380    1.8381 H   0  0  0  0  0  0  0  0  0  0  0  0
    2.9269    0.4491    1.7249 H   0  0  0  0  0  0  0  0  0  0  0  0
    1.3763   -0.6930   -0.6556 H   0  0  0  0  0  0  0  0  0  0  0  0
    0.5648    1.7320    1.0033 H   0  0  0  0  0  0  0  0  0  0  0  0
   -1.7999    1.9075    1.0451 H   0  0  0  0  0  0  0  0  0  0  0  0
   -4.1385    2.2689    1.2177 H   0  0  0  0  0  0  0  0  0  0  0  0
   -6.4781    1.6220    0.6881 H   0  0  0  0  0  0  0  0  0  0  0  0
   -5.0755   -1.6971   -1.5745 H   0  0  0  0  0  0  0  0  0  0  0  0
   -2.8493   -1.0804   -1.0697 H   0  0  0  0  0  0  0  0  0  0  0  0
    2.4061    1.0319   -1.8821 H   0  0  0  0  0  0  0  0  0  0  0  0
    2.5733    2.0835   -0.4282 H   0  0  0  0  0  0  0  0  0  0  0  0
    4.6736    0.8305   -1.4355 H   0  0  0  0  0  0  0  0  0  0  0  0
    4.4715    1.1221    0.3208 H   0  0  0  0  0  0  0  0  0  0  0  0
  1  2  1  0
  2  3  2  0
  2  4  2  0
  2  5  1  0
  5  6  1  0
  6  7  1  0
  7  8  1  0
  8  9  1  0
  9 10  1  0
 10 11  2  0
 10 12  1  0
 12 13  1  0
 13 14  2  0
 14 15  1  0
 15 16  2  0
 16 17  1  0
 17 18  1  0
 18 19  1  0
 18 20  1  0
 18 21  1  0
 16 22  1  0
 22 23  2  0
  8 24  1  0
 24 25  1  0
 25  5  1  0
 23 13  1  0
  1 26  1  0
  1 27  1  0
  1 28  1  0
  6 29  1  0
  6 30  1  0
  7 31  1  0
  7 32  1  0
  8 33  1  0
  9 34  1  0
 12 35  1  0
 14 36  1  0
 15 37  1  0
 22 38  1  0
 23 39  1  0
 24 40  1  0
 24 41  1  0
 25 42  1  0
 25 43  1  0
M  END
$$$$
