@<TRIPOS>MOLECULE
*****
 43 44 0 0 0
SMALL
GASTEIGER

@<TRIPOS>ATOM
      1 C           6.5313   -0.7192    1.1590 C.3     1  UNL1        0.0707
      2 S           5.8033   -1.3393   -0.3392 S.O2    1  UNL1        0.0290
      3 O           5.8811   -2.8385   -0.4148 O.2     1  UNL1       -0.1583
      4 O           6.4952   -0.7147   -1.5298 O.2     1  UNL1       -0.1583
      5 N           4.1662   -0.8591   -0.3715 N.3     1  UNL1       -0.1813
      6 C           3.3962   -1.3821    0.7127 C.3     1  UNL1        0.0218
      7 C           2.4164   -0.3629    1.1830 C.3     1  UNL1       -0.0200
      8 C           1.6753    0.1570   -0.0544 C.3     1  UNL1        0.0270
      9 N           0.5181    0.8806    0.4095 N.am    1  UNL1       -0.2962
     10 C          -0.7902    0.3865    0.0214 C.2     1  UNL1        0.3041
     11 O          -0.8168   -0.6380   -0.6920 O.2     1  UNL1       -0.2525
     12 N          -1.9654    1.0297    0.4289 N.am    1  UNL1       -0.2695
     13 C          -3.2943    0.6579    0.1251 C.ar    1  UNL1        0.0350
     14 C          -4.3571    1.4089    0.6117 C.ar    1  UNL1       -0.0370
     15 C          -5.6455    1.0425    0.3130 C.ar    1  UNL1       -0.0179
     16 C          -5.9398   -0.0580   -0.4630 C.ar    1  UNL1        0.1301
     17 O          -7.2322   -0.4460   -0.7769 O.3     1  UNL1       -0.4057
     18 C          -7.9252    0.0037   -1.9121 C.3     1  UNL1        0.5752
     19 F          -7.2224   -0.3665   -3.0577 F       1  UNL1       -0.1328
     20 F          -9.1710   -0.5805   -1.9161 F       1  UNL1       -0.1328
     21 F          -7.9823    1.3749   -1.9110 F       1  UNL1       -0.1328
     22 C          -4.9045   -0.8161   -0.9555 C.ar    1  UNL1       -0.0179
     23 C          -3.6021   -0.4268   -0.6403 C.ar    1  UNL1       -0.0370
     24 C           2.6526    1.0310   -0.7945 C.3     1  UNL1       -0.0200
     25 C           4.0585    0.5658   -0.5405 C.3     1  UNL1        0.0218
     26 H           7.2078   -1.4642    1.6259 H       1  UNL1        0.0479
     27 H           7.0421    0.2378    0.9281 H       1  UNL1        0.0479
     28 H           5.7407   -0.5001    1.8976 H       1  UNL1        0.0479
     29 H           4.1045   -1.6767    1.5387 H       1  UNL1        0.0444
     30 H           2.8463   -2.3267    0.4341 H       1  UNL1        0.0444
     31 H           1.6618   -0.8380    1.8381 H       1  UNL1        0.0296
     32 H           2.9269    0.4491    1.7249 H       1  UNL1        0.0296
     33 H           1.3763   -0.6930   -0.6556 H       1  UNL1        0.0499
     34 H           0.5648    1.7320    1.0033 H       1  UNL1        0.1505
     35 H          -1.7999    1.9075    1.0451 H       1  UNL1        0.1564
     36 H          -4.1385    2.2689    1.2177 H       1  UNL1        0.0637
     37 H          -6.4781    1.6220    0.6881 H       1  UNL1        0.0655
     38 H          -5.0755   -1.6971   -1.5745 H       1  UNL1        0.0655
     39 H          -2.8493   -1.0804   -1.0697 H       1  UNL1        0.0637
     40 H           2.4061    1.0319   -1.8821 H       1  UNL1        0.0296
     41 H           2.5733    2.0835   -0.4282 H       1  UNL1        0.0296
     42 H           4.6736    0.8305   -1.4355 H       1  UNL1        0.0444
     43 H           4.4715    1.1221    0.3208 H       1  UNL1        0.0444
@<TRIPOS>BOND
     1     1     2    1
     2     2     3    2
     3     2     4    2
     4     2     5    1
     5     5     6    1
     6     6     7    1
     7     7     8    1
     8     8     9    1
     9     9    10   am
    10    10    11    2
    11    10    12   am
    12    12    13    1
    13    13    14   ar
    14    14    15   ar
    15    15    16   ar
    16    16    17    1
    17    17    18    1
    18    18    19    1
    19    18    20    1
    20    18    21    1
    21    16    22   ar
    22    22    23   ar
    23     8    24    1
    24    24    25    1
    25    25     5    1
    26    23    13   ar
    27     1    26    1
    28     1    27    1
    29     1    28    1
    30     6    29    1
    31     6    30    1
    32     7    31    1
    33     7    32    1
    34     8    33    1
    35     9    34    1
    36    12    35    1
    37    14    36    1
    38    15    37    1
    39    22    38    1
    40    23    39    1
    41    24    40    1
    42    24    41    1
    43    25    42    1
    44    25    43    1
