
     RDKit          3D

 50 51  0  0  0  0  0  0  0  0999 V2000
    6.2928    1.9601    0.1231 C   0  0  0  0  0  0  0  0  0  0  0  0
    5.5237    0.9469    0.6973 O   0  0  0  0  0  0  0  0  0  0  0  0
    4.2798    0.5520    0.1653 C   0  0  0  0  0  0  0  0  0  0  0  0
    3.5446   -0.4394    0.7407 C   0  0  0  0  0  0  0  0  0  0  0  0
    2.3352   -0.7906    0.1852 C   0  0  0  0  0  0  0  0  0  0  0  0
    1.8225   -0.1851   -0.9358 C   0  0  0  0  0  0  0  0  0  0  0  0
    0.2999   -0.7380   -1.5565 S   0  0  0  0  0  6  0  0  0  0  0  0
    0.2791   -0.2466   -3.0249 O   0  0  0  0  0  0  0  0  0  0  0  0
    0.4429   -2.2296   -1.7364 O   0  0  0  0  0  0  0  0  0  0  0  0
   -1.0938   -0.2120   -0.8900 N   0  0  0  0  0  0  0  0  0  0  0  0
   -1.4381    1.1721   -0.9071 C   0  0  0  0  0  0  0  0  0  0  0  0
   -1.1264    1.9433    0.2931 C   0  0  0  0  0  0  0  0  0  0  0  0
   -2.0163    1.9606    1.3529 C   0  0  0  0  0  0  0  0  0  0  0  0
   -1.7036    2.7100    2.4629 C   0  0  0  0  0  0  0  0  0  0  0  0
   -0.5294    3.4300    2.5220 C   0  0  0  0  0  0  0  0  0  0  0  0
    0.3102    3.3926    1.4802 N   0  0  0  0  0  0  0  0  0  0  0  0
    0.0346    2.6665    0.3725 C   0  0  0  0  0  0  0  0  0  0  0  0
   -2.1941   -1.1035   -0.6282 C   0  0  1  0  0  0  0  0  0  0  0  0
   -2.7747   -1.6849   -1.8376 C   0  0  0  0  0  0  0  0  0  0  0  0
   -2.1597   -1.5531   -2.9201 O   0  0  0  0  0  0  0  0  0  0  0  0
   -3.9934   -2.3782   -1.8146 N   0  0  0  0  0  0  0  0  0  0  0  0
   -4.4464   -2.8875   -3.0102 O   0  0  0  0  0  0  0  0  0  0  0  0
   -1.8070   -2.0872    0.4465 C   0  0  0  0  0  0  0  0  0  0  0  0
   -1.4430   -1.3513    1.7459 C   0  0  0  0  0  0  0  0  0  0  0  0
   -2.8220   -3.0999    0.8205 C   0  0  0  0  0  0  0  0  0  0  0  0
    2.5930    0.8115   -1.4890 C   0  0  0  0  0  0  0  0  0  0  0  0
    3.8109    1.1872   -0.9554 C   0  0  0  0  0  0  0  0  0  0  0  0
    7.3203    1.9272    0.5815 H   0  0  0  0  0  0  0  0  0  0  0  0
    6.4148    1.8927   -0.9651 H   0  0  0  0  0  0  0  0  0  0  0  0
    5.8846    2.9578    0.4323 H   0  0  0  0  0  0  0  0  0  0  0  0
    3.9175   -0.9398    1.6267 H   0  0  0  0  0  0  0  0  0  0  0  0
    1.7623   -1.5854    0.6598 H   0  0  0  0  0  0  0  0  0  0  0  0
   -2.5651    1.2157   -1.0224 H   0  0  0  0  0  0  0  0  0  0  0  0
   -0.9846    1.6139   -1.8310 H   0  0  0  0  0  0  0  0  0  0  0  0
   -2.9607    1.3947    1.3313 H   0  0  0  0  0  0  0  0  0  0  0  0
   -2.3735    2.7587    3.3306 H   0  0  0  0  0  0  0  0  0  0  0  0
   -0.2750    4.0317    3.4099 H   0  0  0  0  0  0  0  0  0  0  0  0
    0.7553    2.6825   -0.4562 H   0  0  0  0  0  0  0  0  0  0  0  0
   -2.9903   -0.4659   -0.1834 H   0  0  0  0  0  0  0  0  0  0  0  0
   -4.5876   -2.5291   -0.9583 H   0  0  0  0  0  0  0  0  0  0  0  0
   -3.8841   -3.6582   -3.2386 H   0  0  0  0  0  0  0  0  0  0  0  0
   -0.8597   -2.5667    0.1304 H   0  0  0  0  0  0  0  0  0  0  0  0
   -2.3571   -0.8393    2.0706 H   0  0  0  0  0  0  0  0  0  0  0  0
   -1.1483   -2.0582    2.5291 H   0  0  0  0  0  0  0  0  0  0  0  0
   -0.6556   -0.6090    1.5832 H   0  0  0  0  0  0  0  0  0  0  0  0
   -3.7521   -2.6843    1.2436 H   0  0  0  0  0  0  0  0  0  0  0  0
   -2.3821   -3.6717    1.7034 H   0  0  0  0  0  0  0  0  0  0  0  0
   -2.9773   -3.9130    0.0730 H   0  0  0  0  0  0  0  0  0  0  0  0
    2.2547    1.3302   -2.3686 H   0  0  0  0  0  0  0  0  0  0  0  0
    4.4222    1.9696   -1.3841 H   0  0  0  0  0  0  0  0  0  0  0  0
  1  2  1  0
  2  3  1  0
  3  4  2  0
  4  5  1  0
  5  6  2  0
  6  7  1  0
  7  8  2  0
  7  9  2  0
  7 10  1  0
 10 11  1  0
 11 12  1  0
 12 13  2  0
 13 14  1  0
 14 15  2  0
 15 16  1  0
 16 17  2  0
 10 18  1  0
 18 19  1  0
 19 20  2  0
 19 21  1  0
 21 22  1  0
 18 23  1  0
 23 24  1  0
 23 25  1  0
  6 26  1  0
 26 27  2  0
 27  3  1  0
 17 12  1  0
  1 28  1  0
  1 29  1  0
  1 30  1  0
  4 31  1  0
  5 32  1  0
 11 33  1  0
 11 34  1  0
 13 35  1  0
 14 36  1  0
 15 37  1  0
 17 38  1  0
 18 39  1  1
 21 40  1  0
 22 41  1  0
 23 42  1  0
 24 43  1  0
 24 44  1  0
 24 45  1  0
 25 46  1  0
 25 47  1  0
 25 48  1  0
 26 49  1  0
 27 50  1  0
M  END
$$$$
