@<TRIPOS>MOLECULE
*****
 50 51 0 0 0
SMALL
GASTEIGER

@<TRIPOS>ATOM
      1 C           6.2928    1.9601    0.1231 C.3     1  UNL1        0.0788
      2 O           5.5237    0.9469    0.6973 O.3     1  UNL1       -0.4951
      3 C           4.2798    0.5520    0.1653 C.ar    1  UNL1        0.1202
      4 C           3.5446   -0.4394    0.7407 C.ar    1  UNL1       -0.0181
      5 C           2.3352   -0.7906    0.1852 C.ar    1  UNL1       -0.0319
      6 C           1.8225   -0.1851   -0.9358 C.ar    1  UNL1        0.1057
      7 S           0.2999   -0.7380   -1.5565 S.O2    1  UNL1        0.0618
      8 O           0.2791   -0.2466   -3.0249 O.2     1  UNL1       -0.1528
      9 O           0.4429   -2.2296   -1.7364 O.2     1  UNL1       -0.1528
     10 N          -1.0938   -0.2120   -0.8900 N.3     1  UNL1       -0.1601
     11 C          -1.4381    1.1721   -0.9071 C.3     1  UNL1        0.0478
     12 C          -1.1264    1.9433    0.2931 C.ar    1  UNL1       -0.0136
     13 C          -2.0163    1.9606    1.3529 C.ar    1  UNL1       -0.0544
     14 C          -1.7036    2.7100    2.4629 C.ar    1  UNL1       -0.0433
     15 C          -0.5294    3.4300    2.5220 C.ar    1  UNL1        0.0276
     16 N           0.3102    3.3926    1.4802 N.ar    1  UNL1       -0.2629
     17 C           0.0346    2.6665    0.3725 C.ar    1  UNL1        0.0320
     18 C          -2.1941   -1.1035   -0.6282 C.3     1  UNL1        0.1124
     19 C          -2.7747   -1.6849   -1.8376 C.2     1  UNL1        0.2546
     20 O          -2.1597   -1.5531   -2.9201 O.2     1  UNL1       -0.2719
     21 N          -3.9934   -2.3782   -1.8146 N.am    1  UNL1       -0.1961
     22 O          -4.4464   -2.8875   -3.0102 O.3     1  UNL1       -0.2951
     23 C          -1.8070   -2.0872    0.4465 C.3     1  UNL1       -0.0209
     24 C          -1.4430   -1.3513    1.7459 C.3     1  UNL1       -0.0607
     25 C          -2.8220   -3.0999    0.8205 C.3     1  UNL1       -0.0607
     26 C           2.5930    0.8115   -1.4890 C.ar    1  UNL1       -0.0319
     27 C           3.8109    1.1872   -0.9554 C.ar    1  UNL1       -0.0181
     28 H           7.3203    1.9272    0.5815 H       1  UNL1        0.0660
     29 H           6.4148    1.8927   -0.9651 H       1  UNL1        0.0660
     30 H           5.8846    2.9578    0.4323 H       1  UNL1        0.0660
     31 H           3.9175   -0.9398    1.6267 H       1  UNL1        0.0655
     32 H           1.7623   -1.5854    0.6598 H       1  UNL1        0.0638
     33 H          -2.5651    1.2157   -1.0224 H       1  UNL1        0.0494
     34 H          -0.9846    1.6139   -1.8310 H       1  UNL1        0.0494
     35 H          -2.9607    1.3947    1.3313 H       1  UNL1        0.0622
     36 H          -2.3735    2.7587    3.3306 H       1  UNL1        0.0633
     37 H          -0.2750    4.0317    3.4099 H       1  UNL1        0.0829
     38 H           0.7553    2.6825   -0.4562 H       1  UNL1        0.0833
     39 H          -2.9903   -0.4659   -0.1834 H       1  UNL1        0.0579
     40 H          -4.5876   -2.5291   -0.9583 H       1  UNL1        0.1822
     41 H          -3.8841   -3.6582   -3.2386 H       1  UNL1        0.2414
     42 H          -0.8597   -2.5667    0.1304 H       1  UNL1        0.0316
     43 H          -2.3571   -0.8393    2.0706 H       1  UNL1        0.0233
     44 H          -1.1483   -2.0582    2.5291 H       1  UNL1        0.0233
     45 H          -0.6556   -0.6090    1.5832 H       1  UNL1        0.0233
     46 H          -3.7521   -2.6843    1.2436 H       1  UNL1        0.0233
     47 H          -2.3821   -3.6717    1.7034 H       1  UNL1        0.0233
     48 H          -2.9773   -3.9130    0.0730 H       1  UNL1        0.0233
     49 H           2.2547    1.3302   -2.3686 H       1  UNL1        0.0638
     50 H           4.4222    1.9696   -1.3841 H       1  UNL1        0.0655
@<TRIPOS>BOND
     1     1     2    1
     2     2     3    1
     3     3     4   ar
     4     4     5   ar
     5     5     6   ar
     6     6     7    1
     7     7     8    2
     8     7     9    2
     9     7    10    1
    10    10    11    1
    11    11    12    1
    12    12    13   ar
    13    13    14   ar
    14    14    15   ar
    15    15    16   ar
    16    16    17   ar
    17    10    18    1
    18    18    19    1
    19    19    20    2
    20    19    21   am
    21    21    22    1
    22    18    23    1
    23    23    24    1
    24    23    25    1
    25     6    26   ar
    26    26    27   ar
    27    27     3   ar
    28    17    12   ar
    29     1    28    1
    30     1    29    1
    31     1    30    1
    32     4    31    1
    33     5    32    1
    34    11    33    1
    35    11    34    1
    36    13    35    1
    37    14    36    1
    38    15    37    1
    39    17    38    1
    40    18    39    1
    41    21    40    1
    42    22    41    1
    43    23    42    1
    44    24    43    1
    45    24    44    1
    46    24    45    1
    47    25    46    1
    48    25    47    1
    49    25    48    1
    50    26    49    1
    51    27    50    1
