@<TRIPOS>MOLECULE
*****
 50 53 0 0 0
SMALL
GASTEIGER

@<TRIPOS>ATOM
      1 C           8.6773    0.3663    1.5761 C.3     1  UNL1        0.0805
      2 O           7.4009    0.8575    1.9040 O.3     1  UNL1       -0.4786
      3 C           6.2522    0.5498    1.2306 C.ar    1  UNL1        0.2338
      4 C           5.0643    1.0921    1.6465 C.ar    1  UNL1        0.0899
      5 N           3.9499    0.7692    0.9617 N.ar    1  UNL1       -0.2447
      6 C           3.9761   -0.0589   -0.1024 C.ar    1  UNL1        0.1293
      7 C           2.7829   -0.3577   -0.7737 C.ar    1  UNL1        0.1506
      8 N           1.5833    0.2101   -0.3102 N.pl3   1  UNL1       -0.2977
      9 C           0.3125    0.0300   -0.9063 C.ar    1  UNL1        0.0329
     10 C           0.1026   -0.4244   -2.1865 C.ar    1  UNL1       -0.0378
     11 C          -1.2043   -0.5763   -2.6613 C.ar    1  UNL1       -0.0243
     12 C          -2.3119   -0.2869   -1.8939 C.ar    1  UNL1        0.1291
     13 F          -3.5656   -0.4318   -2.3753 F       1  UNL1       -0.2051
     14 C          -2.1067    0.1700   -0.6067 C.ar    1  UNL1        0.0196
     15 C          -3.3263    0.4827    0.2322 C.3     1  UNL1        0.1258
     16 C          -2.7801    1.0546    1.5365 C.3     1  UNL1        0.1196
     17 F          -3.8226    1.3947    2.3950 F       1  UNL1       -0.2462
     18 C          -4.0533   -0.7940    0.4436 C.3     1  UNL1        0.0251
     19 C          -5.5344   -0.7404    0.5324 C.3     1  UNL1        0.1998
     20 C          -6.1031   -1.5056    1.7195 C.3     1  UNL1        0.4266
     21 F          -5.5953   -0.9640    2.8691 F       1  UNL1       -0.1669
     22 F          -7.4695   -1.5510    1.6848 F       1  UNL1       -0.1669
     23 F          -5.6690   -2.8307    1.6930 F       1  UNL1       -0.1669
     24 O          -6.0409    0.6028    0.5331 O.2     1  UNL1       -0.4534
     25 C          -5.3757    1.5447   -0.2507 C.2     1  UNL1        0.2766
     26 N          -6.1316    2.5637   -0.8864 N.pl3   1  UNL1       -0.3134
     27 N          -4.1082    1.4852   -0.3894 N.2     1  UNL1       -0.2228
     28 C          -0.8381    0.3149   -0.1533 C.ar    1  UNL1       -0.0322
     29 N           2.8746   -1.1805   -1.8142 N.ar    1  UNL1       -0.2379
     30 C           4.0413   -1.7030   -2.2096 C.ar    1  UNL1        0.0318
     31 C           5.2360   -1.4293   -1.5703 C.ar    1  UNL1       -0.0158
     32 C           5.1885   -0.5840   -0.4902 C.ar    1  UNL1        0.0978
     33 N           6.3384   -0.2914    0.1641 N.ar    1  UNL1       -0.2099
     34 H           8.7993   -0.7001    1.8386 H       1  UNL1        0.0660
     35 H           9.4779    0.9457    2.0905 H       1  UNL1        0.0660
     36 H           8.8179    0.4711    0.4802 H       1  UNL1        0.0660
     37 H           5.0649    1.7488    2.4953 H       1  UNL1        0.0884
     38 H           1.6261    0.8342    0.5615 H       1  UNL1        0.1536
     39 H           0.9281   -0.6604   -2.8419 H       1  UNL1        0.0637
     40 H          -1.3616   -0.9372   -3.6765 H       1  UNL1        0.0647
     41 H          -2.2590    1.9911    1.2799 H       1  UNL1        0.0643
     42 H          -2.1873    0.3043    2.0723 H       1  UNL1        0.0643
     43 H          -3.6205   -1.3521    1.3420 H       1  UNL1        0.0331
     44 H          -3.7850   -1.4953   -0.4026 H       1  UNL1        0.0331
     45 H          -6.0153   -1.2193   -0.3731 H       1  UNL1        0.0826
     46 H          -6.6006    2.3307   -1.7865 H       1  UNL1        0.1466
     47 H          -6.2408    3.5179   -0.5074 H       1  UNL1        0.1466
     48 H          -0.6542    0.6737    0.8494 H       1  UNL1        0.0640
     49 H           4.0772   -2.3662   -3.0578 H       1  UNL1        0.0831
     50 H           6.1890   -1.8653   -1.9056 H       1  UNL1        0.0655
@<TRIPOS>BOND
     1     1     2    1
     2     2     3    1
     3     3     4   ar
     4     4     5   ar
     5     5     6   ar
     6     6     7   ar
     7     7     8    1
     8     8     9    1
     9     9    10   ar
    10    10    11   ar
    11    11    12   ar
    12    12    13    1
    13    12    14   ar
    14    14    15    1
    15    15    16    1
    16    16    17    1
    17    15    18    1
    18    18    19    1
    19    19    20    1
    20    20    21    1
    21    20    22    1
    22    20    23    1
    23    19    24    1
    24    24    25    1
    25    25    26    1
    26    25    27    2
    27    14    28   ar
    28     7    29   ar
    29    29    30   ar
    30    30    31   ar
    31    31    32   ar
    32    32    33   ar
    33    33     3   ar
    34    32     6   ar
    35    28     9   ar
    36    27    15    1
    37     1    34    1
    38     1    35    1
    39     1    36    1
    40     4    37    1
    41     8    38    1
    42    10    39    1
    43    11    40    1
    44    16    41    1
    45    16    42    1
    46    18    43    1
    47    18    44    1
    48    19    45    1
    49    26    46    1
    50    26    47    1
    51    28    48    1
    52    30    49    1
    53    31    50    1
