@<TRIPOS>MOLECULE
*****
 60 63 0 0 0
SMALL
GASTEIGER

@<TRIPOS>ATOM
      1 C           7.1522   -2.3141    3.6475 C.3     1  UNL1        0.0790
      2 O           7.2971   -1.3251    2.6522 O.3     1  UNL1       -0.4915
      3 C           6.2610   -1.1099    1.7528 C.ar    1  UNL1        0.1615
      4 C           5.0805   -1.8183    1.7783 C.ar    1  UNL1       -0.0156
      5 C           4.0651   -1.5902    0.8773 C.ar    1  UNL1       -0.0459
      6 C           4.1892   -0.6160   -0.1171 C.ar    1  UNL1        0.0404
      7 C           3.1214   -0.3824   -1.0591 C.2     1  UNL1        0.2445
      8 O           2.0574   -1.0719   -0.9182 O.2     1  UNL1       -0.2702
      9 N           3.1838    0.5506   -2.1129 N.am    1  UNL1       -0.3072
     10 C           2.1036    0.7934   -3.0699 C.3     1  UNL1        0.0372
     11 C           1.0165    1.6284   -2.5300 C.ar    1  UNL1       -0.0296
     12 C           1.1275    3.0188   -2.6394 C.ar    1  UNL1       -0.0570
     13 C           0.1398    3.8545   -2.1645 C.ar    1  UNL1       -0.0607
     14 C          -0.9915    3.3546   -1.5654 C.ar    1  UNL1       -0.0496
     15 C          -1.1161    1.9889   -1.4498 C.ar    1  UNL1        0.0373
     16 C          -2.2903    1.4373   -0.8275 C.2     1  UNL1        0.2483
     17 O          -3.2024    2.2292   -0.4468 O.2     1  UNL1       -0.2699
     18 N          -2.5193    0.0690   -0.5993 N.am    1  UNL1       -0.2815
     19 C          -3.7166   -0.3725    0.0250 C.ar    1  UNL1        0.0340
     20 C          -3.7442   -0.4687    1.4110 C.ar    1  UNL1       -0.0402
     21 C          -4.8726   -0.8959    2.1038 C.ar    1  UNL1       -0.0565
     22 C          -6.0090   -1.2384    1.4050 C.ar    1  UNL1       -0.0417
     23 C          -5.9910   -1.1461    0.0305 C.ar    1  UNL1       -0.0286
     24 C          -4.8666   -0.7198   -0.6680 C.ar    1  UNL1       -0.0358
     25 C          -7.2371   -1.5267   -0.6784 C.3     1  UNL1        0.0216
     26 N          -8.3494   -0.9041   -0.0445 N.3     1  UNL1       -0.3117
     27 C          -8.4077   -0.9727    1.3740 C.3     1  UNL1        0.0002
     28 C          -7.2687   -1.7079    2.0351 C.3     1  UNL1       -0.0148
     29 C          -0.1220    1.1461   -1.9279 C.ar    1  UNL1       -0.0449
     30 C           5.3624    0.0894   -0.1437 C.ar    1  UNL1       -0.0042
     31 C           6.4042   -0.1361    0.7710 C.ar    1  UNL1        0.1622
     32 O           7.5713    0.6101    0.6946 O.3     1  UNL1       -0.4914
     33 C           7.6948    1.5936   -0.3134 C.3     1  UNL1        0.0790
     34 H           8.1606   -2.5644    4.0609 H       1  UNL1        0.0660
     35 H           6.7581   -3.2765    3.2437 H       1  UNL1        0.0660
     36 H           6.4757   -1.9708    4.4337 H       1  UNL1        0.0660
     37 H           4.9665   -2.5737    2.5393 H       1  UNL1        0.0655
     38 H           3.1332   -2.1435    0.8905 H       1  UNL1        0.0626
     39 H           4.0878    1.1070   -2.2010 H       1  UNL1        0.1493
     40 H           2.5120    1.1849   -4.0251 H       1  UNL1        0.0512
     41 H           1.7091   -0.2261   -3.3260 H       1  UNL1        0.0512
     42 H           2.0158    3.4173   -3.1097 H       1  UNL1        0.0621
     43 H           0.2252    4.9374   -2.2492 H       1  UNL1        0.0618
     44 H          -1.7715    4.0334   -1.1910 H       1  UNL1        0.0625
     45 H          -1.8218   -0.6290   -0.8811 H       1  UNL1        0.1551
     46 H          -2.8503   -0.1974    1.9577 H       1  UNL1        0.0636
     47 H          -4.8834   -0.9674    3.1831 H       1  UNL1        0.0621
     48 H          -4.8667   -0.6518   -1.7424 H       1  UNL1        0.0639
     49 H          -7.1978   -1.1862   -1.7317 H       1  UNL1        0.0474
     50 H          -7.3614   -2.6328   -0.6334 H       1  UNL1        0.0474
     51 H          -8.4777    0.0560   -0.4283 H       1  UNL1        0.1223
     52 H          -8.3503    0.0834    1.7599 H       1  UNL1        0.0427
     53 H          -9.3881   -1.3450    1.7558 H       1  UNL1        0.0427
     54 H          -7.4155   -2.7878    1.8534 H       1  UNL1        0.0326
     55 H          -7.3112   -1.4560    3.1152 H       1  UNL1        0.0326
     56 H          -0.2040    0.0689   -1.8531 H       1  UNL1        0.0628
     57 H           5.5021    0.8586   -0.8972 H       1  UNL1        0.0663
     58 H           6.8661    2.3230   -0.3204 H       1  UNL1        0.0660
     59 H           7.7340    1.1503   -1.3294 H       1  UNL1        0.0660
     60 H           8.6304    2.2035   -0.1564 H       1  UNL1        0.0660
@<TRIPOS>BOND
     1     1     2    1
     2     2     3    1
     3     3     4   ar
     4     4     5   ar
     5     5     6   ar
     6     6     7    1
     7     7     8    2
     8     7     9   am
     9     9    10    1
    10    10    11    1
    11    11    12   ar
    12    12    13   ar
    13    13    14   ar
    14    14    15   ar
    15    15    16    1
    16    16    17    2
    17    16    18   am
    18    18    19    1
    19    19    20   ar
    20    20    21   ar
    21    21    22   ar
    22    22    23   ar
    23    23    24   ar
    24    23    25    1
    25    25    26    1
    26    26    27    1
    27    27    28    1
    28    15    29   ar
    29     6    30   ar
    30    30    31   ar
    31    31    32    1
    32    32    33    1
    33    31     3   ar
    34    29    11   ar
    35    24    19   ar
    36    28    22    1
    37     1    34    1
    38     1    35    1
    39     1    36    1
    40     4    37    1
    41     5    38    1
    42     9    39    1
    43    10    40    1
    44    10    41    1
    45    12    42    1
    46    13    43    1
    47    14    44    1
    48    18    45    1
    49    20    46    1
    50    21    47    1
    51    24    48    1
    52    25    49    1
    53    25    50    1
    54    26    51    1
    55    27    52    1
    56    27    53    1
    57    28    54    1
    58    28    55    1
    59    29    56    1
    60    30    57    1
    61    33    58    1
    62    33    59    1
    63    33    60    1
