
     RDKit          3D

 60 63  0  0  0  0  0  0  0  0999 V2000
    7.1522   -2.3141    3.6475 C   0  0  0  0  0  0  0  0  0  0  0  0
    7.2971   -1.3251    2.6522 O   0  0  0  0  0  0  0  0  0  0  0  0
    6.2610   -1.1099    1.7528 C   0  0  0  0  0  0  0  0  0  0  0  0
    5.0805   -1.8183    1.7783 C   0  0  0  0  0  0  0  0  0  0  0  0
    4.0651   -1.5902    0.8773 C   0  0  0  0  0  0  0  0  0  0  0  0
    4.1892   -0.6160   -0.1171 C   0  0  0  0  0  0  0  0  0  0  0  0
    3.1214   -0.3824   -1.0591 C   0  0  0  0  0  0  0  0  0  0  0  0
    2.0574   -1.0719   -0.9182 O   0  0  0  0  0  0  0  0  0  0  0  0
    3.1838    0.5506   -2.1129 N   0  0  0  0  0  0  0  0  0  0  0  0
    2.1036    0.7934   -3.0699 C   0  0  0  0  0  0  0  0  0  0  0  0
    1.0165    1.6284   -2.5300 C   0  0  0  0  0  0  0  0  0  0  0  0
    1.1275    3.0188   -2.6394 C   0  0  0  0  0  0  0  0  0  0  0  0
    0.1398    3.8545   -2.1645 C   0  0  0  0  0  0  0  0  0  0  0  0
   -0.9915    3.3546   -1.5654 C   0  0  0  0  0  0  0  0  0  0  0  0
   -1.1161    1.9889   -1.4498 C   0  0  0  0  0  0  0  0  0  0  0  0
   -2.2903    1.4373   -0.8275 C   0  0  0  0  0  0  0  0  0  0  0  0
   -3.2024    2.2292   -0.4468 O   0  0  0  0  0  0  0  0  0  0  0  0
   -2.5193    0.0690   -0.5993 N   0  0  0  0  0  0  0  0  0  0  0  0
   -3.7166   -0.3725    0.0250 C   0  0  0  0  0  0  0  0  0  0  0  0
   -3.7442   -0.4687    1.4110 C   0  0  0  0  0  0  0  0  0  0  0  0
   -4.8726   -0.8959    2.1038 C   0  0  0  0  0  0  0  0  0  0  0  0
   -6.0090   -1.2384    1.4050 C   0  0  0  0  0  0  0  0  0  0  0  0
   -5.9910   -1.1461    0.0305 C   0  0  0  0  0  0  0  0  0  0  0  0
   -4.8666   -0.7198   -0.6680 C   0  0  0  0  0  0  0  0  0  0  0  0
   -7.2371   -1.5267   -0.6784 C   0  0  0  0  0  0  0  0  0  0  0  0
   -8.3494   -0.9041   -0.0445 N   0  0  0  0  0  0  0  0  0  0  0  0
   -8.4077   -0.9727    1.3740 C   0  0  0  0  0  0  0  0  0  0  0  0
   -7.2687   -1.7079    2.0351 C   0  0  0  0  0  0  0  0  0  0  0  0
   -0.1220    1.1461   -1.9279 C   0  0  0  0  0  0  0  0  0  0  0  0
    5.3624    0.0894   -0.1437 C   0  0  0  0  0  0  0  0  0  0  0  0
    6.4042   -0.1361    0.7710 C   0  0  0  0  0  0  0  0  0  0  0  0
    7.5713    0.6101    0.6946 O   0  0  0  0  0  0  0  0  0  0  0  0
    7.6948    1.5936   -0.3134 C   0  0  0  0  0  0  0  0  0  0  0  0
    8.1606   -2.5644    4.0609 H   0  0  0  0  0  0  0  0  0  0  0  0
    6.7581   -3.2765    3.2437 H   0  0  0  0  0  0  0  0  0  0  0  0
    6.4757   -1.9708    4.4337 H   0  0  0  0  0  0  0  0  0  0  0  0
    4.9665   -2.5737    2.5393 H   0  0  0  0  0  0  0  0  0  0  0  0
    3.1332   -2.1435    0.8905 H   0  0  0  0  0  0  0  0  0  0  0  0
    4.0878    1.1070   -2.2010 H   0  0  0  0  0  0  0  0  0  0  0  0
    2.5120    1.1849   -4.0251 H   0  0  0  0  0  0  0  0  0  0  0  0
    1.7091   -0.2261   -3.3260 H   0  0  0  0  0  0  0  0  0  0  0  0
    2.0158    3.4173   -3.1097 H   0  0  0  0  0  0  0  0  0  0  0  0
    0.2252    4.9374   -2.2492 H   0  0  0  0  0  0  0  0  0  0  0  0
   -1.7715    4.0334   -1.1910 H   0  0  0  0  0  0  0  0  0  0  0  0
   -1.8218   -0.6290   -0.8811 H   0  0  0  0  0  0  0  0  0  0  0  0
   -2.8503   -0.1974    1.9577 H   0  0  0  0  0  0  0  0  0  0  0  0
   -4.8834   -0.9674    3.1831 H   0  0  0  0  0  0  0  0  0  0  0  0
   -4.8667   -0.6518   -1.7424 H   0  0  0  0  0  0  0  0  0  0  0  0
   -7.1978   -1.1862   -1.7317 H   0  0  0  0  0  0  0  0  0  0  0  0
   -7.3614   -2.6328   -0.6334 H   0  0  0  0  0  0  0  0  0  0  0  0
   -8.4777    0.0560   -0.4283 H   0  0  0  0  0  0  0  0  0  0  0  0
   -8.3503    0.0834    1.7599 H   0  0  0  0  0  0  0  0  0  0  0  0
   -9.3881   -1.3450    1.7558 H   0  0  0  0  0  0  0  0  0  0  0  0
   -7.4155   -2.7878    1.8534 H   0  0  0  0  0  0  0  0  0  0  0  0
   -7.3112   -1.4560    3.1152 H   0  0  0  0  0  0  0  0  0  0  0  0
   -0.2040    0.0689   -1.8531 H   0  0  0  0  0  0  0  0  0  0  0  0
    5.5021    0.8586   -0.8972 H   0  0  0  0  0  0  0  0  0  0  0  0
    6.8661    2.3230   -0.3204 H   0  0  0  0  0  0  0  0  0  0  0  0
    7.7340    1.1503   -1.3294 H   0  0  0  0  0  0  0  0  0  0  0  0
    8.6304    2.2035   -0.1564 H   0  0  0  0  0  0  0  0  0  0  0  0
  1  2  1  0
  2  3  1  0
  3  4  2  0
  4  5  1  0
  5  6  2  0
  6  7  1  0
  7  8  2  0
  7  9  1  0
  9 10  1  0
 10 11  1  0
 11 12  2  0
 12 13  1  0
 13 14  2  0
 14 15  1  0
 15 16  1  0
 16 17  2  0
 16 18  1  0
 18 19  1  0
 19 20  2  0
 20 21  1  0
 21 22  2  0
 22 23  1  0
 23 24  2  0
 23 25  1  0
 25 26  1  0
 26 27  1  0
 27 28  1  0
 15 29  2  0
  6 30  1  0
 30 31  2  0
 31 32  1  0
 32 33  1  0
 31  3  1  0
 29 11  1  0
 24 19  1  0
 28 22  1  0
  1 34  1  0
  1 35  1  0
  1 36  1  0
  4 37  1  0
  5 38  1  0
  9 39  1  0
 10 40  1  0
 10 41  1  0
 12 42  1  0
 13 43  1  0
 14 44  1  0
 18 45  1  0
 20 46  1  0
 21 47  1  0
 24 48  1  0
 25 49  1  0
 25 50  1  0
 26 51  1  0
 27 52  1  0
 27 53  1  0
 28 54  1  0
 28 55  1  0
 29 56  1  0
 30 57  1  0
 33 58  1  0
 33 59  1  0
 33 60  1  0
M  END
$$$$
