@<TRIPOS>MOLECULE
*****
 10 9 0 0 0
SMALL
GASTEIGER

@<TRIPOS>ATOM
      1 C          -1.4819    0.2721    0.2051 C.3     1  UNL1        0.0115
      2 S          -0.0476   -0.1175   -0.7452 S.O     1  UNL1        0.0159
      3 C           1.4973    0.0621    0.1049 C.3     1  UNL1        0.0115
      4 O          -0.0826   -1.4698   -1.4117 O.2     1  UNL1       -0.2577
      5 H          -2.0808    1.0274   -0.3632 H       1  UNL1        0.0365
      6 H          -1.2927    0.6229    1.2349 H       1  UNL1        0.0365
      7 H          -2.1422   -0.6297    0.2481 H       1  UNL1        0.0365
      8 H           1.6984   -0.8188    0.7529 H       1  UNL1        0.0365
      9 H           1.6240    1.0138    0.6418 H       1  UNL1        0.0365
     10 H           2.3080    0.0376   -0.6674 H       1  UNL1        0.0365
@<TRIPOS>BOND
     1     1     2    1
     2     2     3    1
     3     2     4    2
     4     1     5    1
     5     1     6    1
     6     1     7    1
     7     3     8    1
     8     3     9    1
     9     3    10    1
