@<TRIPOS>MOLECULE
*****
 77 80 0 0 0
SMALL
GASTEIGER

@<TRIPOS>ATOM
      1 C           8.5124    2.1563    1.8224 C.3     1  UNL1       -0.0342
      2 C           7.2611    1.6235    1.2361 C.2     1  UNL1        0.0204
      3 C           6.1223    1.5697    1.8911 C.2     1  UNL1        0.0035
      4 C           6.0207    2.0381    3.2563 C.2     1  UNL1       -0.0595
      5 C           4.9554    2.0426    4.0296 C.2     1  UNL1       -0.0981
      6 C           5.0725    1.0158    1.0907 C.2     1  UNL1        0.0432
      7 N           5.6236    0.6993   -0.1753 N.am    1  UNL1       -0.2812
      8 C           6.9863    1.0800   -0.0810 C.2     1  UNL1        0.2446
      9 O           7.8323    0.9628   -1.0054 O.2     1  UNL1       -0.2702
     10 C           3.8100    0.7629    1.3607 C.2     1  UNL1       -0.0163
     11 C           2.7565    0.2059    0.5332 C.ar    1  UNL1        0.0447
     12 C           2.2673    0.4721   -0.7371 C.ar    1  UNL1       -0.0220
     13 C           2.7760    1.5761   -1.5863 C.3     1  UNL1       -0.0374
     14 C           1.2339   -0.4095   -1.0360 C.ar    1  UNL1       -0.0186
     15 C           0.5484   -0.3764   -2.3362 C.3     1  UNL1       -0.0154
     16 C           1.4098   -0.9744   -3.4536 C.3     1  UNL1        0.0488
     17 C           1.7900   -2.3770   -3.1995 C.2     1  UNL1        0.3050
     18 O           2.0863   -3.7247   -3.1242 O.3     1  UNL1       -0.4806
     19 O           2.2911   -2.5230   -2.0414 O.2     1  UNL1       -0.2510
     20 C           1.1122   -1.2180    0.1032 C.ar    1  UNL1        0.0452
     21 N           2.0069   -0.8445    0.9997 N.ar    1  UNL1       -0.3545
     22 C           0.0681   -2.2607    0.2605 C.2     1  UNL1       -0.0124
     23 C          -1.2287   -1.8915    0.2009 C.2     1  UNL1        0.0700
     24 N          -1.6243   -0.5812    0.0065 N.2     1  UNL1       -0.2472
     25 C          -2.8749   -0.4203   -0.0472 C.2     1  UNL1        0.0695
     26 C          -3.1699    0.9540   -0.2486 C.2     1  UNL1       -0.0145
     27 C          -4.1969    1.7378   -0.3959 C.2     1  UNL1        0.0393
     28 N          -5.4728    1.1690   -0.3669 N.am    1  UNL1       -0.2812
     29 C          -6.4626    2.1581   -0.5340 C.2     1  UNL1        0.2486
     30 O          -7.7044    2.0359   -0.5633 O.2     1  UNL1       -0.2698
     31 C          -5.7188    3.3897   -0.6704 C.2     1  UNL1        0.0411
     32 C          -6.1835    4.7481   -0.8666 C.2     1  UNL1       -0.0564
     33 C          -7.4879    4.9166   -0.9376 C.2     1  UNL1       -0.0980
     34 C          -4.4080    3.1584   -0.5924 C.2     1  UNL1       -0.0171
     35 C          -3.2606    4.0911   -0.6806 C.3     1  UNL1       -0.0372
     36 C          -3.3577   -1.7486    0.1298 C.2     1  UNL1       -0.0198
     37 C          -4.7794   -2.1105    0.1606 C.3     1  UNL1       -0.0374
     38 C          -2.4359   -2.6683    0.2819 C.2     1  UNL1       -0.0165
     39 C          -2.5061   -4.1320    0.4546 C.3     1  UNL1       -0.0153
     40 C          -2.0713   -4.6363    1.7929 C.3     1  UNL1        0.0488
     41 C          -2.1918   -6.1410    1.8473 C.2     1  UNL1        0.3050
     42 O          -2.8595   -7.1876    2.4981 O.3     1  UNL1       -0.4806
     43 O          -1.4738   -6.8190    1.0618 O.2     1  UNL1       -0.2510
     44 H           9.4010    1.6562    1.4026 H       1  UNL1        0.0279
     45 H           8.5866    3.2341    1.5156 H       1  UNL1        0.0279
     46 H           8.5450    2.0380    2.9232 H       1  UNL1        0.0279
     47 H           6.7924    2.4660    3.8761 H       1  UNL1        0.0618
     48 H           4.7145    2.3458    5.0398 H       1  UNL1        0.0535
     49 H           4.0012    1.9740    4.5226 H       1  UNL1        0.0535
     50 H           5.1754    0.2731   -1.0095 H       1  UNL1        0.1551
     51 H           3.4926    1.0172    2.3843 H       1  UNL1        0.0657
     52 H           1.8769    2.0658   -2.0616 H       1  UNL1        0.0278
     53 H           3.1987    2.3911   -0.9463 H       1  UNL1        0.0278
     54 H           3.4858    1.2780   -2.3518 H       1  UNL1        0.0278
     55 H          -0.4292   -0.9176   -2.3293 H       1  UNL1        0.0319
     56 H           0.3228    0.6564   -2.6358 H       1  UNL1        0.0319
     57 H           0.7823   -0.9696   -4.3786 H       1  UNL1        0.0381
     58 H           2.3300   -0.3931   -3.5819 H       1  UNL1        0.0381
     59 H           1.3716   -4.4554   -3.2276 H       1  UNL1        0.2951
     60 H           2.0770   -1.3283    1.9191 H       1  UNL1        0.1659
     61 H           0.2774   -3.3056    0.4124 H       1  UNL1        0.0659
     62 H          -2.3194    1.6792   -0.3129 H       1  UNL1        0.0657
     63 H          -5.7720    0.2142   -0.2580 H       1  UNL1        0.1551
     64 H          -5.5885    5.6326   -0.9612 H       1  UNL1        0.0619
     65 H          -7.9701    5.8687   -1.0815 H       1  UNL1        0.0535
     66 H          -8.3408    4.2570   -0.8831 H       1  UNL1        0.0535
     67 H          -3.5407    5.0863   -0.2693 H       1  UNL1        0.0278
     68 H          -2.9686    4.2658   -1.7521 H       1  UNL1        0.0278
     69 H          -2.3896    3.7164   -0.1284 H       1  UNL1        0.0278
     70 H          -4.9284   -3.1861    0.4415 H       1  UNL1        0.0278
     71 H          -5.3044   -1.5772    0.9854 H       1  UNL1        0.0278
     72 H          -5.3322   -1.9502   -0.7725 H       1  UNL1        0.0278
     73 H          -1.8656   -4.6435   -0.3425 H       1  UNL1        0.0319
     74 H          -3.5121   -4.5703    0.2606 H       1  UNL1        0.0319
     75 H          -1.0160   -4.4072    2.0111 H       1  UNL1        0.0381
     76 H          -2.6825   -4.1698    2.5857 H       1  UNL1        0.0381
     77 H          -3.5456   -7.7615    2.0047 H       1  UNL1        0.2951
@<TRIPOS>BOND
     1     1     2    1
     2     2     3    2
     3     3     4    1
     4     4     5    2
     5     3     6    1
     6     6     7    1
     7     7     8   am
     8     8     9    2
     9     6    10    2
    10    10    11    1
    11    11    12   ar
    12    12    13    1
    13    12    14   ar
    14    14    15    1
    15    15    16    1
    16    16    17    1
    17    17    18    1
    18    17    19    2
    19    14    20   ar
    20    20    21   ar
    21    20    22    1
    22    22    23    2
    23    23    24    1
    24    24    25    2
    25    25    26    1
    26    26    27    2
    27    27    28    1
    28    28    29   am
    29    29    30    2
    30    29    31    1
    31    31    32    1
    32    32    33    2
    33    31    34    2
    34    34    35    1
    35    25    36    1
    36    36    37    1
    37    36    38    2
    38    38    39    1
    39    39    40    1
    40    40    41    1
    41    41    42    1
    42    41    43    2
    43     8     2    1
    44    21    11   ar
    45    38    23    1
    46    34    27    1
    47     1    44    1
    48     1    45    1
    49     1    46    1
    50     4    47    1
    51     5    48    1
    52     5    49    1
    53     7    50    1
    54    10    51    1
    55    13    52    1
    56    13    53    1
    57    13    54    1
    58    15    55    1
    59    15    56    1
    60    16    57    1
    61    16    58    1
    62    18    59    1
    63    21    60    1
    64    22    61    1
    65    26    62    1
    66    28    63    1
    67    32    64    1
    68    33    65    1
    69    33    66    1
    70    35    67    1
    71    35    68    1
    72    35    69    1
    73    37    70    1
    74    37    71    1
    75    37    72    1
    76    39    73    1
    77    39    74    1
    78    40    75    1
    79    40    76    1
    80    42    77    1
