@<TRIPOS>MOLECULE
*****
 27 26 0 0 0
SMALL
GASTEIGER

@<TRIPOS>ATOM
      1 C          -3.3664    0.9635   -0.5587 C.3     1  UNL1       -0.0653
      2 C          -2.7887   -0.4306   -0.4907 C.3     1  UNL1       -0.0559
      3 C          -1.9656   -0.6289    0.7630 C.3     1  UNL1       -0.0529
      4 C          -0.8050    0.2953    0.8817 C.3     1  UNL1       -0.0464
      5 C           0.1914    0.1890   -0.2352 C.3     1  UNL1        0.0064
      6 C           0.7682   -1.1404   -0.3405 C.2     1  UNL1        0.1449
      7 O           0.1981   -2.1981   -0.5223 O.2     1  UNL1       -0.2968
      8 C           2.2101   -1.2518   -0.2145 C.3     1  UNL1        0.1076
      9 P           3.1201    0.2543    0.0949 P.3     1  UNL1        0.3349
     10 O           3.0520    1.3887   -1.1145 O.3     1  UNL1       -0.3237
     11 O           4.7652   -0.1942    0.2462 O.3     1  UNL1       -0.3237
     12 O           2.7378    0.8607    1.4120 O.2     1  UNL1       -0.2584
     13 H          -3.4628    1.4312    0.4493 H       1  UNL1        0.0230
     14 H          -2.7564    1.6435   -1.1859 H       1  UNL1        0.0230
     15 H          -4.3790    0.8910   -1.0045 H       1  UNL1        0.0230
     16 H          -3.6290   -1.1550   -0.4606 H       1  UNL1        0.0263
     17 H          -2.2042   -0.6259   -1.4097 H       1  UNL1        0.0263
     18 H          -2.6701   -0.4905    1.6387 H       1  UNL1        0.0265
     19 H          -1.6158   -1.6759    0.8074 H       1  UNL1        0.0265
     20 H          -1.1099    1.3612    1.0370 H       1  UNL1        0.0269
     21 H          -0.2678    0.0115    1.8270 H       1  UNL1        0.0269
     22 H          -0.4051    0.3711   -1.1758 H       1  UNL1        0.0342
     23 H           0.9005    1.0142   -0.1861 H       1  UNL1        0.0342
     24 H           2.6433   -1.8438   -1.0497 H       1  UNL1        0.0466
     25 H           2.4037   -1.9022    0.6927 H       1  UNL1        0.0466
     26 H           3.0898    2.2846   -0.7026 H       1  UNL1        0.2198
     27 H           5.3455    0.5773    0.0050 H       1  UNL1        0.2198
@<TRIPOS>BOND
     1     1     2    1
     2     2     3    1
     3     3     4    1
     4     4     5    1
     5     5     6    1
     6     6     7    2
     7     6     8    1
     8     8     9    1
     9     9    10    1
    10     9    11    1
    11     9    12    2
    12     1    13    1
    13     1    14    1
    14     1    15    1
    15     2    16    1
    16     2    17    1
    17     3    18    1
    18     3    19    1
    19     4    20    1
    20     4    21    1
    21     5    22    1
    22     5    23    1
    23     8    24    1
    24     8    25    1
    25    10    26    1
    26    11    27    1
