@<TRIPOS>MOLECULE
*****
 72 76 0 0 0
SMALL
GASTEIGER

@<TRIPOS>ATOM
      1 C          -5.5600    4.0524   -1.1664 C.3     1  UNL1       -0.0219
      2 C          -5.2360    2.6033   -1.4465 C.ar    1  UNL1        0.0485
      3 N          -5.5202    2.1275   -2.6635 N.ar    1  UNL1       -0.2371
      4 C          -5.2672    0.8598   -2.9968 C.ar    1  UNL1        0.1199
      5 N          -5.5546    0.3211   -4.2733 N.pl3   1  UNL1       -0.3430
      6 C          -4.6976    0.0629   -2.0251 C.ar    1  UNL1        0.0200
      7 C          -4.3778    0.5183   -0.7237 C.ar    1  UNL1        0.1301
      8 C          -4.6737    1.8796   -0.4339 C.ar    1  UNL1        0.0324
      9 C          -4.4312    2.5437    0.8448 C.3     1  UNL1        0.0423
     10 N          -3.2664    2.0407    1.6084 N.am    1  UNL1       -0.3070
     11 C          -1.9672    2.0650    1.1169 C.2     1  UNL1        0.2473
     12 O          -2.1036    2.6165   -0.0885 O.2     1  UNL1       -0.2701
     13 C          -0.6037    1.6856    1.5118 C.ar    1  UNL1        0.0741
     14 C           0.5250    2.3077    0.9204 C.ar    1  UNL1        0.0615
     15 N           1.5671    1.7076    1.4387 N.ar    1  UNL1       -0.1786
     16 N           1.1946    0.7456    2.3205 N.ar    1  UNL1       -0.2662
     17 C          -0.1219    0.7172    2.3834 C.ar    1  UNL1        0.0380
     18 C           2.2392   -0.0543    2.9822 C.3     1  UNL1        0.0699
     19 C           3.4054   -0.1901    2.0063 C.ar    1  UNL1        0.0155
     20 C           4.3859    0.7633    2.1576 C.ar    1  UNL1       -0.0530
     21 C           5.4917    0.7795    1.3476 C.ar    1  UNL1       -0.0563
     22 C           5.6029   -0.1800    0.3764 C.ar    1  UNL1       -0.0227
     23 C           6.7883   -0.2022   -0.5287 C.3     1  UNL1        0.0666
     24 N           6.4404    0.6427   -1.6697 N.ar    1  UNL1       -0.2671
     25 C           5.8445    0.1620   -2.7591 C.ar    1  UNL1        0.0258
     26 C           5.6677    1.2189   -3.6197 C.ar    1  UNL1       -0.0242
     27 C           6.1819    2.3213   -2.9878 C.ar    1  UNL1        0.0494
     28 N           6.6425    1.9289   -1.8034 N.ar    1  UNL1       -0.1794
     29 C           4.6196   -1.1216    0.2387 C.ar    1  UNL1       -0.0147
     30 C           3.4631   -1.1732    1.0533 C.ar    1  UNL1        0.1257
     31 O           2.5965   -2.1586    0.7894 O.3     1  UNL1       -0.4916
     32 C           1.2428   -2.3943    0.6753 C.3     1  UNL1        0.0899
     33 C           1.0105   -3.8539    0.3004 C.3     1  UNL1       -0.0152
     34 C          -0.4042   -4.1912    0.0975 C.3     1  UNL1       -0.0317
     35 C          -1.2351   -4.0224    1.2833 C.2     1  UNL1       -0.0877
     36 C          -2.3283   -3.3414    1.4541 C.2     1  UNL1       -0.0847
     37 C          -3.0785   -2.5180    0.4815 C.3     1  UNL1       -0.0004
     38 C          -3.1914   -1.0580    1.0085 C.3     1  UNL1        0.0930
     39 O          -3.8341   -0.2555    0.1899 O.3     1  UNL1       -0.4912
     40 H          -4.6752    4.6394   -1.4330 H       1  UNL1        0.0293
     41 H          -5.9232    4.1896   -0.1487 H       1  UNL1        0.0293
     42 H          -6.3752    4.3705   -1.8557 H       1  UNL1        0.0293
     43 H          -6.5198    0.3468   -4.6281 H       1  UNL1        0.1437
     44 H          -4.8014   -0.0901   -4.8343 H       1  UNL1        0.1437
     45 H          -4.5063   -0.9794   -2.3387 H       1  UNL1        0.0689
     46 H          -4.1469    3.6392    0.6878 H       1  UNL1        0.0513
     47 H          -5.3166    2.6418    1.4961 H       1  UNL1        0.0513
     48 H          -3.5636    1.6946    2.5023 H       1  UNL1        0.1493
     49 H           0.5526    3.1265    0.1839 H       1  UNL1        0.0855
     50 H          -0.7765    0.0318    3.0579 H       1  UNL1        0.0834
     51 H           2.5842    0.4146    3.9223 H       1  UNL1        0.0560
     52 H           2.0180   -1.0898    3.2018 H       1  UNL1        0.0560
     53 H           4.3299    1.5392    2.9178 H       1  UNL1        0.0622
     54 H           6.2806    1.5258    1.4480 H       1  UNL1        0.0621
     55 H           7.6591    0.1810    0.0230 H       1  UNL1        0.0558
     56 H           7.0110   -1.2037   -0.8990 H       1  UNL1        0.0558
     57 H           5.5541   -0.8874   -2.9252 H       1  UNL1        0.0826
     58 H           5.2143    1.1775   -4.5943 H       1  UNL1        0.0648
     59 H           6.1967    3.3394   -3.4115 H       1  UNL1        0.0848
     60 H           4.7997   -1.8503   -0.5616 H       1  UNL1        0.0657
     61 H           0.7936   -1.8138   -0.1869 H       1  UNL1        0.0696
     62 H           0.6829   -2.2396    1.6019 H       1  UNL1        0.0696
     63 H           1.6526   -4.0675   -0.5987 H       1  UNL1        0.0301
     64 H           1.4043   -4.4407    1.1768 H       1  UNL1        0.0301
     65 H          -0.8107   -3.5753   -0.7680 H       1  UNL1        0.0308
     66 H          -0.4695   -5.2543   -0.3116 H       1  UNL1        0.0308
     67 H          -0.8658   -4.5701    2.1879 H       1  UNL1        0.0569
     68 H          -2.7905   -3.3607    2.4669 H       1  UNL1        0.0570
     69 H          -2.7185   -2.5498   -0.5410 H       1  UNL1        0.0340
     70 H          -4.1244   -2.8888    0.4798 H       1  UNL1        0.0340
     71 H          -3.6886   -1.1907    2.0139 H       1  UNL1        0.0699
     72 H          -2.1180   -0.7624    1.2672 H       1  UNL1        0.0699
@<TRIPOS>BOND
     1     1     2    1
     2     2     3   ar
     3     3     4   ar
     4     4     5    1
     5     4     6   ar
     6     6     7   ar
     7     7     8   ar
     8     8     9    1
     9     9    10    1
    10    10    11   am
    11    11    12    2
    12    11    13    1
    13    13    14   ar
    14    14    15   ar
    15    15    16   ar
    16    16    17   ar
    17    16    18    1
    18    18    19    1
    19    19    20   ar
    20    20    21   ar
    21    21    22   ar
    22    22    23    1
    23    23    24    1
    24    24    25   ar
    25    25    26   ar
    26    26    27   ar
    27    27    28   ar
    28    22    29   ar
    29    29    30   ar
    30    30    31    1
    31    31    32    1
    32    32    33    1
    33    33    34    1
    34    34    35    1
    35    35    36    2
    36    36    37    1
    37    37    38    1
    38    38    39    1
    39     8     2   ar
    40    17    13   ar
    41    30    19   ar
    42    39     7    1
    43    28    24   ar
    44     1    40    1
    45     1    41    1
    46     1    42    1
    47     5    43    1
    48     5    44    1
    49     6    45    1
    50     9    46    1
    51     9    47    1
    52    10    48    1
    53    14    49    1
    54    17    50    1
    55    18    51    1
    56    18    52    1
    57    20    53    1
    58    21    54    1
    59    23    55    1
    60    23    56    1
    61    25    57    1
    62    26    58    1
    63    27    59    1
    64    29    60    1
    65    32    61    1
    66    32    62    1
    67    33    63    1
    68    33    64    1
    69    34    65    1
    70    34    66    1
    71    35    67    1
    72    36    68    1
    73    37    69    1
    74    37    70    1
    75    38    71    1
    76    38    72    1
