@<TRIPOS>MOLECULE
*****
 55 56 0 0 0
SMALL
GASTEIGER

@<TRIPOS>ATOM
      1 C          -3.8990   -4.6819   -0.6952 C.3     0  UNK0       -0.0306
      2 C          -2.5060   -4.3234   -1.1708 C.3     0  UNK0        0.0897
      3 O          -2.1093   -3.1553   -0.4843 O.3     0  UNK0       -0.4638
      4 C          -0.9011   -2.5291   -0.6538 C.2     0  UNK0        0.3243
      5 O          -0.2934   -3.2124   -1.5086 O.2     0  UNK0       -0.2491
      6 C          -0.5824   -1.2849    0.1336 C.3     0  UNK0        0.1067
      7 C          -1.7165   -0.3309    0.1829 C.3     0  UNK0       -0.0232
      8 C          -1.4062    0.8968    0.9775 C.3     0  UNK0       -0.0258
      9 C          -2.5934    1.8251    0.9835 C.ar    0  UNK0       -0.0473
     10 C          -3.5260    1.6779    1.9952 C.ar    0  UNK0       -0.0586
     11 C          -4.6565    2.4664    2.1105 C.ar    0  UNK0       -0.0615
     12 C          -4.8678    3.4551    1.1652 C.ar    0  UNK0       -0.0617
     13 C          -3.9442    3.6111    0.1516 C.ar    0  UNK0       -0.0615
     14 C          -2.8068    2.8112    0.0431 C.ar    0  UNK0       -0.0586
     15 N           0.7070   -0.7769   -0.1711 N.3     1  ALA1       -0.2937
     16 CA          1.0428   -0.5170   -1.5188 C.3     1  ALA1        0.0827
     17 CB          0.1667    0.4620   -2.2559 C.3     1  ALA1       -0.0411
     18 C           2.4002    0.1481   -1.5115 C.2     1  ALA1        0.2330
     19 O           2.7508    0.3798   -2.7105 O.2     1  ALA1       -0.2739
     20 N           3.1631    0.4629   -0.3272 N.am    2  PRO2       -0.2867
     21 CD          2.9912    0.3110    1.1206 C.3     2  PRO2        0.0156
     22 CG          3.7484    1.4743    1.7226 C.3     2  PRO2       -0.0349
     23 CB          4.5775    2.0833    0.6410 C.3     2  PRO2       -0.0225
     24 CA          4.4551    1.0956   -0.4929 C.3     2  PRO2        0.1228
     25 C           5.5708    0.1286   -0.3392 C.2     2  PRO2        0.3255
     26 O           6.4380   -0.9300   -0.1596 O.3     2  PRO2       -0.4793
     27 OXT         6.7676    0.5177   -0.4539 O.2     2  PRO2       -0.2489
     28 H          -4.4146   -3.7625   -0.3453 H       0  UNK0        0.0262
     29 H          -4.4832   -5.2091   -1.4762 H       0  UNK0        0.0262
     30 H          -3.7890   -5.3138    0.2242 H       0  UNK0        0.0262
     31 H          -1.7690   -5.1133   -0.9142 H       0  UNK0        0.0694
     32 H          -2.5074   -4.0775   -2.2498 H       0  UNK0        0.0694
     33 H          -0.4901   -1.6823    1.1953 H       0  UNK0        0.0576
     34 H          -2.2109   -0.1135   -0.7860 H       0  UNK0        0.0289
     35 H          -2.5316   -0.8522    0.7739 H       0  UNK0        0.0289
     36 H          -1.2180    0.5780    2.0268 H       0  UNK0        0.0314
     37 H          -0.5485    1.4826    0.6713 H       0  UNK0        0.0314
     38 H          -3.3983    0.9121    2.7597 H       0  UNK0        0.0620
     39 H          -5.3491    2.3083    2.9180 H       0  UNK0        0.0618
     40 H          -5.7458    4.0751    1.2460 H       0  UNK0        0.0618
     41 H          -4.1085    4.3838   -0.5879 H       0  UNK0        0.0618
     42 H          -2.0741    2.9219   -0.7461 H       0  UNK0        0.0620
     43 H           1.3977   -1.5099    0.1805 H       1  ALA1        0.1234
     44 HA          1.1374   -1.4237   -2.1540 H       1  ALA1        0.0554
     45 HB1        -0.7488   -0.0081   -2.6668 H       1  ALA1        0.0249
     46 HB2         0.7428    0.7718   -3.1750 H       1  ALA1        0.0249
     47 HB3        -0.1318    1.3113   -1.6484 H       1  ALA1        0.0249
     48 HD1         3.3261   -0.6666    1.4914 H       2  PRO2        0.0465
     49 HD2         1.9408    0.4476    1.4455 H       2  PRO2        0.0465
     50 HG1         3.0799    2.2491    2.1636 H       2  PRO2        0.0281
     51 HG2         4.3475    1.0838    2.5701 H       2  PRO2        0.0281
     52 HB1         5.6063    2.1925    1.0045 H       2  PRO2        0.0289
     53 HB2         4.1457    3.0483    0.3104 H       2  PRO2        0.0289
     54 HA          4.5967    1.6306   -1.4285 H       2  PRO2        0.0616
     55 H           6.2271   -1.7294    0.4229 H       2  PRO2        0.2951
@<TRIPOS>BOND
     1     1     2    1
     2     2     3    1
     3     3     4    1
     4     4     5    2
     5     4     6    1
     6     6     7    1
     7     7     8    1
     8     8     9    1
     9     9    10   ar
    10    10    11   ar
    11    11    12   ar
    12    12    13   ar
    13    13    14   ar
    14     6    15    1
    15    15    16    1
    16    16    17    1
    17    16    18    1
    18    18    19    2
    19    18    20   am
    20    20    21    1
    21    21    22    1
    22    22    23    1
    23    23    24    1
    24    24    25    1
    25    25    26    1
    26    25    27    2
    27    14     9   ar
    28    24    20    1
    29     1    28    1
    30     1    29    1
    31     1    30    1
    32     2    31    1
    33     2    32    1
    34     6    33    1
    35     7    34    1
    36     7    35    1
    37     8    36    1
    38     8    37    1
    39    10    38    1
    40    11    39    1
    41    12    40    1
    42    13    41    1
    43    14    42    1
    44    15    43    1
    45    16    44    1
    46    17    45    1
    47    17    46    1
    48    17    47    1
    49    21    48    1
    50    21    49    1
    51    22    50    1
    52    22    51    1
    53    23    52    1
    54    23    53    1
    55    24    54    1
    56    26    55    1
