
     RDKit          3D

 61 65  0  0  0  0  0  0  0  0999 V2000
   -5.4922   -1.4529    1.2666 C   0  0  0  0  0  0  0  0  0  0  0  0
   -5.7032   -0.7073    0.0512 N   0  0  0  0  0  0  0  0  0  0  0  0
   -5.2569    0.6462    0.1339 C   0  0  0  0  0  0  0  0  0  0  0  0
   -3.8051    0.6776    0.4377 C   0  0  0  0  0  0  0  0  0  0  0  0
   -3.3094    0.6846    1.7095 C   0  0  0  0  0  0  0  0  0  0  0  0
   -1.9551    0.7240    1.9455 C   0  0  0  0  0  0  0  0  0  0  0  0
   -1.0279    0.7592    0.8908 C   0  0  0  0  0  0  0  0  0  0  0  0
    0.3174    0.7993    1.1860 O   0  0  0  0  0  0  0  0  0  0  0  0
    1.3490    0.8531    0.2550 C   0  0  0  0  0  0  0  0  0  0  0  0
    2.2188    2.0749    0.5252 C   0  0  0  0  0  0  0  0  0  0  0  0
    3.4064    1.2553    0.6078 N   0  0  0  0  0  0  0  0  0  0  0  0
    4.7847    1.5230    0.7022 C   0  0  0  0  0  0  0  0  0  0  0  0
    5.1877    2.7050    0.7291 O   0  0  0  0  0  0  0  0  0  0  0  0
    5.7354    0.4330    0.7683 C   0  0  0  0  0  0  0  0  0  0  0  0
    5.4630   -0.8491    1.0224 N   0  0  0  0  0  0  0  0  0  0  0  0
    6.6306   -1.4982    0.9858 N   0  0  0  0  0  0  0  0  0  0  0  0
    7.6040   -0.6221    0.7124 C   0  0  0  0  0  0  0  0  0  0  0  0
    9.0415   -0.9126    0.5804 C   0  0  0  0  0  0  0  0  0  0  0  0
    9.9038    0.1175    0.2939 C   0  0  0  0  0  0  0  0  0  0  0  0
   11.2723   -0.1371    0.1652 C   0  0  0  0  0  0  0  0  0  0  0  0
   11.7711   -1.4119    0.3220 C   0  0  0  0  0  0  0  0  0  0  0  0
   10.9043   -2.4378    0.6086 C   0  0  0  0  0  0  0  0  0  0  0  0
    9.5408   -2.1706    0.7346 C   0  0  0  0  0  0  0  0  0  0  0  0
    7.0189    0.5429    0.5869 O   0  0  0  0  0  0  0  0  0  0  0  0
    2.5974    0.0639    0.5534 C   0  0  0  0  0  0  0  0  0  0  0  0
   -1.5237    0.7520   -0.3957 C   0  0  0  0  0  0  0  0  0  0  0  0
   -2.8908    0.7115   -0.5893 C   0  0  0  0  0  0  0  0  0  0  0  0
   -6.9948   -0.9055   -0.5241 C   0  0  0  0  0  0  0  0  0  0  0  0
   -7.2347   -0.1421   -1.7926 C   0  0  0  0  0  0  0  0  0  0  0  0
   -6.2949   -0.4535   -2.9204 C   0  0  0  0  0  0  0  0  0  0  0  0
   -7.7248    1.2588   -1.6891 C   0  0  0  0  0  0  0  0  0  0  0  0
   -9.0257    0.9293   -2.1010 O   0  0  0  0  0  0  0  0  0  0  0  0
   -8.6701   -0.3877   -2.2504 C   0  0  0  0  0  0  0  0  0  0  0  0
   -5.9407   -2.4436    1.2603 H   0  0  0  0  0  0  0  0  0  0  0  0
   -5.8634   -0.8220    2.1256 H   0  0  0  0  0  0  0  0  0  0  0  0
   -4.3975   -1.5510    1.4240 H   0  0  0  0  0  0  0  0  0  0  0  0
   -5.4644    1.2490   -0.7618 H   0  0  0  0  0  0  0  0  0  0  0  0
   -5.7738    1.1391    0.9848 H   0  0  0  0  0  0  0  0  0  0  0  0
   -3.9978    0.6582    2.5476 H   0  0  0  0  0  0  0  0  0  0  0  0
   -1.5401    0.7294    2.9578 H   0  0  0  0  0  0  0  0  0  0  0  0
    1.0681    0.7793   -0.8129 H   0  0  0  0  0  0  0  0  0  0  0  0
    2.0152    2.5583    1.5014 H   0  0  0  0  0  0  0  0  0  0  0  0
    2.1896    2.7716   -0.3110 H   0  0  0  0  0  0  0  0  0  0  0  0
    9.5140    1.1053    0.1729 H   0  0  0  0  0  0  0  0  0  0  0  0
   11.9466    0.6522   -0.0551 H   0  0  0  0  0  0  0  0  0  0  0  0
   12.8273   -1.6012    0.2205 H   0  0  0  0  0  0  0  0  0  0  0  0
   11.3101   -3.4412    0.7309 H   0  0  0  0  0  0  0  0  0  0  0  0
    8.8735   -2.9947    0.9615 H   0  0  0  0  0  0  0  0  0  0  0  0
    2.6199   -0.4423    1.5462 H   0  0  0  0  0  0  0  0  0  0  0  0
    2.8610   -0.6778   -0.2171 H   0  0  0  0  0  0  0  0  0  0  0  0
   -0.8749    0.7761   -1.2576 H   0  0  0  0  0  0  0  0  0  0  0  0
   -3.2937    0.7052   -1.6102 H   0  0  0  0  0  0  0  0  0  0  0  0
   -7.7468   -0.6475    0.2466 H   0  0  0  0  0  0  0  0  0  0  0  0
   -7.1284   -1.9818   -0.7482 H   0  0  0  0  0  0  0  0  0  0  0  0
   -5.6374    0.3923   -3.2051 H   0  0  0  0  0  0  0  0  0  0  0  0
   -5.5753   -1.2315   -2.5244 H   0  0  0  0  0  0  0  0  0  0  0  0
   -6.8149   -0.9385   -3.7411 H   0  0  0  0  0  0  0  0  0  0  0  0
   -7.2016    1.9333   -2.4309 H   0  0  0  0  0  0  0  0  0  0  0  0
   -7.8115    1.7077   -0.6709 H   0  0  0  0  0  0  0  0  0  0  0  0
   -8.7684   -0.6800   -3.3254 H   0  0  0  0  0  0  0  0  0  0  0  0
   -9.2324   -1.1272   -1.6500 H   0  0  0  0  0  0  0  0  0  0  0  0
  1  2  1  0
  2  3  1  0
  3  4  1  0
  4  5  2  0
  5  6  1  0
  6  7  2  0
  7  8  1  0
  8  9  1  0
  9 10  1  0
 10 11  1  0
 11 12  1  0
 12 13  2  0
 12 14  1  0
 14 15  2  0
 15 16  1  0
 16 17  2  0
 17 18  1  0
 18 19  2  0
 19 20  1  0
 20 21  2  0
 21 22  1  0
 22 23  2  0
 17 24  1  0
 11 25  1  0
  7 26  1  0
 26 27  2  0
  2 28  1  0
 28 29  1  0
 29 30  1  0
 29 31  1  0
 31 32  1  0
 32 33  1  0
 27  4  1  0
 33 29  1  0
 25  9  1  0
 24 14  1  0
 23 18  1  0
  1 34  1  0
  1 35  1  0
  1 36  1  0
  3 37  1  0
  3 38  1  0
  5 39  1  0
  6 40  1  0
  9 41  1  0
 10 42  1  0
 10 43  1  0
 19 44  1  0
 20 45  1  0
 21 46  1  0
 22 47  1  0
 23 48  1  0
 25 49  1  0
 25 50  1  0
 26 51  1  0
 27 52  1  0
 28 53  1  0
 28 54  1  0
 30 55  1  0
 30 56  1  0
 30 57  1  0
 31 58  1  0
 31 59  1  0
 33 60  1  0
 33 61  1  0
M  END
$$$$
