@<TRIPOS>MOLECULE
*****
 61 65 0 0 0
SMALL
GASTEIGER

@<TRIPOS>ATOM
      1 C          -5.4922   -1.4529    1.2666 C.3     1  UNL1       -0.0124
      2 N          -5.7032   -0.7073    0.0512 N.3     1  UNL1       -0.3005
      3 C          -5.2569    0.6462    0.1339 C.3     1  UNL1        0.0238
      4 C          -3.8051    0.6776    0.4377 C.ar    1  UNL1       -0.0331
      5 C          -3.3094    0.6846    1.7095 C.ar    1  UNL1       -0.0539
      6 C          -1.9551    0.7240    1.9455 C.ar    1  UNL1       -0.0196
      7 C          -1.0279    0.7592    0.8908 C.ar    1  UNL1        0.1211
      8 O           0.3174    0.7993    1.1860 O.3     1  UNL1       -0.4857
      9 C           1.3490    0.8531    0.2550 C.3     1  UNL1        0.1314
     10 C           2.2188    2.0749    0.5252 C.3     1  UNL1        0.0538
     11 N           3.4064    1.2553    0.6078 N.am    1  UNL1       -0.2865
     12 C           4.7847    1.5230    0.7022 C.2     1  UNL1        0.3035
     13 O           5.1877    2.7050    0.7291 O.2     1  UNL1       -0.2647
     14 C           5.7354    0.4330    0.7683 C.ar    1  UNL1        0.3042
     15 N           5.4630   -0.8491    1.0224 N.ar    1  UNL1       -0.1021
     16 N           6.6306   -1.4982    0.9858 N.ar    1  UNL1       -0.1068
     17 C           7.6040   -0.6221    0.7124 C.ar    1  UNL1        0.2489
     18 C           9.0415   -0.9126    0.5804 C.ar    1  UNL1        0.0385
     19 C           9.9038    0.1175    0.2939 C.ar    1  UNL1       -0.0494
     20 C          11.2723   -0.1371    0.1652 C.ar    1  UNL1       -0.0610
     21 C          11.7711   -1.4119    0.3220 C.ar    1  UNL1       -0.0617
     22 C          10.9043   -2.4378    0.6086 C.ar    1  UNL1       -0.0610
     23 C           9.5408   -2.1706    0.7346 C.ar    1  UNL1       -0.0494
     24 O           7.0189    0.5429    0.5869 O.2     1  UNL1       -0.4123
     25 C           2.5974    0.0639    0.5534 C.3     1  UNL1        0.0538
     26 C          -1.5237    0.7520   -0.3957 C.ar    1  UNL1       -0.0196
     27 C          -2.8908    0.7115   -0.5893 C.ar    1  UNL1       -0.0539
     28 C          -6.9948   -0.9055   -0.5241 C.3     1  UNL1        0.0085
     29 C          -7.2347   -0.1421   -1.7926 C.3     1  UNL1        0.0273
     30 C          -6.2949   -0.4535   -2.9204 C.3     1  UNL1       -0.0542
     31 C          -7.7248    1.2588   -1.6891 C.3     1  UNL1        0.0563
     32 O          -9.0257    0.9293   -2.1010 O.3     1  UNL1       -0.3784
     33 C          -8.6701   -0.3877   -2.2504 C.3     1  UNL1        0.0563
     34 H          -5.9407   -2.4436    1.2603 H       1  UNL1        0.0391
     35 H          -5.8634   -0.8220    2.1256 H       1  UNL1        0.0391
     36 H          -4.3975   -1.5510    1.4240 H       1  UNL1        0.0391
     37 H          -5.4644    1.2490   -0.7618 H       1  UNL1        0.0476
     38 H          -5.7738    1.1391    0.9848 H       1  UNL1        0.0476
     39 H          -3.9978    0.6582    2.5476 H       1  UNL1        0.0622
     40 H          -1.5401    0.7294    2.9578 H       1  UNL1        0.0654
     41 H           1.0681    0.7793   -0.8129 H       1  UNL1        0.0765
     42 H           2.0152    2.5583    1.5014 H       1  UNL1        0.0502
     43 H           2.1896    2.7716   -0.3110 H       1  UNL1        0.0502
     44 H           9.5140    1.1053    0.1729 H       1  UNL1        0.0625
     45 H          11.9466    0.6522   -0.0551 H       1  UNL1        0.0618
     46 H          12.8273   -1.6012    0.2205 H       1  UNL1        0.0618
     47 H          11.3101   -3.4412    0.7309 H       1  UNL1        0.0618
     48 H           8.8735   -2.9947    0.9615 H       1  UNL1        0.0625
     49 H           2.6199   -0.4423    1.5462 H       1  UNL1        0.0502
     50 H           2.8610   -0.6778   -0.2171 H       1  UNL1        0.0502
     51 H          -0.8749    0.7761   -1.2576 H       1  UNL1        0.0654
     52 H          -3.2937    0.7052   -1.6102 H       1  UNL1        0.0622
     53 H          -7.7468   -0.6475    0.2466 H       1  UNL1        0.0433
     54 H          -7.1284   -1.9818   -0.7482 H       1  UNL1        0.0433
     55 H          -5.6374    0.3923   -3.2051 H       1  UNL1        0.0237
     56 H          -5.5753   -1.2315   -2.5244 H       1  UNL1        0.0237
     57 H          -6.8149   -0.9385   -3.7411 H       1  UNL1        0.0237
     58 H          -7.2016    1.9333   -2.4309 H       1  UNL1        0.0566
     59 H          -7.8115    1.7077   -0.6709 H       1  UNL1        0.0566
     60 H          -8.7684   -0.6800   -3.3254 H       1  UNL1        0.0566
     61 H          -9.2324   -1.1272   -1.6500 H       1  UNL1        0.0566
@<TRIPOS>BOND
     1     1     2    1
     2     2     3    1
     3     3     4    1
     4     4     5   ar
     5     5     6   ar
     6     6     7   ar
     7     7     8    1
     8     8     9    1
     9     9    10    1
    10    10    11    1
    11    11    12   am
    12    12    13    2
    13    12    14    1
    14    14    15   ar
    15    15    16   ar
    16    16    17   ar
    17    17    18    1
    18    18    19   ar
    19    19    20   ar
    20    20    21   ar
    21    21    22   ar
    22    22    23   ar
    23    17    24   ar
    24    11    25    1
    25     7    26   ar
    26    26    27   ar
    27     2    28    1
    28    28    29    1
    29    29    30    1
    30    29    31    1
    31    31    32    1
    32    32    33    1
    33    27     4   ar
    34    33    29    1
    35    25     9    1
    36    24    14   ar
    37    23    18   ar
    38     1    34    1
    39     1    35    1
    40     1    36    1
    41     3    37    1
    42     3    38    1
    43     5    39    1
    44     6    40    1
    45     9    41    1
    46    10    42    1
    47    10    43    1
    48    19    44    1
    49    20    45    1
    50    21    46    1
    51    22    47    1
    52    23    48    1
    53    25    49    1
    54    25    50    1
    55    26    51    1
    56    27    52    1
    57    28    53    1
    58    28    54    1
    59    30    55    1
    60    30    56    1
    61    30    57    1
    62    31    58    1
    63    31    59    1
    64    33    60    1
    65    33    61    1
