
     RDKit          3D

 65 68  0  0  0  0  0  0  0  0999 V2000
   -4.8235    2.6149    2.2723 C   0  0  0  0  0  0  0  0  0  0  0  0
   -4.9686    3.4684    1.1312 N   0  0  0  0  0  0  0  0  0  0  0  0
   -6.1552    3.2335    0.3489 C   0  0  0  0  0  0  0  0  0  0  0  0
   -3.6147    3.2891    0.1134 S   0  0  0  0  0  0  0  0  0  0  0  0
   -2.3924    3.6132    0.9294 O   0  0  0  0  0  0  0  0  0  0  0  0
   -3.6598    4.2272   -1.0731 O   0  0  0  0  0  0  0  0  0  0  0  0
   -3.4115    1.6717   -0.5178 C   0  0  0  0  0  0  0  0  0  0  0  0
   -2.6724    0.6794    0.0855 C   0  0  0  0  0  0  0  0  0  0  0  0
   -2.4956   -0.6019   -0.3884 C   0  0  0  0  0  0  0  0  0  0  0  0
   -3.1641   -0.7837   -1.5745 C   0  0  0  0  0  0  0  0  0  0  0  0
   -3.0574   -2.3737   -2.3737 S   0  0  0  0  0  0  0  0  0  0  0  0
   -2.0511   -3.3903   -1.3158 C   0  0  0  0  0  0  0  0  0  0  0  0
   -1.8938   -4.6649   -1.7775 C   0  0  0  0  0  0  0  0  0  0  0  0
   -1.1382   -5.5461   -1.0309 C   0  0  0  0  0  0  0  0  0  0  0  0
   -0.5774   -5.0984    0.1469 C   0  0  0  0  0  0  0  0  0  0  0  0
   -0.7957   -3.7899    0.5275 C   0  0  0  0  0  0  0  0  0  0  0  0
   -1.5352   -2.8544   -0.1634 C   0  0  0  0  0  0  0  0  0  0  0  0
   -1.7094   -1.5422    0.3272 N   0  0  0  0  0  0  0  0  0  0  0  0
   -1.0427   -1.1653    1.5398 C   0  0  0  0  0  0  0  0  0  0  0  0
    0.4432   -0.9220    1.3853 C   0  0  0  0  0  0  0  0  0  0  0  0
    0.6927    0.2205    0.3898 C   0  0  0  0  0  0  0  0  0  0  0  0
    2.1304    0.3702    0.3065 N   0  0  0  0  0  0  0  0  0  0  0  0
    2.5098    1.4595   -0.5770 C   0  0  0  0  0  0  0  0  0  0  0  0
    3.9864    1.7160   -0.2491 C   0  0  0  0  0  0  0  0  0  0  0  0
    4.7462    0.5564   -0.8032 C   0  0  0  0  0  0  0  0  0  0  0  0
    5.9521    0.2337    0.0580 C   0  0  0  0  0  0  0  0  0  0  0  0
    6.9026    1.4071    0.1405 C   0  0  0  0  0  0  0  0  0  0  0  0
    7.9882    1.0569    0.9404 O   0  0  0  0  0  0  0  0  0  0  0  0
    3.9466   -0.6833   -1.0036 C   0  0  0  0  0  0  0  0  0  0  0  0
    2.7817   -0.8663   -0.0812 C   0  0  0  0  0  0  0  0  0  0  0  0
   -3.9118    0.1162   -2.2461 C   0  0  0  0  0  0  0  0  0  0  0  0
   -4.0456    1.3815   -1.7119 C   0  0  0  0  0  0  0  0  0  0  0  0
   -3.7953    2.1997    2.4087 H   0  0  0  0  0  0  0  0  0  0  0  0
   -5.0026    3.2364    3.1846 H   0  0  0  0  0  0  0  0  0  0  0  0
   -5.4993    1.7499    2.1840 H   0  0  0  0  0  0  0  0  0  0  0  0
   -5.9934    3.5055   -0.7263 H   0  0  0  0  0  0  0  0  0  0  0  0
   -6.4239    2.1712    0.4990 H   0  0  0  0  0  0  0  0  0  0  0  0
   -7.0285    3.8347    0.6656 H   0  0  0  0  0  0  0  0  0  0  0  0
   -2.2343    1.0478    0.9999 H   0  0  0  0  0  0  0  0  0  0  0  0
   -2.3102   -5.0517   -2.6822 H   0  0  0  0  0  0  0  0  0  0  0  0
   -0.9880   -6.5648   -1.3599 H   0  0  0  0  0  0  0  0  0  0  0  0
    0.0056   -5.8250    0.6961 H   0  0  0  0  0  0  0  0  0  0  0  0
   -0.3086   -3.5953    1.4714 H   0  0  0  0  0  0  0  0  0  0  0  0
   -1.1994   -2.0254    2.2599 H   0  0  0  0  0  0  0  0  0  0  0  0
   -1.4337   -0.3034    2.0619 H   0  0  0  0  0  0  0  0  0  0  0  0
    0.8657   -0.5386    2.3385 H   0  0  0  0  0  0  0  0  0  0  0  0
    1.0486   -1.7881    1.1219 H   0  0  0  0  0  0  0  0  0  0  0  0
    0.2322    0.0433   -0.5817 H   0  0  0  0  0  0  0  0  0  0  0  0
    0.2361    1.1095    0.8297 H   0  0  0  0  0  0  0  0  0  0  0  0
    1.9415    2.3580   -0.2907 H   0  0  0  0  0  0  0  0  0  0  0  0
    2.3713    1.1926   -1.6393 H   0  0  0  0  0  0  0  0  0  0  0  0
    4.0631    1.6586    0.8609 H   0  0  0  0  0  0  0  0  0  0  0  0
    4.3275    2.7095   -0.5998 H   0  0  0  0  0  0  0  0  0  0  0  0
    5.1736    0.9022   -1.7930 H   0  0  0  0  0  0  0  0  0  0  0  0
    5.6660   -0.0407    1.0893 H   0  0  0  0  0  0  0  0  0  0  0  0
    6.5238   -0.5949   -0.4097 H   0  0  0  0  0  0  0  0  0  0  0  0
    6.4227    2.2830    0.6359 H   0  0  0  0  0  0  0  0  0  0  0  0
    7.2426    1.7283   -0.8505 H   0  0  0  0  0  0  0  0  0  0  0  0
    8.7037    0.7720    0.3072 H   0  0  0  0  0  0  0  0  0  0  0  0
    3.6463   -0.8048   -2.0860 H   0  0  0  0  0  0  0  0  0  0  0  0
    4.6212   -1.5730   -0.8372 H   0  0  0  0  0  0  0  0  0  0  0  0
    3.1438   -1.3506    0.8479 H   0  0  0  0  0  0  0  0  0  0  0  0
    2.0712   -1.5549   -0.5998 H   0  0  0  0  0  0  0  0  0  0  0  0
   -4.4168   -0.0610   -3.1662 H   0  0  0  0  0  0  0  0  0  0  0  0
   -4.6363    2.1373   -2.2161 H   0  0  0  0  0  0  0  0  0  0  0  0
  1  2  1  0
  2  3  1  0
  2  4  1  0
  4  5  2  0
  4  6  2  0
  4  7  1  0
  7  8  2  0
  8  9  1  0
  9 10  2  0
 10 11  1  0
 11 12  1  0
 12 13  2  0
 13 14  1  0
 14 15  2  0
 15 16  1  0
 16 17  2  0
 17 18  1  0
 18 19  1  0
 19 20  1  0
 20 21  1  0
 21 22  1  0
 22 23  1  0
 23 24  1  0
 24 25  1  0
 25 26  1  0
 26 27  1  0
 27 28  1  0
 25 29  1  0
 29 30  1  0
 10 31  1  0
 31 32  2  0
 32  7  1  0
 18  9  1  0
 30 22  1  0
 17 12  1  0
  1 33  1  0
  1 34  1  0
  1 35  1  0
  3 36  1  0
  3 37  1  0
  3 38  1  0
  8 39  1  0
 13 40  1  0
 14 41  1  0
 15 42  1  0
 16 43  1  0
 19 44  1  0
 19 45  1  0
 20 46  1  0
 20 47  1  0
 21 48  1  0
 21 49  1  0
 23 50  1  0
 23 51  1  0
 24 52  1  0
 24 53  1  0
 25 54  1  0
 26 55  1  0
 26 56  1  0
 27 57  1  0
 27 58  1  0
 28 59  1  0
 29 60  1  0
 29 61  1  0
 30 62  1  0
 30 63  1  0
 31 64  1  0
 32 65  1  0
M  END
$$$$
