@<TRIPOS>MOLECULE
*****
 65 68 0 0 0
SMALL
GASTEIGER

@<TRIPOS>ATOM
      1 C          -4.8235    2.6149    2.2723 C.3     1  UNL1        0.0086
      2 N          -4.9686    3.4684    1.1312 N.3     1  UNL1       -0.1827
      3 C          -6.1552    3.2335    0.3489 C.3     1  UNL1        0.0086
      4 S          -3.6147    3.2891    0.1134 S.O2    1  UNL1        0.0604
      5 O          -2.3924    3.6132    0.9294 O.2     1  UNL1       -0.1529
      6 O          -3.6598    4.2272   -1.0731 O.2     1  UNL1       -0.1529
      7 C          -3.4115    1.6717   -0.5178 C.ar    1  UNL1        0.1073
      8 C          -2.6724    0.6794    0.0855 C.ar    1  UNL1       -0.0129
      9 C          -2.4956   -0.6019   -0.3884 C.ar    1  UNL1        0.0497
     10 C          -3.1641   -0.7837   -1.5745 C.ar    1  UNL1        0.0342
     11 S          -3.0574   -2.3737   -2.3737 S.3     1  UNL1       -0.0857
     12 C          -2.0511   -3.3903   -1.3158 C.ar    1  UNL1        0.0341
     13 C          -1.8938   -4.6649   -1.7775 C.ar    1  UNL1       -0.0462
     14 C          -1.1382   -5.5461   -1.0309 C.ar    1  UNL1       -0.0606
     15 C          -0.5774   -5.0984    0.1469 C.ar    1  UNL1       -0.0599
     16 C          -0.7957   -3.7899    0.5275 C.ar    1  UNL1       -0.0393
     17 C          -1.5352   -2.8544   -0.1634 C.ar    1  UNL1        0.0479
     18 N          -1.7094   -1.5422    0.3272 N.pl3   1  UNL1       -0.2982
     19 C          -1.0427   -1.1653    1.5398 C.3     1  UNL1        0.0185
     20 C           0.4432   -0.9220    1.3853 C.3     1  UNL1       -0.0240
     21 C           0.6927    0.2205    0.3898 C.3     1  UNL1        0.0003
     22 N           2.1304    0.3702    0.3065 N.3     1  UNL1       -0.3022
     23 C           2.5098    1.4595   -0.5770 C.3     1  UNL1       -0.0009
     24 C           3.9864    1.7160   -0.2491 C.3     1  UNL1       -0.0372
     25 C           4.7462    0.5564   -0.8032 C.3     1  UNL1       -0.0367
     26 C           5.9521    0.2337    0.0580 C.3     1  UNL1       -0.0268
     27 C           6.9026    1.4071    0.1405 C.3     1  UNL1        0.0445
     28 O           7.9882    1.0569    0.9404 O.3     1  UNL1       -0.3950
     29 C           3.9466   -0.6833   -1.0036 C.3     1  UNL1       -0.0372
     30 C           2.7817   -0.8663   -0.0812 C.3     1  UNL1       -0.0009
     31 C          -3.9118    0.1162   -2.2461 C.ar    1  UNL1       -0.0443
     32 C          -4.0456    1.3815   -1.7119 C.ar    1  UNL1       -0.0342
     33 H          -3.7953    2.1997    2.4087 H       1  UNL1        0.0408
     34 H          -5.0026    3.2364    3.1846 H       1  UNL1        0.0408
     35 H          -5.4993    1.7499    2.1840 H       1  UNL1        0.0408
     36 H          -5.9934    3.5055   -0.7263 H       1  UNL1        0.0408
     37 H          -6.4239    2.1712    0.4990 H       1  UNL1        0.0408
     38 H          -7.0285    3.8347    0.6656 H       1  UNL1        0.0408
     39 H          -2.2343    1.0478    0.9999 H       1  UNL1        0.0656
     40 H          -2.3102   -5.0517   -2.6822 H       1  UNL1        0.0629
     41 H          -0.9880   -6.5648   -1.3599 H       1  UNL1        0.0618
     42 H           0.0056   -5.8250    0.6961 H       1  UNL1        0.0618
     43 H          -0.3086   -3.5953    1.4714 H       1  UNL1        0.0636
     44 H          -1.1994   -2.0254    2.2599 H       1  UNL1        0.0468
     45 H          -1.4337   -0.3034    2.0619 H       1  UNL1        0.0468
     46 H           0.8657   -0.5386    2.3385 H       1  UNL1        0.0293
     47 H           1.0486   -1.7881    1.1219 H       1  UNL1        0.0293
     48 H           0.2322    0.0433   -0.5817 H       1  UNL1        0.0427
     49 H           0.2361    1.1095    0.8297 H       1  UNL1        0.0427
     50 H           1.9415    2.3580   -0.2907 H       1  UNL1        0.0427
     51 H           2.3713    1.1926   -1.6393 H       1  UNL1        0.0427
     52 H           4.0631    1.6586    0.8609 H       1  UNL1        0.0280
     53 H           4.3275    2.7095   -0.5998 H       1  UNL1        0.0280
     54 H           5.1736    0.9022   -1.7930 H       1  UNL1        0.0302
     55 H           5.6660   -0.0407    1.0893 H       1  UNL1        0.0290
     56 H           6.5238   -0.5949   -0.4097 H       1  UNL1        0.0290
     57 H           6.4227    2.2830    0.6359 H       1  UNL1        0.0557
     58 H           7.2426    1.7283   -0.8505 H       1  UNL1        0.0557
     59 H           8.7037    0.7720    0.3072 H       1  UNL1        0.2094
     60 H           3.6463   -0.8048   -2.0860 H       1  UNL1        0.0280
     61 H           4.6212   -1.5730   -0.8372 H       1  UNL1        0.0280
     62 H           3.1438   -1.3506    0.8479 H       1  UNL1        0.0427
     63 H           2.0712   -1.5549   -0.5998 H       1  UNL1        0.0427
     64 H          -4.4168   -0.0610   -3.1662 H       1  UNL1        0.0630
     65 H          -4.6363    2.1373   -2.2161 H       1  UNL1        0.0637
@<TRIPOS>BOND
     1     1     2    1
     2     2     3    1
     3     2     4    1
     4     4     5    2
     5     4     6    2
     6     4     7    1
     7     7     8   ar
     8     8     9   ar
     9     9    10   ar
    10    10    11    1
    11    11    12    1
    12    12    13   ar
    13    13    14   ar
    14    14    15   ar
    15    15    16   ar
    16    16    17   ar
    17    17    18    1
    18    18    19    1
    19    19    20    1
    20    20    21    1
    21    21    22    1
    22    22    23    1
    23    23    24    1
    24    24    25    1
    25    25    26    1
    26    26    27    1
    27    27    28    1
    28    25    29    1
    29    29    30    1
    30    10    31   ar
    31    31    32   ar
    32    32     7   ar
    33    18     9    1
    34    30    22    1
    35    17    12   ar
    36     1    33    1
    37     1    34    1
    38     1    35    1
    39     3    36    1
    40     3    37    1
    41     3    38    1
    42     8    39    1
    43    13    40    1
    44    14    41    1
    45    15    42    1
    46    16    43    1
    47    19    44    1
    48    19    45    1
    49    20    46    1
    50    20    47    1
    51    21    48    1
    52    21    49    1
    53    23    50    1
    54    23    51    1
    55    24    52    1
    56    24    53    1
    57    25    54    1
    58    26    55    1
    59    26    56    1
    60    27    57    1
    61    27    58    1
    62    28    59    1
    63    29    60    1
    64    29    61    1
    65    30    62    1
    66    30    63    1
    67    31    64    1
    68    32    65    1
