@<TRIPOS>MOLECULE
*****
 57 60 0 0 0
SMALL
GASTEIGER

@<TRIPOS>ATOM
      1 C           0.6137    0.9978    0.6689 C.3     1  UNL1        0.0855
      2 O          -0.1063    1.9397    1.3689 O.3     1  UNL1       -0.3888
      3 C           1.9626    0.7721    1.3405 C.3     1  UNL1        0.0239
      4 N           2.6454   -0.2049    0.5631 N.3     1  UNL1       -0.3108
      5 C           3.9456   -0.5892    1.0184 C.3     1  UNL1        0.0077
      6 C           4.8302    0.6367    1.0437 C.3     1  UNL1       -0.0375
      7 C           4.7997    1.2310   -0.3588 C.3     1  UNL1       -0.0516
      8 C           5.5816    0.2885   -1.2413 C.3     1  UNL1       -0.0530
      9 C           5.7411   -1.0620   -0.6093 C.3     1  UNL1       -0.0516
     10 C           4.4818   -1.5924    0.0060 C.3     1  UNL1       -0.0375
     11 C          -0.1186   -0.3426    0.7389 C.3     1  UNL1        0.0507
     12 N          -1.4465   -0.2453    0.1635 N.ar    1  UNL1       -0.3410
     13 C          -1.8912   -0.4340   -1.0758 C.ar    1  UNL1        0.0231
     14 C          -3.2641   -0.2150   -1.1151 C.ar    1  UNL1       -0.0189
     15 C          -4.0989   -0.3329   -2.3265 C.3     1  UNL1       -0.0254
     16 C          -3.4085   -1.3203   -3.2534 C.3     1  UNL1       -0.0486
     17 C          -2.0228   -0.7803   -3.5276 C.3     1  UNL1       -0.0474
     18 C          -1.1580   -0.8123   -2.2880 C.3     1  UNL1       -0.0120
     19 C          -3.6707    0.1231    0.1636 C.ar    1  UNL1        0.0035
     20 C          -2.5190    0.0946    0.9298 C.ar    1  UNL1        0.0496
     21 C          -2.6654    0.4028    2.2696 C.ar    1  UNL1       -0.0373
     22 C          -3.8454    0.7268    2.8758 C.ar    1  UNL1       -0.0569
     23 C          -4.9815    0.7497    2.0953 C.ar    1  UNL1       -0.0498
     24 C          -6.2659    1.1034    2.7587 C.3     1  UNL1       -0.0397
     25 C          -4.8664    0.4438    0.7419 C.ar    1  UNL1       -0.0494
     26 H           0.7461    1.3127   -0.3717 H       1  UNL1        0.0624
     27 H           0.1278    1.8970    2.3285 H       1  UNL1        0.2099
     28 H           1.7626    0.4437    2.3765 H       1  UNL1        0.0450
     29 H           2.5161    1.7327    1.3129 H       1  UNL1        0.0450
     30 H           2.4721   -0.2241   -0.4395 H       1  UNL1        0.1223
     31 H           3.9078   -1.0701    2.0333 H       1  UNL1        0.0460
     32 H           5.8735    0.3771    1.3330 H       1  UNL1        0.0280
     33 H           4.4441    1.3576    1.7902 H       1  UNL1        0.0280
     34 H           3.7593    1.3276   -0.6977 H       1  UNL1        0.0266
     35 H           5.2593    2.2421   -0.3731 H       1  UNL1        0.0266
     36 H           6.6199    0.6867   -1.3845 H       1  UNL1        0.0265
     37 H           5.0712    0.2015   -2.2217 H       1  UNL1        0.0265
     38 H           6.0772   -1.7471   -1.4337 H       1  UNL1        0.0266
     39 H           6.5750   -1.1022    0.1281 H       1  UNL1        0.0266
     40 H           4.7319   -2.5631    0.4811 H       1  UNL1        0.0280
     41 H           3.7730   -1.7923   -0.8211 H       1  UNL1        0.0280
     42 H           0.5053   -1.0855    0.1630 H       1  UNL1        0.0518
     43 H          -0.1812   -0.7052    1.7726 H       1  UNL1        0.0518
     44 H          -5.1201   -0.6904   -2.0711 H       1  UNL1        0.0314
     45 H          -4.1453    0.6592   -2.8293 H       1  UNL1        0.0314
     46 H          -3.9315   -1.4049   -4.2255 H       1  UNL1        0.0269
     47 H          -3.3301   -2.2993   -2.7475 H       1  UNL1        0.0269
     48 H          -2.1114    0.2654   -3.9046 H       1  UNL1        0.0269
     49 H          -1.5714   -1.3930   -4.3354 H       1  UNL1        0.0269
     50 H          -0.2767   -0.1568   -2.4417 H       1  UNL1        0.0328
     51 H          -0.7602   -1.8452   -2.1288 H       1  UNL1        0.0328
     52 H          -1.7866    0.3951    2.9198 H       1  UNL1        0.0638
     53 H          -3.9074    0.9630    3.9418 H       1  UNL1        0.0621
     54 H          -6.2104    2.1941    2.9854 H       1  UNL1        0.0278
     55 H          -7.0847    0.8644    2.0746 H       1  UNL1        0.0278
     56 H          -6.3094    0.5360    3.6967 H       1  UNL1        0.0278
     57 H          -5.7681    0.4653    0.1386 H       1  UNL1        0.0627
@<TRIPOS>BOND
     1     1     2    1
     2     1     3    1
     3     3     4    1
     4     4     5    1
     5     5     6    1
     6     6     7    1
     7     7     8    1
     8     8     9    1
     9     9    10    1
    10     1    11    1
    11    11    12    1
    12    12    13   ar
    13    13    14   ar
    14    14    15    1
    15    15    16    1
    16    16    17    1
    17    17    18    1
    18    14    19   ar
    19    19    20   ar
    20    20    21   ar
    21    21    22   ar
    22    22    23   ar
    23    23    24    1
    24    23    25   ar
    25    10     5    1
    26    20    12   ar
    27    18    13    1
    28    25    19   ar
    29     1    26    1
    30     2    27    1
    31     3    28    1
    32     3    29    1
    33     4    30    1
    34     5    31    1
    35     6    32    1
    36     6    33    1
    37     7    34    1
    38     7    35    1
    39     8    36    1
    40     8    37    1
    41     9    38    1
    42     9    39    1
    43    10    40    1
    44    10    41    1
    45    11    42    1
    46    11    43    1
    47    15    44    1
    48    15    45    1
    49    16    46    1
    50    16    47    1
    51    17    48    1
    52    17    49    1
    53    18    50    1
    54    18    51    1
    55    21    52    1
    56    22    53    1
    57    24    54    1
    58    24    55    1
    59    24    56    1
    60    25    57    1
