@<TRIPOS>MOLECULE
*****
 45 48 0 0 0
SMALL
GASTEIGER

@<TRIPOS>ATOM
      1 C          -3.8914    1.9590    1.2034 C.3     1  UNL1       -0.0234
      2 C          -3.2789    0.8305    0.4041 C.3     1  UNL1        0.1251
      3 O          -2.6817   -0.1422    1.1912 O.3     1  UNL1       -0.4844
      4 C          -1.3828   -0.5525    1.2213 C.ar    1  UNL1        0.1221
      5 C          -1.0583   -1.5656    2.1270 C.ar    1  UNL1       -0.0179
      6 C           0.2323   -2.0464    2.2290 C.ar    1  UNL1       -0.0323
      7 C           1.2470   -1.5470    1.4438 C.ar    1  UNL1        0.0712
      8 N           2.5240   -2.0193    1.5413 N.ar    1  UNL1       -0.2547
      9 C           3.5138   -1.5101    0.7537 C.ar    1  UNL1        0.0317
     10 C           3.2498   -0.5099   -0.1566 C.ar    1  UNL1       -0.0248
     11 C           4.2723    0.0729   -1.0263 C.3     1  UNL1       -0.0026
     12 C           5.4925   -0.6681   -1.4168 C.3     1  UNL1       -0.0338
     13 C           5.6168    0.2844   -0.3070 C.3     1  UNL1        0.0428
     14 C           6.1553    1.6361   -0.4654 C.2     1  UNL1        0.2142
     15 N           6.7970    2.3241    0.5862 N.am    1  UNL1       -0.3291
     16 O           6.0201    2.1807   -1.6141 O.2     1  UNL1       -0.2757
     17 C           1.9562   -0.0492   -0.2379 C.ar    1  UNL1       -0.0475
     18 C           0.9413   -0.5548    0.5535 C.ar    1  UNL1        0.0041
     19 C          -0.3534   -0.0663    0.4450 C.ar    1  UNL1       -0.0107
     20 C          -4.3420    0.2359   -0.4748 C.ar    1  UNL1        0.0317
     21 C          -4.5714    0.7067   -1.7511 C.ar    1  UNL1        0.0492
     22 CL         -3.5839    2.0251   -2.3241 Cl      1  UNL1       -0.0831
     23 C          -5.5450    0.1707   -2.5714 C.ar    1  UNL1       -0.0402
     24 C          -6.3306   -0.8718   -2.1268 C.ar    1  UNL1       -0.0236
     25 C          -6.1113   -1.3512   -0.8538 C.ar    1  UNL1        0.1421
     26 F          -6.8910   -2.3803   -0.4226 F       1  UNL1       -0.2039
     27 C          -5.1305   -0.8071   -0.0347 C.ar    1  UNL1        0.0841
     28 CL         -4.8994   -1.4535    1.5630 Cl      1  UNL1       -0.0801
     29 H          -4.6870    2.4371    0.5906 H       1  UNL1        0.0269
     30 H          -4.3398    1.6178    2.1498 H       1  UNL1        0.0269
     31 H          -3.0950    2.7035    1.4431 H       1  UNL1        0.0269
     32 H          -2.5247    1.2876   -0.2641 H       1  UNL1        0.0782
     33 H          -1.8284   -1.9932    2.7707 H       1  UNL1        0.0655
     34 H           0.4602   -2.8294    2.9354 H       1  UNL1        0.0640
     35 H           4.4990   -1.9191    0.8729 H       1  UNL1        0.0832
     36 H           3.9278    0.8659   -1.7090 H       1  UNL1        0.0357
     37 H           5.5963   -1.7614   -1.1993 H       1  UNL1        0.0279
     38 H           5.9601   -0.3825   -2.3804 H       1  UNL1        0.0279
     39 H           5.7518   -0.1531    0.6970 H       1  UNL1        0.0400
     40 H           6.4540    2.1705    1.5586 H       1  UNL1        0.1449
     41 H           7.5875    2.9576    0.3473 H       1  UNL1        0.1449
     42 H           1.6882    0.7311   -0.9302 H       1  UNL1        0.0627
     43 H          -0.5821    0.7126   -0.2572 H       1  UNL1        0.0661
     44 H          -5.7311    0.5346   -3.5741 H       1  UNL1        0.0633
     45 H          -7.1037   -1.3109   -2.7537 H       1  UNL1        0.0647
@<TRIPOS>BOND
     1     1     2    1
     2     2     3    1
     3     3     4    1
     4     4     5   ar
     5     5     6   ar
     6     6     7   ar
     7     7     8   ar
     8     8     9   ar
     9     9    10   ar
    10    10    11    1
    11    11    12    1
    12    12    13    1
    13    13    14    1
    14    14    15   am
    15    14    16    2
    16    10    17   ar
    17    17    18   ar
    18    18    19   ar
    19     2    20    1
    20    20    21   ar
    21    21    22    1
    22    21    23   ar
    23    23    24   ar
    24    24    25   ar
    25    25    26    1
    26    25    27   ar
    27    27    28    1
    28    19     4   ar
    29    27    20   ar
    30    18     7   ar
    31    13    11    1
    32     1    29    1
    33     1    30    1
    34     1    31    1
    35     2    32    1
    36     5    33    1
    37     6    34    1
    38     9    35    1
    39    11    36    1
    40    12    37    1
    41    12    38    1
    42    13    39    1
    43    15    40    1
    44    15    41    1
    45    17    42    1
    46    19    43    1
    47    23    44    1
    48    24    45    1
