@<TRIPOS>MOLECULE
*****
 46 49 0 0 0
SMALL
GASTEIGER

@<TRIPOS>ATOM
      1 C           5.9714    1.9583   -0.2394 C.3     1  UNL1       -0.0653
      2 C           6.4038    0.5399   -0.5141 C.3     1  UNL1       -0.0559
      3 C           5.8856   -0.3614    0.5978 C.3     1  UNL1       -0.0530
      4 C           4.3807   -0.3315    0.6935 C.3     1  UNL1       -0.0491
      5 C           3.7151   -0.7927   -0.5852 C.3     1  UNL1       -0.0276
      6 C           2.2447   -0.7225   -0.3775 C.ar    1  UNL1       -0.0454
      7 C           1.5386    0.4236   -0.6784 C.ar    1  UNL1       -0.0578
      8 C           0.1713    0.4851   -0.4836 C.ar    1  UNL1       -0.0503
      9 C          -0.4491   -0.6466    0.0225 C.ar    1  UNL1        0.0260
     10 C           0.2321   -1.8017    0.3305 C.ar    1  UNL1        0.0516
     11 C           1.6149   -1.8405    0.1252 C.ar    1  UNL1       -0.0345
     12 N          -0.4068   -2.8893    0.8237 N.ar    1  UNL1       -0.3203
     13 C          -1.7421   -2.8106    1.0072 C.ar    1  UNL1        0.2748
     14 O          -2.3176   -3.8285    1.4651 O.2     1  UNL1       -0.2656
     15 C          -2.4582   -1.6712    0.7103 C.ar    1  UNL1        0.1322
     16 N          -3.7688   -1.3221    0.7924 N.ar    1  UNL1       -0.3336
     17 C          -3.9686   -0.0754    0.3751 C.ar    1  UNL1        0.1408
     18 C          -5.2030    0.7089    0.2884 C.ar    1  UNL1        0.0356
     19 C          -5.1187    2.0135   -0.1951 C.ar    1  UNL1       -0.0497
     20 C          -6.2194    2.8281   -0.3140 C.ar    1  UNL1       -0.0610
     21 C          -7.4468    2.3435    0.0554 C.ar    1  UNL1       -0.0603
     22 C          -7.5865    1.0689    0.5369 C.ar    1  UNL1       -0.0427
     23 C          -6.4474    0.2809    0.6400 C.ar    1  UNL1        0.0516
     24 CL         -6.6948   -1.3383    1.2628 Cl      1  UNL1       -0.0828
     25 N          -2.7345    0.4017    0.0074 N.ar    1  UNL1       -0.2269
     26 C          -1.8279   -0.5603    0.2101 C.ar    1  UNL1        0.1039
     27 H           6.8358    2.6578   -0.4163 H       1  UNL1        0.0230
     28 H           5.1281    2.2514   -0.9025 H       1  UNL1        0.0230
     29 H           5.6953    2.0411    0.8158 H       1  UNL1        0.0230
     30 H           6.0354    0.1985   -1.4919 H       1  UNL1        0.0263
     31 H           7.5170    0.4403   -0.4876 H       1  UNL1        0.0263
     32 H           6.2164   -1.3994    0.4656 H       1  UNL1        0.0265
     33 H           6.2748   -0.0049    1.5738 H       1  UNL1        0.0265
     34 H           4.0850    0.7079    0.9393 H       1  UNL1        0.0268
     35 H           4.1003   -0.9915    1.5341 H       1  UNL1        0.0268
     36 H           4.0128   -1.8516   -0.7337 H       1  UNL1        0.0313
     37 H           4.0439   -0.2380   -1.4626 H       1  UNL1        0.0313
     38 H           2.0467    1.2999   -1.0746 H       1  UNL1        0.0620
     39 H          -0.4131    1.3641   -0.7075 H       1  UNL1        0.0625
     40 H           2.1338   -2.7489    0.3701 H       1  UNL1        0.0641
     41 H           0.1470   -3.7516    1.0465 H       1  UNL1        0.1690
     42 H          -4.4643   -2.0004    1.1471 H       1  UNL1        0.1675
     43 H          -4.1483    2.3937   -0.4861 H       1  UNL1        0.0625
     44 H          -6.1486    3.8440   -0.6913 H       1  UNL1        0.0618
     45 H          -8.3036    3.0203   -0.0525 H       1  UNL1        0.0618
     46 H          -8.5624    0.7076    0.8219 H       1  UNL1        0.0632
@<TRIPOS>BOND
     1     1     2    1
     2     2     3    1
     3     3     4    1
     4     4     5    1
     5     5     6    1
     6     6     7   ar
     7     7     8   ar
     8     8     9   ar
     9     9    10   ar
    10    10    11   ar
    11    10    12   ar
    12    12    13   ar
    13    13    14    2
    14    13    15   ar
    15    15    16   ar
    16    16    17   ar
    17    17    18    1
    18    18    19   ar
    19    19    20   ar
    20    20    21   ar
    21    21    22   ar
    22    22    23   ar
    23    23    24    1
    24    17    25   ar
    25    25    26   ar
    26    11     6   ar
    27    26    15   ar
    28    26     9   ar
    29    23    18   ar
    30     1    27    1
    31     1    28    1
    32     1    29    1
    33     2    30    1
    34     2    31    1
    35     3    32    1
    36     3    33    1
    37     4    34    1
    38     4    35    1
    39     5    36    1
    40     5    37    1
    41     7    38    1
    42     8    39    1
    43    11    40    1
    44    12    41    1
    45    16    42    1
    46    19    43    1
    47    20    44    1
    48    21    45    1
    49    22    46    1
