@<TRIPOS>MOLECULE
*****
 68 71 0 0 0
SMALL
GASTEIGER

@<TRIPOS>ATOM
      1 N           5.7698    1.4562   -0.2281 N.pl3   1  UNL1       -0.2889
      2 C           6.5213    0.6586    0.6699 C.cat   1  UNL1        0.3821
      3 N           7.9165    0.4627    0.5052 N.pl3   1  UNL1       -0.2889
      4 N           5.9655    0.0739    1.6793 N.pl3   1  UNL1       -0.0734
      5 C           4.5702    0.1828    1.9668 C.ar    1  UNL1        0.1420
      6 C           3.9202    1.4006    1.9862 C.ar    1  UNL1       -0.0194
      7 C           2.5709    1.4865    2.2655 C.ar    1  UNL1       -0.0551
      8 C           1.8135    0.3464    2.5385 C.ar    1  UNL1       -0.0450
      9 C           0.3952    0.5238    2.8259 C.3     1  UNL1        0.0027
     10 C          -0.5109    0.4926    1.6326 C.3     1  UNL1        0.1560
     11 N          -1.8719    0.6707    1.9819 N.3     1  UNL1       -0.1770
     12 S          -2.6812    1.9968    1.4051 S.O2    1  UNL1        0.0343
     13 O          -4.1009    1.9895    1.9025 O.2     1  UNL1       -0.1579
     14 O          -2.0747    3.2990    1.9001 O.2     1  UNL1       -0.1579
     15 C          -2.7836    2.0580   -0.3882 C.3     1  UNL1        0.1067
     16 C          -3.5255    3.2808   -0.8159 C.ar    1  UNL1       -0.0250
     17 C          -4.8938    3.3038   -0.9918 C.ar    1  UNL1       -0.0570
     18 C          -5.5650    4.4238   -1.3827 C.ar    1  UNL1       -0.0615
     19 C          -4.8279    5.5736   -1.6074 C.ar    1  UNL1       -0.0617
     20 C          -3.4721    5.5872   -1.4431 C.ar    1  UNL1       -0.0615
     21 C          -2.7956    4.4491   -1.0465 C.ar    1  UNL1       -0.0570
     22 P          -0.3060   -1.1029    0.7949 P.3     1  UNL1        0.4522
     23 O          -0.5696   -2.2517    1.7285 O.2     1  UNL1       -0.2306
     24 O          -1.4656   -1.1721   -0.4615 O.3     1  UNL1       -0.4146
     25 C          -2.4178   -2.1622   -0.5817 C.ar    1  UNL1        0.1309
     26 C          -2.7269   -2.6747   -1.8267 C.ar    1  UNL1       -0.0194
     27 C          -3.6754   -3.6693   -1.9997 C.ar    1  UNL1       -0.0583
     28 C          -4.3549   -4.1889   -0.9053 C.ar    1  UNL1       -0.0615
     29 C          -4.0471   -3.6761    0.3490 C.ar    1  UNL1       -0.0583
     30 C          -3.0990   -2.6869    0.4905 C.ar    1  UNL1       -0.0194
     31 O           1.2298   -1.1607    0.0782 O.3     1  UNL1       -0.4146
     32 C           1.5998   -2.0833   -0.8929 C.ar    1  UNL1        0.1309
     33 C           0.9535   -2.1293   -2.1104 C.ar    1  UNL1       -0.0194
     34 C           1.3060   -3.0376   -3.0870 C.ar    1  UNL1       -0.0583
     35 C           2.3284   -3.9461   -2.8855 C.ar    1  UNL1       -0.0615
     36 C           2.9721   -3.8939   -1.6616 C.ar    1  UNL1       -0.0583
     37 C           2.6206   -2.9863   -0.6845 C.ar    1  UNL1       -0.0194
     38 C           2.4921   -0.8520    2.5112 C.ar    1  UNL1       -0.0551
     39 C           3.8416   -0.9381    2.2319 C.ar    1  UNL1       -0.0194
     40 H           5.0946    0.9934   -0.8704 H       1  UNL1        0.2547
     41 H           5.8404    2.4930   -0.2985 H       1  UNL1        0.2547
     42 H           8.3218   -0.4769    0.6815 H       1  UNL1        0.2547
     43 H           8.5486    1.2333    0.2122 H       1  UNL1        0.2547
     44 H           4.5209    2.2846    1.7715 H       1  UNL1        0.0653
     45 H           2.0970    2.4589    2.2716 H       1  UNL1        0.0621
     46 H           0.2523    1.5036    3.3266 H       1  UNL1        0.0335
     47 H           0.0996   -0.2439    3.5856 H       1  UNL1        0.0335
     48 H          -0.2011    1.3350    0.9800 H       1  UNL1        0.0629
     49 H          -2.3815   -0.1284    2.3341 H       1  UNL1        0.1487
     50 H          -1.7786    2.1197   -0.8256 H       1  UNL1        0.0565
     51 H          -3.3727    1.1926   -0.7405 H       1  UNL1        0.0565
     52 H          -5.4333    2.3747   -0.8032 H       1  UNL1        0.0621
     53 H          -6.6237    4.3874   -1.5041 H       1  UNL1        0.0618
     54 H          -5.3798    6.4662   -1.9215 H       1  UNL1        0.0618
     55 H          -2.9253    6.5209   -1.6321 H       1  UNL1        0.0618
     56 H          -1.7247    4.4606   -0.9169 H       1  UNL1        0.0621
     57 H          -2.2328   -2.3143   -2.7323 H       1  UNL1        0.0654
     58 H          -3.8881   -4.0447   -2.9997 H       1  UNL1        0.0619
     59 H          -5.0922   -4.9619   -1.0375 H       1  UNL1        0.0618
     60 H          -4.5905   -4.0977    1.1850 H       1  UNL1        0.0619
     61 H          -2.8937   -2.3204    1.4816 H       1  UNL1        0.0654
     62 H           0.1508   -1.4129   -2.2637 H       1  UNL1        0.0654
     63 H           0.7910   -3.0707   -4.0512 H       1  UNL1        0.0619
     64 H           2.5982   -4.6556   -3.6586 H       1  UNL1        0.0618
     65 H           3.7778   -4.6071   -1.4979 H       1  UNL1        0.0619
     66 H           3.1357   -2.9558    0.2755 H       1  UNL1        0.0654
     67 H           1.9424   -1.7422    2.7161 H       1  UNL1        0.0621
     68 H           4.3251   -1.8954    2.2223 H       1  UNL1        0.0653
@<TRIPOS>BOND
     1     1     2    1
     2     2     3    1
     3     2     4    2
     4     4     5    1
     5     5     6   ar
     6     6     7   ar
     7     7     8   ar
     8     8     9    1
     9     9    10    1
    10    10    11    1
    11    11    12    1
    12    12    13    2
    13    12    14    2
    14    12    15    1
    15    15    16    1
    16    16    17   ar
    17    17    18   ar
    18    18    19   ar
    19    19    20   ar
    20    20    21   ar
    21    10    22    1
    22    22    23    2
    23    22    24    1
    24    24    25    1
    25    25    26   ar
    26    26    27   ar
    27    27    28   ar
    28    28    29   ar
    29    29    30   ar
    30    22    31    1
    31    31    32    1
    32    32    33   ar
    33    33    34   ar
    34    34    35   ar
    35    35    36   ar
    36    36    37   ar
    37     8    38   ar
    38    38    39   ar
    39    39     5   ar
    40    21    16   ar
    41    30    25   ar
    42    37    32   ar
    43     1    40    1
    44     1    41    1
    45     3    42    1
    46     3    43    1
    47     6    44    1
    48     7    45    1
    49     9    46    1
    50     9    47    1
    51    10    48    1
    52    11    49    1
    53    15    50    1
    54    15    51    1
    55    17    52    1
    56    18    53    1
    57    19    54    1
    58    20    55    1
    59    21    56    1
    60    26    57    1
    61    27    58    1
    62    28    59    1
    63    29    60    1
    64    30    61    1
    65    33    62    1
    66    34    63    1
    67    35    64    1
    68    36    65    1
    69    37    66    1
    70    38    67    1
    71    39    68    1
