@<TRIPOS>MOLECULE
*****
 35 37 0 0 0
SMALL
GASTEIGER

@<TRIPOS>ATOM
      1 C           7.6560    0.8113    0.7374 C.3     1  UNL1        0.0833
      2 O           6.4275    0.4999    1.4136 O.3     1  UNL1       -0.4534
      3 C           5.2692    0.5404    0.6479 C.2     1  UNL1        0.4065
      4 O           5.2387    0.8313   -0.5964 O.2     1  UNL1       -0.2260
      5 N           4.0408    0.2232    1.3316 N.am    1  UNL1       -0.2212
      6 C           2.8231    0.2007    0.5919 C.ar    1  UNL1        0.2029
      7 N           2.6226    0.4180   -0.7027 N.ar    1  UNL1       -0.2142
      8 C           1.3417    0.2644   -1.0254 C.ar    1  UNL1        0.0908
      9 C           0.6394   -0.0783    0.1422 C.ar    1  UNL1        0.0681
     10 N           1.6125   -0.0972    1.0844 N.ar    1  UNL1       -0.3257
     11 C          -0.7155   -0.3119    0.0290 C.ar    1  UNL1       -0.0254
     12 C          -1.4005   -0.2205   -1.1956 C.ar    1  UNL1        0.0243
     13 C          -0.6828    0.1171   -2.3255 C.ar    1  UNL1       -0.0488
     14 C           0.6660    0.3510   -2.2087 C.ar    1  UNL1       -0.0335
     15 C          -2.8167   -0.5085   -1.1728 C.2     1  UNL1        0.1932
     16 O          -3.1234   -0.9623   -2.3332 O.2     1  UNL1       -0.2867
     17 C          -3.9496   -0.4548   -0.3129 C.ar    1  UNL1        0.0223
     18 C          -4.0530    0.4891    0.7281 C.ar    1  UNL1       -0.0509
     19 C          -5.1166    0.5503    1.5808 C.ar    1  UNL1       -0.0611
     20 C          -6.1297   -0.3917    1.3694 C.ar    1  UNL1       -0.0617
     21 C          -6.0742   -1.3432    0.3573 C.ar    1  UNL1       -0.0611
     22 C          -4.9828   -1.3916   -0.5019 C.ar    1  UNL1       -0.0509
     23 H           8.4164    0.0749    1.0210 H       1  UNL1        0.0661
     24 H           7.9885    1.8304    1.0114 H       1  UNL1        0.0661
     25 H           7.5191    0.8245   -0.3732 H       1  UNL1        0.0661
     26 H           4.0710    0.0001    2.3252 H       1  UNL1        0.1610
     27 H           1.3969   -0.3225    2.0798 H       1  UNL1        0.1686
     28 H          -1.1764   -0.5626    0.9865 H       1  UNL1        0.0646
     29 H          -1.2551    0.1823   -3.2648 H       1  UNL1        0.0625
     30 H           1.1772    0.6074   -3.1331 H       1  UNL1        0.0640
     31 H          -3.2644    1.2147    0.8764 H       1  UNL1        0.0625
     32 H          -5.2415    1.2743    2.3927 H       1  UNL1        0.0618
     33 H          -7.0363   -0.4500    1.9825 H       1  UNL1        0.0618
     34 H          -6.8870   -2.0610    0.2235 H       1  UNL1        0.0618
     35 H          -5.0011   -2.1492   -1.2504 H       1  UNL1        0.0625
@<TRIPOS>BOND
     1     1     2    1
     2     2     3    1
     3     3     4    2
     4     3     5   am
     5     5     6    1
     6     6     7   ar
     7     7     8   ar
     8     8     9   ar
     9     9    10   ar
    10     9    11   ar
    11    11    12   ar
    12    12    13   ar
    13    13    14   ar
    14    12    15    1
    15    15    16    2
    16    15    17    1
    17    17    18   ar
    18    18    19   ar
    19    19    20   ar
    20    20    21   ar
    21    21    22   ar
    22    10     6   ar
    23    22    17   ar
    24    14     8   ar
    25     1    23    1
    26     1    24    1
    27     1    25    1
    28     5    26    1
    29    10    27    1
    30    11    28    1
    31    13    29    1
    32    14    30    1
    33    18    31    1
    34    19    32    1
    35    20    33    1
    36    21    34    1
    37    22    35    1
