@<TRIPOS>MOLECULE
*****
 32 34 0 0 0
SMALL
GASTEIGER

@<TRIPOS>ATOM
      1 CL         -5.8776    1.2717   -2.4340 Cl      1  UNL1       -0.0835
      2 C          -4.9760    0.8798   -0.9867 C.ar    1  UNL1        0.0413
      3 C          -5.6977    0.5132    0.1374 C.ar    1  UNL1       -0.0434
      4 C          -5.0214    0.1943    1.3068 C.ar    1  UNL1       -0.0600
      5 C          -3.6500    0.2266    1.3999 C.ar    1  UNL1       -0.0553
      6 C          -2.9507    0.5952    0.2657 C.ar    1  UNL1       -0.0090
      7 C          -1.4701    0.6289    0.3703 C.3     1  UNL1        0.1147
      8 O          -0.9215   -0.6133    0.0316 O.3     1  UNL1       -0.4873
      9 C           0.4392   -0.8286    0.0536 C.ar    1  UNL1        0.1247
     10 C           0.9248   -2.0665   -0.2878 C.ar    1  UNL1       -0.0162
     11 C           2.3073   -2.2655   -0.2596 C.ar    1  UNL1       -0.0128
     12 C           3.1714   -1.2539    0.0999 C.ar    1  UNL1        0.1623
     13 C           2.6624   -0.0198    0.4388 C.ar    1  UNL1        0.1655
     14 C           1.2821    0.1931    0.4148 C.ar    1  UNL1        0.0254
     15 O           3.5464    0.9736    0.7944 O.3     1  UNL1       -0.4848
     16 C           4.8055    1.0279    0.2005 C.3     1  UNL1        0.1237
     17 C           5.3495   -0.2808   -0.2662 C.3     1  UNL1        0.1237
     18 O           4.5491   -1.3975    0.1444 O.3     1  UNL1       -0.4849
     19 C          -3.6112    0.9184   -0.9156 C.ar    1  UNL1       -0.0370
     20 H          -6.7826    0.4642    0.1425 H       1  UNL1        0.0632
     21 H          -5.5585   -0.0987    2.2110 H       1  UNL1        0.0618
     22 H          -3.1520   -0.0272    2.3246 H       1  UNL1        0.0621
     23 H          -1.0359    1.4299   -0.2820 H       1  UNL1        0.0748
     24 H          -1.1437    0.9056    1.4101 H       1  UNL1        0.0748
     25 H           0.3038   -2.8999   -0.5782 H       1  UNL1        0.0655
     26 H           2.6818   -3.2413   -0.5293 H       1  UNL1        0.0656
     27 H           0.8723    1.1614    0.6800 H       1  UNL1        0.0692
     28 H           5.5668    1.4694    0.9116 H       1  UNL1        0.0731
     29 H           4.7258    1.7096   -0.6843 H       1  UNL1        0.0731
     30 H           5.3287   -0.3054   -1.3828 H       1  UNL1        0.0731
     31 H           6.3752   -0.4645    0.1188 H       1  UNL1        0.0731
     32 H          -3.0432    1.2003   -1.7778 H       1  UNL1        0.0636
@<TRIPOS>BOND
     1     1     2    1
     2     2     3   ar
     3     3     4   ar
     4     4     5   ar
     5     5     6   ar
     6     6     7    1
     7     7     8    1
     8     8     9    1
     9     9    10   ar
    10    10    11   ar
    11    11    12   ar
    12    12    13   ar
    13    13    14   ar
    14    13    15    1
    15    15    16    1
    16    16    17    1
    17    17    18    1
    18     6    19   ar
    19    19     2   ar
    20    14     9   ar
    21    18    12    1
    22     3    20    1
    23     4    21    1
    24     5    22    1
    25     7    23    1
    26     7    24    1
    27    10    25    1
    28    11    26    1
    29    14    27    1
    30    16    28    1
    31    16    29    1
    32    17    30    1
    33    17    31    1
    34    19    32    1
