
     RDKit          3D

 32 34  0  0  0  0  0  0  0  0999 V2000
   -5.8776    1.2717   -2.4340 Cl  0  0  0  0  0  0  0  0  0  0  0  0
   -4.9760    0.8798   -0.9867 C   0  0  0  0  0  0  0  0  0  0  0  0
   -5.6977    0.5132    0.1374 C   0  0  0  0  0  0  0  0  0  0  0  0
   -5.0214    0.1943    1.3068 C   0  0  0  0  0  0  0  0  0  0  0  0
   -3.6500    0.2266    1.3999 C   0  0  0  0  0  0  0  0  0  0  0  0
   -2.9507    0.5952    0.2657 C   0  0  0  0  0  0  0  0  0  0  0  0
   -1.4701    0.6289    0.3703 C   0  0  0  0  0  0  0  0  0  0  0  0
   -0.9215   -0.6133    0.0316 O   0  0  0  0  0  0  0  0  0  0  0  0
    0.4392   -0.8286    0.0536 C   0  0  0  0  0  0  0  0  0  0  0  0
    0.9248   -2.0665   -0.2878 C   0  0  0  0  0  0  0  0  0  0  0  0
    2.3073   -2.2655   -0.2596 C   0  0  0  0  0  0  0  0  0  0  0  0
    3.1714   -1.2539    0.0999 C   0  0  0  0  0  0  0  0  0  0  0  0
    2.6624   -0.0198    0.4388 C   0  0  0  0  0  0  0  0  0  0  0  0
    1.2821    0.1931    0.4148 C   0  0  0  0  0  0  0  0  0  0  0  0
    3.5464    0.9736    0.7944 O   0  0  0  0  0  0  0  0  0  0  0  0
    4.8055    1.0279    0.2005 C   0  0  0  0  0  0  0  0  0  0  0  0
    5.3495   -0.2808   -0.2662 C   0  0  0  0  0  0  0  0  0  0  0  0
    4.5491   -1.3975    0.1444 O   0  0  0  0  0  0  0  0  0  0  0  0
   -3.6112    0.9184   -0.9156 C   0  0  0  0  0  0  0  0  0  0  0  0
   -6.7826    0.4642    0.1425 H   0  0  0  0  0  0  0  0  0  0  0  0
   -5.5585   -0.0987    2.2110 H   0  0  0  0  0  0  0  0  0  0  0  0
   -3.1520   -0.0272    2.3246 H   0  0  0  0  0  0  0  0  0  0  0  0
   -1.0359    1.4299   -0.2820 H   0  0  0  0  0  0  0  0  0  0  0  0
   -1.1437    0.9056    1.4101 H   0  0  0  0  0  0  0  0  0  0  0  0
    0.3038   -2.8999   -0.5782 H   0  0  0  0  0  0  0  0  0  0  0  0
    2.6818   -3.2413   -0.5293 H   0  0  0  0  0  0  0  0  0  0  0  0
    0.8723    1.1614    0.6800 H   0  0  0  0  0  0  0  0  0  0  0  0
    5.5668    1.4694    0.9116 H   0  0  0  0  0  0  0  0  0  0  0  0
    4.7258    1.7096   -0.6843 H   0  0  0  0  0  0  0  0  0  0  0  0
    5.3287   -0.3054   -1.3828 H   0  0  0  0  0  0  0  0  0  0  0  0
    6.3752   -0.4645    0.1188 H   0  0  0  0  0  0  0  0  0  0  0  0
   -3.0432    1.2003   -1.7778 H   0  0  0  0  0  0  0  0  0  0  0  0
  1  2  1  0
  2  3  2  0
  3  4  1  0
  4  5  2  0
  5  6  1  0
  6  7  1  0
  7  8  1  0
  8  9  1  0
  9 10  2  0
 10 11  1  0
 11 12  2  0
 12 13  1  0
 13 14  2  0
 13 15  1  0
 15 16  1  0
 16 17  1  0
 17 18  1  0
  6 19  2  0
 19  2  1  0
 14  9  1  0
 18 12  1  0
  3 20  1  0
  4 21  1  0
  5 22  1  0
  7 23  1  0
  7 24  1  0
 10 25  1  0
 11 26  1  0
 14 27  1  0
 16 28  1  0
 16 29  1  0
 17 30  1  0
 17 31  1  0
 19 32  1  0
M  END
$$$$
