@<TRIPOS>MOLECULE
*****
 38 41 0 0 0
SMALL
GASTEIGER

@<TRIPOS>ATOM
      1 F          -1.1405   -1.8588    1.6147 F       1  UNL1       -0.2048
      2 C          -1.9540   -1.8736    0.5449 C.ar    1  UNL1        0.1327
      3 C          -2.3799   -3.0950    0.0611 C.ar    1  UNL1       -0.0244
      4 C          -3.2100   -3.1707   -1.0270 C.ar    1  UNL1       -0.0406
      5 C          -3.6061   -1.9800   -1.6231 C.ar    1  UNL1        0.0418
      6 CL         -4.6606   -2.0782   -3.0054 Cl      1  UNL1       -0.0835
      7 C          -3.1727   -0.7632   -1.1291 C.ar    1  UNL1       -0.0314
      8 C          -2.3367   -0.6794   -0.0340 C.ar    1  UNL1        0.0390
      9 C          -1.8716    0.5919    0.4940 C.ar    1  UNL1        0.0995
     10 N          -2.5900    1.5962    1.0224 N.ar    1  UNL1       -0.2350
     11 C          -1.7459    2.5915    1.3852 C.ar    1  UNL1        0.0972
     12 N          -0.4764    2.1940    1.0739 N.ar    1  UNL1       -0.3241
     13 C           0.6754    3.0206    1.3244 C.3     1  UNL1        0.0852
     14 C           0.9043    3.8888    0.0898 C.3     1  UNL1        0.2569
     15 F           1.9947    4.7188    0.2409 F       1  UNL1       -0.2073
     16 F          -0.2170    4.7160   -0.0034 F       1  UNL1       -0.2073
     17 C          -0.5505    0.9712    0.5288 C.ar    1  UNL1        0.0781
     18 C           0.5830    0.1957    0.0633 C.ar    1  UNL1        0.0172
     19 C           0.6793   -0.1467   -1.2636 C.ar    1  UNL1       -0.0477
     20 C           1.7398   -0.8833   -1.7366 C.ar    1  UNL1       -0.0182
     21 C           2.7111   -1.2639   -0.8035 C.ar    1  UNL1        0.1375
     22 N           3.8519   -1.9818   -0.9627 N.ar    1  UNL1       -0.2361
     23 C           4.4687   -2.0972    0.2202 C.ar    1  UNL1        0.0464
     24 C           3.6973   -1.4371    1.1409 C.ar    1  UNL1        0.0293
     25 N           2.6067   -0.9239    0.4877 N.ar    1  UNL1       -0.3060
     26 C           1.5709   -0.2122    0.9155 C.ar    1  UNL1        0.0204
     27 H          -2.0734   -4.0453    0.5245 H       1  UNL1        0.0647
     28 H          -3.5371   -4.1427   -1.3967 H       1  UNL1        0.0633
     29 H          -3.4774    0.1764   -1.5890 H       1  UNL1        0.0639
     30 H          -2.0867    3.4935    1.8286 H       1  UNL1        0.1029
     31 H           0.4594    3.6896    2.1670 H       1  UNL1        0.0548
     32 H           1.5857    2.4411    1.5799 H       1  UNL1        0.0548
     33 H           0.9213    3.2921   -0.8258 H       1  UNL1        0.1037
     34 H          -0.0755    0.1461   -1.9979 H       1  UNL1        0.0626
     35 H           1.8450   -1.1701   -2.7776 H       1  UNL1        0.0654
     36 H           5.4109   -2.6146    0.4405 H       1  UNL1        0.0845
     37 H           3.8987   -1.3309    2.1974 H       1  UNL1        0.0829
     38 H           1.5583    0.0249    1.9849 H       1  UNL1        0.0820
@<TRIPOS>BOND
     1     1     2    1
     2     2     3   ar
     3     3     4   ar
     4     4     5   ar
     5     5     6    1
     6     5     7   ar
     7     7     8   ar
     8     8     9    1
     9     9    10   ar
    10    10    11   ar
    11    11    12   ar
    12    12    13    1
    13    13    14    1
    14    14    15    1
    15    14    16    1
    16    12    17   ar
    17    17    18    1
    18    18    19   ar
    19    19    20   ar
    20    20    21   ar
    21    21    22   ar
    22    22    23   ar
    23    23    24   ar
    24    24    25   ar
    25    25    26   ar
    26     8     2   ar
    27    17     9   ar
    28    26    18   ar
    29    25    21   ar
    30     3    27    1
    31     4    28    1
    32     7    29    1
    33    11    30    1
    34    13    31    1
    35    13    32    1
    36    14    33    1
    37    19    34    1
    38    20    35    1
    39    23    36    1
    40    24    37    1
    41    26    38    1
