
     RDKit          3D

 38 41  0  0  0  0  0  0  0  0999 V2000
   -1.1405   -1.8588    1.6147 F   0  0  0  0  0  0  0  0  0  0  0  0
   -1.9540   -1.8736    0.5449 C   0  0  0  0  0  0  0  0  0  0  0  0
   -2.3799   -3.0950    0.0611 C   0  0  0  0  0  0  0  0  0  0  0  0
   -3.2100   -3.1707   -1.0270 C   0  0  0  0  0  0  0  0  0  0  0  0
   -3.6061   -1.9800   -1.6231 C   0  0  0  0  0  0  0  0  0  0  0  0
   -4.6606   -2.0782   -3.0054 Cl  0  0  0  0  0  0  0  0  0  0  0  0
   -3.1727   -0.7632   -1.1291 C   0  0  0  0  0  0  0  0  0  0  0  0
   -2.3367   -0.6794   -0.0340 C   0  0  0  0  0  0  0  0  0  0  0  0
   -1.8716    0.5919    0.4940 C   0  0  0  0  0  0  0  0  0  0  0  0
   -2.5900    1.5962    1.0224 N   0  0  0  0  0  0  0  0  0  0  0  0
   -1.7459    2.5915    1.3852 C   0  0  0  0  0  0  0  0  0  0  0  0
   -0.4764    2.1940    1.0739 N   0  0  0  0  0  0  0  0  0  0  0  0
    0.6754    3.0206    1.3244 C   0  0  0  0  0  0  0  0  0  0  0  0
    0.9043    3.8888    0.0898 C   0  0  0  0  0  0  0  0  0  0  0  0
    1.9947    4.7188    0.2409 F   0  0  0  0  0  0  0  0  0  0  0  0
   -0.2170    4.7160   -0.0034 F   0  0  0  0  0  0  0  0  0  0  0  0
   -0.5505    0.9712    0.5288 C   0  0  0  0  0  0  0  0  0  0  0  0
    0.5830    0.1957    0.0633 C   0  0  0  0  0  0  0  0  0  0  0  0
    0.6793   -0.1467   -1.2636 C   0  0  0  0  0  0  0  0  0  0  0  0
    1.7398   -0.8833   -1.7366 C   0  0  0  0  0  0  0  0  0  0  0  0
    2.7111   -1.2639   -0.8035 C   0  0  0  0  0  0  0  0  0  0  0  0
    3.8519   -1.9818   -0.9627 N   0  0  0  0  0  0  0  0  0  0  0  0
    4.4687   -2.0972    0.2202 C   0  0  0  0  0  0  0  0  0  0  0  0
    3.6973   -1.4371    1.1409 C   0  0  0  0  0  0  0  0  0  0  0  0
    2.6067   -0.9239    0.4877 N   0  0  0  0  0  0  0  0  0  0  0  0
    1.5709   -0.2122    0.9155 C   0  0  0  0  0  0  0  0  0  0  0  0
   -2.0734   -4.0453    0.5245 H   0  0  0  0  0  0  0  0  0  0  0  0
   -3.5371   -4.1427   -1.3967 H   0  0  0  0  0  0  0  0  0  0  0  0
   -3.4774    0.1764   -1.5890 H   0  0  0  0  0  0  0  0  0  0  0  0
   -2.0867    3.4935    1.8286 H   0  0  0  0  0  0  0  0  0  0  0  0
    0.4594    3.6896    2.1670 H   0  0  0  0  0  0  0  0  0  0  0  0
    1.5857    2.4411    1.5799 H   0  0  0  0  0  0  0  0  0  0  0  0
    0.9213    3.2921   -0.8258 H   0  0  0  0  0  0  0  0  0  0  0  0
   -0.0755    0.1461   -1.9979 H   0  0  0  0  0  0  0  0  0  0  0  0
    1.8450   -1.1701   -2.7776 H   0  0  0  0  0  0  0  0  0  0  0  0
    5.4109   -2.6146    0.4405 H   0  0  0  0  0  0  0  0  0  0  0  0
    3.8987   -1.3309    2.1974 H   0  0  0  0  0  0  0  0  0  0  0  0
    1.5583    0.0249    1.9849 H   0  0  0  0  0  0  0  0  0  0  0  0
  1  2  1  0
  2  3  2  0
  3  4  1  0
  4  5  2  0
  5  6  1  0
  5  7  1  0
  7  8  2  0
  8  9  1  0
  9 10  1  0
 10 11  2  0
 11 12  1  0
 12 13  1  0
 13 14  1  0
 14 15  1  0
 14 16  1  0
 12 17  1  0
 17 18  1  0
 18 19  1  0
 19 20  2  0
 20 21  1  0
 21 22  2  0
 22 23  1  0
 23 24  2  0
 24 25  1  0
 25 26  1  0
  8  2  1  0
 17  9  2  0
 26 18  2  0
 25 21  1  0
  3 27  1  0
  4 28  1  0
  7 29  1  0
 11 30  1  0
 13 31  1  0
 13 32  1  0
 14 33  1  0
 19 34  1  0
 20 35  1  0
 23 36  1  0
 24 37  1  0
 26 38  1  0
M  END
$$$$
