@<TRIPOS>MOLECULE
*****
 58 61 0 0 0
SMALL
GASTEIGER

@<TRIPOS>ATOM
      1 C           6.0519   -0.4265    1.9815 C.3     1  UNL1       -0.0652
      2 C           6.2507   -0.7352    0.5131 C.3     1  UNL1       -0.0548
      3 C           6.1269    0.4543   -0.3714 C.3     1  UNL1       -0.0405
      4 C           4.8356    1.1741   -0.3803 C.3     1  UNL1       -0.0011
      5 N           3.6748    0.4932   -0.7928 N.3     1  UNL1       -0.3023
      6 C           3.1444   -0.5399    0.0084 C.3     1  UNL1       -0.0008
      7 C           1.6139   -0.4531   -0.1126 C.3     1  UNL1       -0.0359
      8 C           1.2254   -0.1310   -1.5285 C.3     1  UNL1       -0.0231
      9 C           0.0410   -0.9730   -1.9428 C.3     1  UNL1        0.0148
     10 N          -1.1138   -0.7690   -1.1277 N.am    1  UNL1       -0.3109
     11 C          -1.8036    0.4592   -0.9440 C.2     1  UNL1        0.2498
     12 O          -1.3367    1.4497   -1.5687 O.2     1  UNL1       -0.2700
     13 C          -2.9735    0.5718   -0.0910 C.ar    1  UNL1        0.1054
     14 C          -3.6187   -0.4151    0.6637 C.ar    1  UNL1        0.2087
     15 O          -3.3703   -1.7590    0.8372 O.3     1  UNL1       -0.4769
     16 C          -4.4243   -2.7004    0.8465 C.3     1  UNL1        0.0928
     17 C          -5.7130   -2.0671    1.2922 C.3     1  UNL1       -0.0004
     18 C          -5.3776   -0.8678    2.1199 C.3     1  UNL1        0.0296
     19 N          -4.6712    0.0974    1.3233 N.ar    1  UNL1       -0.3110
     20 C          -4.7121    1.4002    1.0034 C.ar    1  UNL1        0.0528
     21 C          -5.6335    2.3411    1.4480 C.ar    1  UNL1       -0.0375
     22 C          -5.5366    3.6554    1.0203 C.ar    1  UNL1       -0.0598
     23 C          -4.5154    3.9661    0.1628 C.ar    1  UNL1       -0.0611
     24 C          -3.5852    3.0514   -0.2956 C.ar    1  UNL1       -0.0517
     25 C          -3.6759    1.7385    0.1270 C.ar    1  UNL1        0.0158
     26 C           2.3546   -0.5379   -2.4841 C.3     1  UNL1       -0.0359
     27 C           3.5963    0.2465   -2.2146 C.3     1  UNL1       -0.0008
     28 H           5.7748    0.6360    2.1427 H       1  UNL1        0.0230
     29 H           5.2490   -1.0575    2.4127 H       1  UNL1        0.0230
     30 H           6.9606   -0.5915    2.5878 H       1  UNL1        0.0230
     31 H           5.6785   -1.6197    0.2390 H       1  UNL1        0.0263
     32 H           7.3339   -1.0619    0.4276 H       1  UNL1        0.0263
     33 H           6.9151    1.1818   -0.0072 H       1  UNL1        0.0277
     34 H           6.4814    0.1741   -1.3855 H       1  UNL1        0.0277
     35 H           4.9529    2.0564   -1.0813 H       1  UNL1        0.0426
     36 H           4.6273    1.6535    0.6025 H       1  UNL1        0.0426
     37 H           3.3786   -1.5667   -0.3456 H       1  UNL1        0.0427
     38 H           3.3506   -0.3571    1.0666 H       1  UNL1        0.0427
     39 H           1.3111    0.3725    0.5693 H       1  UNL1        0.0281
     40 H           1.2155   -1.4146    0.2556 H       1  UNL1        0.0281
     41 H           1.0750    0.9544   -1.6965 H       1  UNL1        0.0317
     42 H           0.3525   -2.0337   -1.8800 H       1  UNL1        0.0465
     43 H          -0.1598   -0.7527   -3.0200 H       1  UNL1        0.0465
     44 H          -1.5372   -1.5805   -0.5856 H       1  UNL1        0.1490
     45 H          -4.5270   -3.1205   -0.1785 H       1  UNL1        0.0697
     46 H          -4.1279   -3.5090    1.5476 H       1  UNL1        0.0697
     47 H          -6.3287   -2.8042    1.8471 H       1  UNL1        0.0315
     48 H          -6.3060   -1.7764    0.4112 H       1  UNL1        0.0315
     49 H          -6.3096   -0.4408    2.5607 H       1  UNL1        0.0494
     50 H          -4.7499   -1.2351    2.9780 H       1  UNL1        0.0494
     51 H          -6.4368    2.0648    2.1311 H       1  UNL1        0.0638
     52 H          -6.2511    4.4044    1.3596 H       1  UNL1        0.0618
     53 H          -4.4445    4.9998   -0.1700 H       1  UNL1        0.0618
     54 H          -2.7987    3.3221   -0.9654 H       1  UNL1        0.0624
     55 H           2.4995   -1.6234   -2.5034 H       1  UNL1        0.0281
     56 H           1.9926   -0.2478   -3.4997 H       1  UNL1        0.0281
     57 H           4.4573   -0.3420   -2.5918 H       1  UNL1        0.0427
     58 H           3.5169    1.2277   -2.7216 H       1  UNL1        0.0427
@<TRIPOS>BOND
     1     1     2    1
     2     2     3    1
     3     3     4    1
     4     4     5    1
     5     5     6    1
     6     6     7    1
     7     7     8    1
     8     8     9    1
     9     9    10    1
    10    10    11   am
    11    11    12    2
    12    11    13    1
    13    13    14   ar
    14    14    15    1
    15    15    16    1
    16    16    17    1
    17    17    18    1
    18    18    19    1
    19    19    20   ar
    20    20    21   ar
    21    21    22   ar
    22    22    23   ar
    23    23    24   ar
    24    24    25   ar
    25     8    26    1
    26    26    27    1
    27    27     5    1
    28    25    13   ar
    29    19    14   ar
    30    25    20   ar
    31     1    28    1
    32     1    29    1
    33     1    30    1
    34     2    31    1
    35     2    32    1
    36     3    33    1
    37     3    34    1
    38     4    35    1
    39     4    36    1
    40     6    37    1
    41     6    38    1
    42     7    39    1
    43     7    40    1
    44     8    41    1
    45     9    42    1
    46     9    43    1
    47    10    44    1
    48    16    45    1
    49    16    46    1
    50    17    47    1
    51    17    48    1
    52    18    49    1
    53    18    50    1
    54    21    51    1
    55    22    52    1
    56    23    53    1
    57    24    54    1
    58    26    55    1
    59    26    56    1
    60    27    57    1
    61    27    58    1
