
     RDKit          3D

 60 64  0  0  0  0  0  0  0  0999 V2000
   -4.1387   -1.3968   -2.5158 C   0  0  0  0  0  0  0  0  0  0  0  0
   -4.5029   -0.2905   -1.6809 N   0  0  0  0  0  0  0  0  0  0  0  0
   -4.8779   -0.5993   -0.3457 C   0  0  0  0  0  0  0  0  0  0  0  0
   -6.1387   -0.0038    0.1706 C   0  0  2  0  0  0  0  0  0  0  0  0
   -6.0170    1.4820    0.3152 C   0  0  0  0  0  0  0  0  0  0  0  0
   -6.7912    1.9561    1.3875 O   0  0  0  0  0  0  0  0  0  0  0  0
   -7.9600    1.1947    1.4636 C   0  0  0  0  0  0  0  0  0  0  0  0
   -7.6281   -0.2492    1.8588 C   0  0  0  0  0  0  0  0  0  0  0  0
   -6.2822   -0.4933    1.5010 O   0  0  0  0  0  0  0  0  0  0  0  0
   -3.3497    0.9377   -1.7722 S   0  0  0  0  0  6  0  0  0  0  0  0
   -3.9236    2.3356   -1.8289 O   0  0  0  0  0  0  0  0  0  0  0  0
   -2.6086    0.8110   -3.1346 O   0  0  0  0  0  0  0  0  0  0  0  0
   -2.1705    0.8027   -0.5437 N   0  0  0  0  0  0  0  0  0  0  0  0
   -1.2458   -0.2360   -0.3154 C   0  0  0  0  0  0  0  0  0  0  0  0
   -1.4963   -1.5700   -0.2435 C   0  0  0  0  0  0  0  0  0  0  0  0
   -0.4855   -2.5101    0.0034 C   0  0  0  0  0  0  0  0  0  0  0  0
    0.8196   -2.1172    0.1862 C   0  0  0  0  0  0  0  0  0  0  0  0
    1.6805   -3.1694    0.4174 C   0  0  0  0  0  0  0  0  0  0  0  0
    3.0698   -3.1696    0.3688 C   0  0  0  0  0  0  0  0  0  0  0  0
    3.9548   -2.1194    0.3163 C   0  0  0  0  0  0  0  0  0  0  0  0
    5.2458   -2.4922    0.3058 N   0  0  0  0  0  0  0  0  0  0  0  0
    6.2470   -1.5957    0.2568 C   0  0  0  0  0  0  0  0  0  0  0  0
    5.9713   -0.2302    0.2148 C   0  0  0  0  0  0  0  0  0  0  0  0
    7.0578    0.7501    0.1615 C   0  0  0  0  0  0  0  0  0  0  0  0
    8.2955    0.6219   -0.4267 C   0  0  0  0  0  0  0  0  0  0  0  0
    8.9827    1.7587   -0.2411 N   0  0  0  0  0  0  0  0  0  0  0  0
    8.2449    2.6252    0.4445 N   0  0  0  0  0  0  0  0  0  0  0  0
    8.6476    3.9424    0.8295 C   0  0  0  0  0  0  0  0  0  0  0  0
    7.0674    2.0397    0.7041 C   0  0  0  0  0  0  0  0  0  0  0  0
    4.6422    0.1371    0.2262 C   0  0  0  0  0  0  0  0  0  0  0  0
    3.6076   -0.7837    0.2767 C   0  0  0  0  0  0  0  0  0  0  0  0
    2.3583   -0.1995    0.2793 C   0  0  0  0  0  0  0  0  0  0  0  0
    2.3297    1.0477    0.4529 O   0  0  0  0  0  0  0  0  0  0  0  0
    1.1019   -0.7702    0.1191 C   0  0  0  0  0  0  0  0  0  0  0  0
    0.1078    0.1230   -0.1213 C   0  0  0  0  0  0  0  0  0  0  0  0
   -4.7317   -1.3782   -3.4663 H   0  0  0  0  0  0  0  0  0  0  0  0
   -4.2682   -2.3816   -2.0265 H   0  0  0  0  0  0  0  0  0  0  0  0
   -3.0636   -1.3445   -2.8493 H   0  0  0  0  0  0  0  0  0  0  0  0
   -4.8728   -1.7179   -0.2028 H   0  0  0  0  0  0  0  0  0  0  0  0
   -4.0425   -0.2494    0.3188 H   0  0  0  0  0  0  0  0  0  0  0  0
   -7.0478   -0.3381   -0.3491 H   0  0  0  0  0  0  0  0  0  0  0  0
   -6.3044    1.9362   -0.6306 H   0  0  0  0  0  0  0  0  0  0  0  0
   -4.9659    1.7032    0.5792 H   0  0  0  0  0  0  0  0  0  0  0  0
   -8.4285    1.2028    0.4680 H   0  0  0  0  0  0  0  0  0  0  0  0
   -8.6602    1.6614    2.1833 H   0  0  0  0  0  0  0  0  0  0  0  0
   -8.3133   -0.9016    1.2862 H   0  0  0  0  0  0  0  0  0  0  0  0
   -7.7802   -0.3205    2.9527 H   0  0  0  0  0  0  0  0  0  0  0  0
   -2.1215    1.6191    0.1562 H   0  0  0  0  0  0  0  0  0  0  0  0
   -2.4740   -1.9907   -0.3591 H   0  0  0  0  0  0  0  0  0  0  0  0
   -0.7061   -3.5605    0.0558 H   0  0  0  0  0  0  0  0  0  0  0  0
    1.1819   -4.0976    0.6653 H   0  0  0  0  0  0  0  0  0  0  0  0
    3.5077   -4.1486    0.3734 H   0  0  0  0  0  0  0  0  0  0  0  0
    7.2911   -1.8784    0.2475 H   0  0  0  0  0  0  0  0  0  0  0  0
    8.6640   -0.2415   -0.9517 H   0  0  0  0  0  0  0  0  0  0  0  0
    9.3608    4.3909    0.0871 H   0  0  0  0  0  0  0  0  0  0  0  0
    9.1892    3.9538    1.8148 H   0  0  0  0  0  0  0  0  0  0  0  0
    7.7655    4.6183    0.8464 H   0  0  0  0  0  0  0  0  0  0  0  0
    6.2681    2.5145    1.2501 H   0  0  0  0  0  0  0  0  0  0  0  0
    4.4024    1.2022    0.1939 H   0  0  0  0  0  0  0  0  0  0  0  0
    0.3350    1.1772   -0.1727 H   0  0  0  0  0  0  0  0  0  0  0  0
  1  2  1  0
  2  3  1  0
  3  4  1  0
  4  5  1  0
  5  6  1  0
  6  7  1  0
  7  8  1  0
  8  9  1  0
  2 10  1  0
 10 11  2  0
 10 12  2  0
 10 13  1  0
 13 14  1  0
 14 15  2  0
 15 16  1  0
 16 17  2  0
 17 18  1  0
 18 19  2  0
 19 20  1  0
 20 21  2  0
 21 22  1  0
 22 23  2  0
 23 24  1  0
 24 25  1  0
 25 26  2  0
 26 27  1  0
 27 28  1  0
 27 29  1  0
 23 30  1  0
 30 31  2  0
 31 32  1  0
 32 33  2  0
 32 34  1  0
 34 35  2  0
  9  4  1  0
 35 14  1  0
 34 17  1  0
 31 20  1  0
 29 24  2  0
  1 36  1  0
  1 37  1  0
  1 38  1  0
  3 39  1  0
  3 40  1  0
  4 41  1  6
  5 42  1  0
  5 43  1  0
  7 44  1  0
  7 45  1  0
  8 46  1  0
  8 47  1  0
 13 48  1  0
 15 49  1  0
 16 50  1  0
 18 51  1  0
 19 52  1  0
 22 53  1  0
 25 54  1  0
 28 55  1  0
 28 56  1  0
 28 57  1  0
 29 58  1  0
 30 59  1  0
 35 60  1  0
M  END
$$$$
