@<TRIPOS>MOLECULE
*****
 60 64 0 0 0
SMALL
GASTEIGER

@<TRIPOS>ATOM
      1 C          -4.1387   -1.3968   -2.5158 C.3     1  UNL1        0.0103
      2 N          -4.5029   -0.2905   -1.6809 N.3     1  UNL1       -0.1643
      3 C          -4.8779   -0.5993   -0.3457 C.3     1  UNL1        0.0499
      4 C          -6.1387   -0.0038    0.1706 C.3     1  UNL1        0.0963
      5 C          -6.0170    1.4820    0.3152 C.3     1  UNL1        0.0752
      6 O          -6.7912    1.9561    1.3875 O.3     1  UNL1       -0.3749
      7 C          -7.9600    1.1947    1.4636 C.3     1  UNL1        0.0711
      8 C          -7.6281   -0.2492    1.8588 C.3     1  UNL1        0.0715
      9 O          -6.2822   -0.4933    1.5010 O.3     1  UNL1       -0.3707
     10 S          -3.3497    0.9377   -1.7722 S.O2    1  UNL1        0.1115
     11 O          -3.9236    2.3356   -1.8289 O.2     1  UNL1       -0.1379
     12 O          -2.6086    0.8110   -3.1346 O.2     1  UNL1       -0.1379
     13 N          -2.1705    0.8027   -0.5437 N.pl3   1  UNL1       -0.2064
     14 C          -1.2458   -0.2360   -0.3154 C.ar    1  UNL1        0.0498
     15 C          -1.4963   -1.5700   -0.2435 C.ar    1  UNL1       -0.0387
     16 C          -0.4855   -2.5101    0.0034 C.ar    1  UNL1       -0.0521
     17 C           0.8196   -2.1172    0.1862 C.ar    1  UNL1       -0.0140
     18 C           1.6805   -3.1694    0.4174 C.ar    1  UNL1       -0.0519
     19 C           3.0698   -3.1696    0.3688 C.ar    1  UNL1       -0.0350
     20 C           3.9548   -2.1194    0.3163 C.ar    1  UNL1        0.0747
     21 N           5.2458   -2.4922    0.3058 N.ar    1  UNL1       -0.2543
     22 C           6.2470   -1.5957    0.2568 C.ar    1  UNL1        0.0361
     23 C           5.9713   -0.2302    0.2148 C.ar    1  UNL1        0.0039
     24 C           7.0578    0.7501    0.1615 C.ar    1  UNL1        0.0210
     25 C           8.2955    0.6219   -0.4267 C.ar    1  UNL1        0.0571
     26 N           8.9827    1.7587   -0.2411 N.ar    1  UNL1       -0.1793
     27 N           8.2449    2.6252    0.4445 N.ar    1  UNL1       -0.2739
     28 C           8.6476    3.9424    0.8295 C.3     1  UNL1        0.0302
     29 C           7.0674    2.0397    0.7041 C.ar    1  UNL1        0.0329
     30 C           4.6422    0.1371    0.2262 C.ar    1  UNL1       -0.0396
     31 C           3.6076   -0.7837    0.2767 C.ar    1  UNL1        0.0482
     32 C           2.3583   -0.1995    0.2793 C.ar    1  UNL1        0.1958
     33 O           2.3297    1.0477    0.4529 O.2     1  UNL1       -0.2866
     34 C           1.1019   -0.7702    0.1191 C.ar    1  UNL1        0.0312
     35 C           0.1078    0.1230   -0.1213 C.ar    1  UNL1       -0.0279
     36 H          -4.7317   -1.3782   -3.4663 H       1  UNL1        0.0408
     37 H          -4.2682   -2.3816   -2.0265 H       1  UNL1        0.0408
     38 H          -3.0636   -1.3445   -2.8493 H       1  UNL1        0.0408
     39 H          -4.8728   -1.7179   -0.2028 H       1  UNL1        0.0470
     40 H          -4.0425   -0.2494    0.3188 H       1  UNL1        0.0470
     41 H          -7.0478   -0.3381   -0.3491 H       1  UNL1        0.0632
     42 H          -6.3044    1.9362   -0.6306 H       1  UNL1        0.0586
     43 H          -4.9659    1.7032    0.5792 H       1  UNL1        0.0586
     44 H          -8.4285    1.2028    0.4680 H       1  UNL1        0.0583
     45 H          -8.6602    1.6614    2.1833 H       1  UNL1        0.0583
     46 H          -8.3133   -0.9016    1.2862 H       1  UNL1        0.0583
     47 H          -7.7802   -0.3205    2.9527 H       1  UNL1        0.0583
     48 H          -2.1215    1.6191    0.1562 H       1  UNL1        0.1747
     49 H          -2.4740   -1.9907   -0.3591 H       1  UNL1        0.0637
     50 H          -0.7061   -3.5605    0.0558 H       1  UNL1        0.0624
     51 H           1.1819   -4.0976    0.6653 H       1  UNL1        0.0624
     52 H           3.5077   -4.1486    0.3734 H       1  UNL1        0.0639
     53 H           7.2911   -1.8784    0.2475 H       1  UNL1        0.0836
     54 H           8.6640   -0.2415   -0.9517 H       1  UNL1        0.0854
     55 H           9.3608    4.3909    0.0871 H       1  UNL1        0.0473
     56 H           9.1892    3.9538    1.8148 H       1  UNL1        0.0473
     57 H           7.7655    4.6183    0.8464 H       1  UNL1        0.0473
     58 H           6.2681    2.5145    1.2501 H       1  UNL1        0.0832
     59 H           4.4024    1.2022    0.1939 H       1  UNL1        0.0632
     60 H           0.3350    1.1772   -0.1727 H       1  UNL1        0.0644
@<TRIPOS>BOND
     1     1     2    1
     2     2     3    1
     3     3     4    1
     4     4     5    1
     5     5     6    1
     6     6     7    1
     7     7     8    1
     8     8     9    1
     9     2    10    1
    10    10    11    2
    11    10    12    2
    12    10    13    1
    13    13    14    1
    14    14    15   ar
    15    15    16   ar
    16    16    17   ar
    17    17    18   ar
    18    18    19   ar
    19    19    20   ar
    20    20    21   ar
    21    21    22   ar
    22    22    23   ar
    23    23    24    1
    24    24    25   ar
    25    25    26   ar
    26    26    27   ar
    27    27    28    1
    28    27    29   ar
    29    23    30   ar
    30    30    31   ar
    31    31    32   ar
    32    32    33    2
    33    32    34   ar
    34    34    35   ar
    35     9     4    1
    36    35    14   ar
    37    34    17   ar
    38    31    20   ar
    39    29    24   ar
    40     1    36    1
    41     1    37    1
    42     1    38    1
    43     3    39    1
    44     3    40    1
    45     4    41    1
    46     5    42    1
    47     5    43    1
    48     7    44    1
    49     7    45    1
    50     8    46    1
    51     8    47    1
    52    13    48    1
    53    15    49    1
    54    16    50    1
    55    18    51    1
    56    19    52    1
    57    22    53    1
    58    25    54    1
    59    28    55    1
    60    28    56    1
    61    28    57    1
    62    29    58    1
    63    30    59    1
    64    35    60    1
