@<TRIPOS>MOLECULE
*****
 38 40 0 0 0
SMALL
GASTEIGER

@<TRIPOS>ATOM
      1 C           6.9775    2.3463    0.3378 C.3     1  UNL1       -0.0037
      2 C           5.7950    1.5207    0.0200 C.ar    1  UNL1        0.1350
      3 C           4.7387    1.2381    0.8463 C.ar    1  UNL1        0.0125
      4 C           3.8920    0.4408    0.1155 C.ar    1  UNL1        0.1681
      5 C           2.6180   -0.1623    0.4720 C.2     1  UNL1        0.2699
      6 O           2.1010    0.0067    1.6264 O.2     1  UNL1       -0.2681
      7 N           1.8729   -0.9677   -0.4243 N.am    1  UNL1       -0.2801
      8 C           0.6274   -1.5429   -0.0407 C.ar    1  UNL1        0.0346
      9 C           0.6111   -2.7940    0.5421 C.ar    1  UNL1       -0.0370
     10 C          -0.5796   -3.3785    0.9249 C.ar    1  UNL1       -0.0178
     11 C          -1.7515   -2.6946    0.7166 C.ar    1  UNL1        0.1261
     12 O          -2.9595   -3.2624    1.0933 O.3     1  UNL1       -0.5061
     13 C          -1.7666   -1.4252    0.1282 C.ar    1  UNL1        0.0435
     14 C          -3.0514   -0.7398   -0.0703 C.ar    1  UNL1        0.0753
     15 C          -3.1525    0.5054   -0.6394 C.ar    1  UNL1       -0.0216
     16 C          -4.3967    1.1211   -0.8092 C.ar    1  UNL1        0.0623
     17 C          -4.4735    2.4457   -1.4175 C.2     1  UNL1        0.3369
     18 O          -5.5796    3.0202   -1.5811 O.2     1  UNL1       -0.2451
     19 O          -3.3463    3.1331   -1.8423 O.3     1  UNL1       -0.4771
     20 C          -5.5502    0.4879   -0.4072 C.ar    1  UNL1       -0.0296
     21 C          -5.4190   -0.7667    0.1635 C.ar    1  UNL1        0.0290
     22 N          -4.2108   -1.3312    0.3129 N.ar    1  UNL1       -0.2548
     23 C          -0.5780   -0.8539   -0.2483 C.ar    1  UNL1       -0.0278
     24 N           4.4680    0.2866   -1.0876 N.ar    1  UNL1       -0.0734
     25 O           5.5948    0.9346   -1.1232 O.2     1  UNL1       -0.3592
     26 H           6.9809    3.3135   -0.2153 H       1  UNL1        0.0309
     27 H           7.1097    2.5011    1.4353 H       1  UNL1        0.0309
     28 H           7.8763    1.7946    0.0015 H       1  UNL1        0.0309
     29 H           4.5649    1.5573    1.8748 H       1  UNL1        0.0676
     30 H           2.2596   -1.1360   -1.3898 H       1  UNL1        0.1552
     31 H           1.5563   -3.2993    0.6886 H       1  UNL1        0.0637
     32 H          -0.5431   -4.3665    1.3806 H       1  UNL1        0.0655
     33 H          -3.3920   -2.9195    1.9421 H       1  UNL1        0.2922
     34 H          -2.2789    1.0355   -0.9673 H       1  UNL1        0.0647
     35 H          -3.2586    4.1399   -1.6862 H       1  UNL1        0.2954
     36 H          -6.4982    0.9731   -0.5441 H       1  UNL1        0.0641
     37 H          -6.3292   -1.2823    0.4881 H       1  UNL1        0.0830
     38 H          -0.5291    0.1204   -0.7056 H       1  UNL1        0.0644
@<TRIPOS>BOND
     1     1     2    1
     2     2     3   ar
     3     3     4   ar
     4     4     5    1
     5     5     6    2
     6     5     7   am
     7     7     8    1
     8     8     9   ar
     9     9    10   ar
    10    10    11   ar
    11    11    12    1
    12    11    13   ar
    13    13    14    1
    14    14    15   ar
    15    15    16   ar
    16    16    17    1
    17    17    18    2
    18    17    19    1
    19    16    20   ar
    20    20    21   ar
    21    21    22   ar
    22    13    23   ar
    23     4    24   ar
    24    24    25   ar
    25    25     2   ar
    26    23     8   ar
    27    22    14   ar
    28     1    26    1
    29     1    27    1
    30     1    28    1
    31     3    29    1
    32     7    30    1
    33     9    31    1
    34    10    32    1
    35    12    33    1
    36    15    34    1
    37    19    35    1
    38    20    36    1
    39    21    37    1
    40    23    38    1
