
     RDKit          3D

 38 40  0  0  0  0  0  0  0  0999 V2000
    6.9775    2.3463    0.3378 C   0  0  0  0  0  0  0  0  0  0  0  0
    5.7950    1.5207    0.0200 C   0  0  0  0  0  0  0  0  0  0  0  0
    4.7387    1.2381    0.8463 C   0  0  0  0  0  0  0  0  0  0  0  0
    3.8920    0.4408    0.1155 C   0  0  0  0  0  0  0  0  0  0  0  0
    2.6180   -0.1623    0.4720 C   0  0  0  0  0  0  0  0  0  0  0  0
    2.1010    0.0067    1.6264 O   0  0  0  0  0  0  0  0  0  0  0  0
    1.8729   -0.9677   -0.4243 N   0  0  0  0  0  0  0  0  0  0  0  0
    0.6274   -1.5429   -0.0407 C   0  0  0  0  0  0  0  0  0  0  0  0
    0.6111   -2.7940    0.5421 C   0  0  0  0  0  0  0  0  0  0  0  0
   -0.5796   -3.3785    0.9249 C   0  0  0  0  0  0  0  0  0  0  0  0
   -1.7515   -2.6946    0.7166 C   0  0  0  0  0  0  0  0  0  0  0  0
   -2.9595   -3.2624    1.0933 O   0  0  0  0  0  0  0  0  0  0  0  0
   -1.7666   -1.4252    0.1282 C   0  0  0  0  0  0  0  0  0  0  0  0
   -3.0514   -0.7398   -0.0703 C   0  0  0  0  0  0  0  0  0  0  0  0
   -3.1525    0.5054   -0.6394 C   0  0  0  0  0  0  0  0  0  0  0  0
   -4.3967    1.1211   -0.8092 C   0  0  0  0  0  0  0  0  0  0  0  0
   -4.4735    2.4457   -1.4175 C   0  0  0  0  0  0  0  0  0  0  0  0
   -5.5796    3.0202   -1.5811 O   0  0  0  0  0  0  0  0  0  0  0  0
   -3.3463    3.1331   -1.8423 O   0  0  0  0  0  0  0  0  0  0  0  0
   -5.5502    0.4879   -0.4072 C   0  0  0  0  0  0  0  0  0  0  0  0
   -5.4190   -0.7667    0.1635 C   0  0  0  0  0  0  0  0  0  0  0  0
   -4.2108   -1.3312    0.3129 N   0  0  0  0  0  0  0  0  0  0  0  0
   -0.5780   -0.8539   -0.2483 C   0  0  0  0  0  0  0  0  0  0  0  0
    4.4680    0.2866   -1.0876 N   0  0  0  0  0  0  0  0  0  0  0  0
    5.5948    0.9346   -1.1232 O   0  0  0  0  0  0  0  0  0  0  0  0
    6.9809    3.3135   -0.2153 H   0  0  0  0  0  0  0  0  0  0  0  0
    7.1097    2.5011    1.4353 H   0  0  0  0  0  0  0  0  0  0  0  0
    7.8763    1.7946    0.0015 H   0  0  0  0  0  0  0  0  0  0  0  0
    4.5649    1.5573    1.8748 H   0  0  0  0  0  0  0  0  0  0  0  0
    2.2596   -1.1360   -1.3898 H   0  0  0  0  0  0  0  0  0  0  0  0
    1.5563   -3.2993    0.6886 H   0  0  0  0  0  0  0  0  0  0  0  0
   -0.5431   -4.3665    1.3806 H   0  0  0  0  0  0  0  0  0  0  0  0
   -3.3920   -2.9195    1.9421 H   0  0  0  0  0  0  0  0  0  0  0  0
   -2.2789    1.0355   -0.9673 H   0  0  0  0  0  0  0  0  0  0  0  0
   -3.2586    4.1399   -1.6862 H   0  0  0  0  0  0  0  0  0  0  0  0
   -6.4982    0.9731   -0.5441 H   0  0  0  0  0  0  0  0  0  0  0  0
   -6.3292   -1.2823    0.4881 H   0  0  0  0  0  0  0  0  0  0  0  0
   -0.5291    0.1204   -0.7056 H   0  0  0  0  0  0  0  0  0  0  0  0
  1  2  1  0
  2  3  2  0
  3  4  1  0
  4  5  1  0
  5  6  2  0
  5  7  1  0
  7  8  1  0
  8  9  2  0
  9 10  1  0
 10 11  2  0
 11 12  1  0
 11 13  1  0
 13 14  1  0
 14 15  2  0
 15 16  1  0
 16 17  1  0
 17 18  2  0
 17 19  1  0
 16 20  2  0
 20 21  1  0
 21 22  2  0
 13 23  2  0
  4 24  2  0
 24 25  1  0
 25  2  1  0
 23  8  1  0
 22 14  1  0
  1 26  1  0
  1 27  1  0
  1 28  1  0
  3 29  1  0
  7 30  1  0
  9 31  1  0
 10 32  1  0
 12 33  1  0
 15 34  1  0
 19 35  1  0
 20 36  1  0
 21 37  1  0
 23 38  1  0
M  END
$$$$
