@<TRIPOS>MOLECULE
*****
 51 53 0 0 0
SMALL
GASTEIGER

@<TRIPOS>ATOM
      1 C          -4.2225   -1.1908   -0.7807 C.3     1  UNL1       -0.0626
      2 C          -3.3184   -0.3772    0.0975 C.3     1  UNL1       -0.0446
      3 C          -3.7629    1.0818   -0.0778 C.3     1  UNL1       -0.0626
      4 C          -1.8788   -0.5377   -0.3865 C.3     1  UNL1       -0.0249
      5 C          -0.9265    0.2350    0.4479 C.3     1  UNL1        0.0850
      6 C          -0.7934   -0.1114    1.8541 C.ar    1  UNL1        0.1714
      7 N          -0.3981    0.7766    2.8363 N.ar    1  UNL1       -0.1115
      8 N          -0.3703    0.1238    3.9708 N.ar    1  UNL1       -0.0230
      9 N          -0.7148   -1.1215    3.8156 N.ar    1  UNL1       -0.0441
     10 N          -0.9775   -1.2614    2.4884 N.ar    1  UNL1       -0.2306
     11 C          -1.3700   -2.5298    1.9574 C.3     1  UNL1        0.0339
     12 N           0.3944    0.3126   -0.2186 N.pl3   1  UNL1       -0.3194
     13 C           0.9301   -0.9461   -0.5480 C.3     1  UNL1        0.0157
     14 C           2.1926   -1.1892   -1.2549 C.3     1  UNL1       -0.0253
     15 C           2.4275   -2.7504   -1.3996 C.3     1  UNL1       -0.0488
     16 C           3.2237   -2.6736   -0.1139 C.3     1  UNL1       -0.0525
     17 C           3.4790   -1.2147   -0.4678 C.3     1  UNL1       -0.0488
     18 C           0.9920    1.5757   -0.3839 C.ar    1  UNL1        0.0317
     19 C           0.4212    2.7174    0.2140 C.ar    1  UNL1       -0.0393
     20 C           0.9299    3.9955    0.0602 C.ar    1  UNL1       -0.0412
     21 C           2.0430    4.2121   -0.7010 C.ar    1  UNL1        0.0701
     22 C           2.5761    5.5274   -0.8648 C.1     1  UNL1        0.1006
     23 N           3.0222    6.5833   -1.0080 N.1     1  UNL1       -0.1908
     24 C           2.6374    3.1363   -1.3041 C.ar    1  UNL1        0.0600
     25 CL          4.0597    3.3724   -2.2831 Cl      1  UNL1       -0.0822
     26 C           2.1084    1.8656   -1.1353 C.ar    1  UNL1       -0.0210
     27 H          -5.1581   -0.6846   -1.0623 H       1  UNL1        0.0232
     28 H          -4.5192   -2.1152   -0.2053 H       1  UNL1        0.0232
     29 H          -3.6771   -1.5764   -1.6771 H       1  UNL1        0.0232
     30 H          -3.4223   -0.5487    1.1787 H       1  UNL1        0.0296
     31 H          -3.3719    1.5233   -0.9937 H       1  UNL1        0.0232
     32 H          -3.5390    1.6691    0.8339 H       1  UNL1        0.0232
     33 H          -4.8693    1.0470   -0.1558 H       1  UNL1        0.0232
     34 H          -1.8884   -0.1834   -1.4376 H       1  UNL1        0.0290
     35 H          -1.6505   -1.6168   -0.4376 H       1  UNL1        0.0290
     36 H          -1.3657    1.3033    0.3488 H       1  UNL1        0.0581
     37 H          -1.3266   -3.3293    2.7774 H       1  UNL1        0.0474
     38 H          -2.4105   -2.6027    1.6044 H       1  UNL1        0.0474
     39 H          -0.6573   -2.9580    1.2021 H       1  UNL1        0.0474
     40 H           1.0416   -1.5677    0.4368 H       1  UNL1        0.0467
     41 H           0.1547   -1.5795   -1.1294 H       1  UNL1        0.0467
     42 H           2.2666   -0.8632   -2.3302 H       1  UNL1        0.0316
     43 H           1.4681   -3.2585   -1.3593 H       1  UNL1        0.0268
     44 H           3.1191   -2.9730   -2.2280 H       1  UNL1        0.0268
     45 H           4.1335   -3.3011   -0.1102 H       1  UNL1        0.0265
     46 H           2.5873   -2.8522    0.7586 H       1  UNL1        0.0265
     47 H           3.3759   -0.6106    0.4640 H       1  UNL1        0.0268
     48 H           4.3908   -1.0653   -1.0410 H       1  UNL1        0.0268
     49 H          -0.4341    2.6228    0.8383 H       1  UNL1        0.0636
     50 H           0.4226    4.8002    0.5557 H       1  UNL1        0.0631
     51 H           2.6260    1.1087   -1.6454 H       1  UNL1        0.0651
@<TRIPOS>BOND
     1     1     2    1
     2     2     3    1
     3     2     4    1
     4     4     5    1
     5     5     6    1
     6     6     7   ar
     7     7     8   ar
     8     8     9   ar
     9     9    10   ar
    10    10    11    1
    11     5    12    1
    12    12    13    1
    13    13    14    1
    14    14    15    1
    15    15    16    1
    16    16    17    1
    17    12    18    1
    18    18    19   ar
    19    19    20   ar
    20    20    21   ar
    21    21    22    1
    22    22    23    3
    23    21    24   ar
    24    24    25    1
    25    24    26   ar
    26    10     6   ar
    27    17    14    1
    28    26    18   ar
    29     1    27    1
    30     1    28    1
    31     1    29    1
    32     2    30    1
    33     3    31    1
    34     3    32    1
    35     3    33    1
    36     4    34    1
    37     4    35    1
    38     5    36    1
    39    11    37    1
    40    11    38    1
    41    11    39    1
    42    13    40    1
    43    13    41    1
    44    14    42    1
    45    15    43    1
    46    15    44    1
    47    16    45    1
    48    16    46    1
    49    17    47    1
    50    17    48    1
    51    19    49    1
    52    20    50    1
    53    26    51    1
