
     RDKit          3D

 51 53  0  0  0  0  0  0  0  0999 V2000
   -4.2225   -1.1908   -0.7807 C   0  0  0  0  0  0  0  0  0  0  0  0
   -3.3184   -0.3772    0.0975 C   0  0  0  0  0  0  0  0  0  0  0  0
   -3.7629    1.0818   -0.0778 C   0  0  0  0  0  0  0  0  0  0  0  0
   -1.8788   -0.5377   -0.3865 C   0  0  0  0  0  0  0  0  0  0  0  0
   -0.9265    0.2350    0.4479 C   0  0  0  0  0  0  0  0  0  0  0  0
   -0.7934   -0.1114    1.8541 C   0  0  0  0  0  0  0  0  0  0  0  0
   -0.3981    0.7766    2.8363 N   0  0  0  0  0  0  0  0  0  0  0  0
   -0.3703    0.1238    3.9708 N   0  0  0  0  0  0  0  0  0  0  0  0
   -0.7148   -1.1215    3.8156 N   0  0  0  0  0  0  0  0  0  0  0  0
   -0.9775   -1.2614    2.4884 N   0  0  0  0  0  0  0  0  0  0  0  0
   -1.3700   -2.5298    1.9574 C   0  0  0  0  0  0  0  0  0  0  0  0
    0.3944    0.3126   -0.2186 N   0  0  0  0  0  0  0  0  0  0  0  0
    0.9301   -0.9461   -0.5480 C   0  0  0  0  0  0  0  0  0  0  0  0
    2.1926   -1.1892   -1.2549 C   0  0  0  0  0  0  0  0  0  0  0  0
    2.4275   -2.7504   -1.3996 C   0  0  0  0  0  0  0  0  0  0  0  0
    3.2237   -2.6736   -0.1139 C   0  0  0  0  0  0  0  0  0  0  0  0
    3.4790   -1.2147   -0.4678 C   0  0  0  0  0  0  0  0  0  0  0  0
    0.9920    1.5757   -0.3839 C   0  0  0  0  0  0  0  0  0  0  0  0
    0.4212    2.7174    0.2140 C   0  0  0  0  0  0  0  0  0  0  0  0
    0.9299    3.9955    0.0602 C   0  0  0  0  0  0  0  0  0  0  0  0
    2.0430    4.2121   -0.7010 C   0  0  0  0  0  0  0  0  0  0  0  0
    2.5761    5.5274   -0.8648 C   0  0  0  0  0  0  0  0  0  0  0  0
    3.0222    6.5833   -1.0080 N   0  0  0  0  0  0  0  0  0  0  0  0
    2.6374    3.1363   -1.3041 C   0  0  0  0  0  0  0  0  0  0  0  0
    4.0597    3.3724   -2.2831 Cl  0  0  0  0  0  0  0  0  0  0  0  0
    2.1084    1.8656   -1.1353 C   0  0  0  0  0  0  0  0  0  0  0  0
   -5.1581   -0.6846   -1.0623 H   0  0  0  0  0  0  0  0  0  0  0  0
   -4.5192   -2.1152   -0.2053 H   0  0  0  0  0  0  0  0  0  0  0  0
   -3.6771   -1.5764   -1.6771 H   0  0  0  0  0  0  0  0  0  0  0  0
   -3.4223   -0.5487    1.1787 H   0  0  0  0  0  0  0  0  0  0  0  0
   -3.3719    1.5233   -0.9937 H   0  0  0  0  0  0  0  0  0  0  0  0
   -3.5390    1.6691    0.8339 H   0  0  0  0  0  0  0  0  0  0  0  0
   -4.8693    1.0470   -0.1558 H   0  0  0  0  0  0  0  0  0  0  0  0
   -1.8884   -0.1834   -1.4376 H   0  0  0  0  0  0  0  0  0  0  0  0
   -1.6505   -1.6168   -0.4376 H   0  0  0  0  0  0  0  0  0  0  0  0
   -1.3657    1.3033    0.3488 H   0  0  0  0  0  0  0  0  0  0  0  0
   -1.3266   -3.3293    2.7774 H   0  0  0  0  0  0  0  0  0  0  0  0
   -2.4105   -2.6027    1.6044 H   0  0  0  0  0  0  0  0  0  0  0  0
   -0.6573   -2.9580    1.2021 H   0  0  0  0  0  0  0  0  0  0  0  0
    1.0416   -1.5677    0.4368 H   0  0  0  0  0  0  0  0  0  0  0  0
    0.1547   -1.5795   -1.1294 H   0  0  0  0  0  0  0  0  0  0  0  0
    2.2666   -0.8632   -2.3302 H   0  0  0  0  0  0  0  0  0  0  0  0
    1.4681   -3.2585   -1.3593 H   0  0  0  0  0  0  0  0  0  0  0  0
    3.1191   -2.9730   -2.2280 H   0  0  0  0  0  0  0  0  0  0  0  0
    4.1335   -3.3011   -0.1102 H   0  0  0  0  0  0  0  0  0  0  0  0
    2.5873   -2.8522    0.7586 H   0  0  0  0  0  0  0  0  0  0  0  0
    3.3759   -0.6106    0.4640 H   0  0  0  0  0  0  0  0  0  0  0  0
    4.3908   -1.0653   -1.0410 H   0  0  0  0  0  0  0  0  0  0  0  0
   -0.4341    2.6228    0.8383 H   0  0  0  0  0  0  0  0  0  0  0  0
    0.4226    4.8002    0.5557 H   0  0  0  0  0  0  0  0  0  0  0  0
    2.6260    1.1087   -1.6454 H   0  0  0  0  0  0  0  0  0  0  0  0
  1  2  1  0
  2  3  1  0
  2  4  1  0
  4  5  1  0
  5  6  1  0
  6  7  2  0
  7  8  1  0
  8  9  2  0
  9 10  1  0
 10 11  1  0
  5 12  1  0
 12 13  1  0
 13 14  1  0
 14 15  1  0
 15 16  1  0
 16 17  1  0
 12 18  1  0
 18 19  2  0
 19 20  1  0
 20 21  2  0
 21 22  1  0
 22 23  3  0
 21 24  1  0
 24 25  1  0
 24 26  2  0
 10  6  1  0
 17 14  1  0
 26 18  1  0
  1 27  1  0
  1 28  1  0
  1 29  1  0
  2 30  1  0
  3 31  1  0
  3 32  1  0
  3 33  1  0
  4 34  1  0
  4 35  1  0
  5 36  1  0
 11 37  1  0
 11 38  1  0
 11 39  1  0
 13 40  1  0
 13 41  1  0
 14 42  1  0
 15 43  1  0
 15 44  1  0
 16 45  1  0
 16 46  1  0
 17 47  1  0
 17 48  1  0
 19 49  1  0
 20 50  1  0
 26 51  1  0
M  END
$$$$
