@<TRIPOS>MOLECULE
*****
 52 54 0 0 0
SMALL
GASTEIGER

@<TRIPOS>ATOM
      1 C           9.5296   -0.1946   -0.6868 C.3     1  UNL1        0.0805
      2 O           8.5599    0.8658   -0.7654 O.3     1  UNL1       -0.4786
      3 C           7.2605    0.6233   -0.3013 C.ar    1  UNL1        0.2332
      4 C           6.3110    1.5915   -0.3541 C.ar    1  UNL1        0.0899
      5 N           5.0622    1.3516    0.0945 N.ar    1  UNL1       -0.2435
      6 C           4.7074    0.1561    0.6073 C.ar    1  UNL1        0.1439
      7 C           3.3527   -0.0692    1.0834 C.2     1  UNL1        0.2681
      8 O           3.0433   -1.2060    1.5612 O.2     1  UNL1       -0.2681
      9 N           2.3307    0.9021    1.0547 N.am    1  UNL1       -0.2802
     10 C           1.0037    0.6861    1.5194 C.ar    1  UNL1        0.0343
     11 C           0.6936    0.9459    2.8386 C.ar    1  UNL1       -0.0377
     12 C          -0.5582    0.7688    3.3822 C.ar    1  UNL1       -0.0243
     13 C          -1.5667    0.3003    2.5501 C.ar    1  UNL1        0.1311
     14 F          -2.8176    0.1245    3.0967 F       1  UNL1       -0.2050
     15 C          -1.2959    0.0290    1.2255 C.ar    1  UNL1        0.0420
     16 C          -2.4033   -0.4697    0.3856 C.3     1  UNL1        0.1959
     17 C          -2.9365   -1.7238    1.0677 C.3     1  UNL1       -0.0112
     18 C          -1.9457   -0.8567   -1.0066 C.3     1  UNL1        0.1183
     19 S          -3.3721   -1.2836   -2.0077 S.O2    1  UNL1       -0.0101
     20 O          -2.9929   -1.3000   -3.4532 O.2     1  UNL1       -0.1731
     21 O          -3.8200   -2.6762   -1.6457 O.2     1  UNL1       -0.1731
     22 C          -4.6358   -0.1362   -1.6222 C.3     1  UNL1        0.1831
     23 C          -4.8569    0.8589   -2.7764 C.3     1  UNL1       -0.0288
     24 C          -5.9534   -0.8990   -1.4335 C.3     1  UNL1       -0.0288
     25 C          -4.4052    0.6704   -0.4301 C.2     1  UNL1        0.3067
     26 N          -5.3439    1.7400   -0.1879 N.pl3   1  UNL1       -0.2488
     27 N          -3.4681    0.4872    0.3624 N.2     1  UNL1       -0.0727
     28 C          -0.0307    0.2192    0.7194 C.ar    1  UNL1       -0.0301
     29 C           5.6904   -0.8041    0.6474 C.ar    1  UNL1        0.0619
     30 N           6.9417   -0.5811    0.2039 N.ar    1  UNL1       -0.2178
     31 H           9.4543   -0.6704    0.3079 H       1  UNL1        0.0660
     32 H          10.5476    0.2049   -0.7857 H       1  UNL1        0.0660
     33 H           9.2675   -0.9639   -1.4403 H       1  UNL1        0.0660
     34 H           6.5357    2.5688   -0.7537 H       1  UNL1        0.0884
     35 H           2.6015    1.8444    0.6540 H       1  UNL1        0.1552
     36 H           1.5076    1.3140    3.4748 H       1  UNL1        0.0637
     37 H          -0.8011    0.9725    4.4156 H       1  UNL1        0.0647
     38 H          -2.7522   -2.6266    0.4327 H       1  UNL1        0.0279
     39 H          -4.0354   -1.6830    1.2174 H       1  UNL1        0.0279
     40 H          -2.4804   -1.8924    2.0621 H       1  UNL1        0.0279
     41 H          -1.3140   -1.7610   -0.9641 H       1  UNL1        0.0550
     42 H          -1.3954   -0.0169   -1.4699 H       1  UNL1        0.0550
     43 H          -5.4083    1.7216   -2.3549 H       1  UNL1        0.0256
     44 H          -5.4554    0.3975   -3.5910 H       1  UNL1        0.0256
     45 H          -3.8605    1.2052   -3.0891 H       1  UNL1        0.0256
     46 H          -6.3117   -1.2683   -2.4393 H       1  UNL1        0.0256
     47 H          -5.8396   -1.7435   -0.7413 H       1  UNL1        0.0256
     48 H          -6.7564   -0.2247   -1.0553 H       1  UNL1        0.0256
     49 H          -6.3407    1.5625   -0.0298 H       1  UNL1        0.2881
     50 H          -4.9638    2.7021   -0.1819 H       1  UNL1        0.2881
     51 H           0.2362    0.0224   -0.3049 H       1  UNL1        0.0641
     52 H           5.4807   -1.7856    1.0445 H       1  UNL1        0.0854
@<TRIPOS>BOND
     1     1     2    1
     2     2     3    1
     3     3     4   ar
     4     4     5   ar
     5     5     6   ar
     6     6     7    1
     7     7     8    2
     8     7     9   am
     9     9    10    1
    10    10    11   ar
    11    11    12   ar
    12    12    13   ar
    13    13    14    1
    14    13    15   ar
    15    15    16    1
    16    16    17    1
    17    16    18    1
    18    18    19    1
    19    19    20    2
    20    19    21    2
    21    19    22    1
    22    22    23    1
    23    22    24    1
    24    22    25    1
    25    25    26    1
    26    25    27    2
    27    15    28   ar
    28     6    29   ar
    29    29    30   ar
    30    30     3   ar
    31    28    10   ar
    32    27    16    1
    33     1    31    1
    34     1    32    1
    35     1    33    1
    36     4    34    1
    37     9    35    1
    38    11    36    1
    39    12    37    1
    40    17    38    1
    41    17    39    1
    42    17    40    1
    43    18    41    1
    44    18    42    1
    45    23    43    1
    46    23    44    1
    47    23    45    1
    48    24    46    1
    49    24    47    1
    50    24    48    1
    51    26    49    1
    52    26    50    1
    53    28    51    1
    54    29    52    1
