@<TRIPOS>MOLECULE
*****
 75 80 0 0 0
SMALL
GASTEIGER

@<TRIPOS>ATOM
      1 C          -2.8770    7.8351   -0.3384 C.3     1  UNL1        0.0804
      2 O          -2.2168    6.6294    0.0061 O.3     1  UNL1       -0.4795
      3 C          -2.4066    5.4669   -0.7095 C.ar    1  UNL1        0.2191
      4 C          -1.7240    4.3405   -0.3045 C.ar    1  UNL1        0.0404
      5 C          -1.8355    3.1155   -0.9466 C.ar    1  UNL1        0.1364
      6 N          -1.1208    1.9644   -0.5133 N.am    1  UNL1       -0.2240
      7 C           0.1946    1.5615   -0.9572 C.2     1  UNL1        0.3219
      8 O           0.6348    1.9133   -2.0817 O.2     1  UNL1       -0.2512
      9 N           0.8167    0.7669    0.0445 N.am    1  UNL1       -0.1905
     10 C           2.0852    0.1691    0.0518 C.ar    1  UNL1        0.0636
     11 C           2.4868   -0.6085    1.1158 C.ar    1  UNL1       -0.0363
     12 C           3.7772   -1.1796    1.0788 C.ar    1  UNL1       -0.0339
     13 C           4.6399   -1.0019    0.0544 C.ar    1  UNL1        0.0713
     14 C           5.9541   -1.5846   -0.0980 C.ar    1  UNL1        0.0033
     15 C           6.4754   -1.7197   -1.4082 C.ar    1  UNL1       -0.0515
     16 C           7.7234   -2.2288   -1.6409 C.ar    1  UNL1       -0.0471
     17 C           8.5588   -2.6441   -0.6303 C.ar    1  UNL1        0.0591
     18 C           9.8770   -3.1787   -0.9386 C.2     1  UNL1        0.3368
     19 O          10.6796   -3.5722   -0.0674 O.2     1  UNL1       -0.2451
     20 O          10.2999   -3.2713   -2.2638 O.3     1  UNL1       -0.4771
     21 C           8.0736   -2.5205    0.6432 C.ar    1  UNL1       -0.0442
     22 C           6.7908   -1.9974    0.9051 C.ar    1  UNL1       -0.0405
     23 C           6.4186   -1.8622    2.3363 C.3     1  UNL1       -0.0391
     24 N           4.1904   -0.2234   -0.9744 N.ar    1  UNL1       -0.2531
     25 C           2.9705    0.3443   -0.9908 C.ar    1  UNL1        0.0501
     26 C          -0.1600    0.7091    1.0925 C.2     1  UNL1        0.2516
     27 O           0.0243    0.5094    2.3263 O.2     1  UNL1       -0.2724
     28 C          -1.5000    0.9384    0.4385 C.3     1  UNL1        0.1240
     29 C          -2.4463    1.4468    1.4883 C.3     1  UNL1       -0.0095
     30 C          -3.8888    1.2088    1.2155 C.3     1  UNL1        0.0017
     31 N          -4.2147   -0.0250    0.5790 N.3     1  UNL1       -0.2965
     32 C          -4.2964   -1.1634    1.4680 C.3     1  UNL1        0.0415
     33 C          -4.6581   -2.3347    0.5937 C.ar    1  UNL1        0.0581
     34 N          -3.7545   -3.2617    0.2297 N.ar    1  UNL1       -0.2583
     35 C          -4.0847   -4.3053   -0.5533 C.ar    1  UNL1        0.0279
     36 C          -5.3719   -4.4921   -1.0335 C.ar    1  UNL1       -0.0433
     37 C          -6.3089   -3.5486   -0.6677 C.ar    1  UNL1       -0.0557
     38 C          -5.9565   -2.4856    0.1343 C.ar    1  UNL1       -0.0279
     39 C          -6.9355   -1.4349    0.5595 C.3     1  UNL1       -0.0380
     40 C          -3.3686   -0.2809   -0.5633 C.3     1  UNL1        0.0017
     41 C          -1.9198   -0.3435   -0.1956 C.3     1  UNL1       -0.0095
     42 N          -2.6674    3.0723   -2.0185 N.ar    1  UNL1       -0.2200
     43 C          -3.3252    4.1805   -2.3994 C.ar    1  UNL1        0.1219
     44 N          -3.2135    5.3656   -1.7736 N.ar    1  UNL1       -0.2013
     45 H          -2.6631    8.5801    0.4332 H       1  UNL1        0.0660
     46 H          -3.9717    7.6097   -0.3862 H       1  UNL1        0.0660
     47 H          -2.5577    8.1685   -1.3348 H       1  UNL1        0.0660
     48 H          -1.0568    4.3643    0.5504 H       1  UNL1        0.0705
     49 H           1.8520   -0.7996    1.9741 H       1  UNL1        0.0637
     50 H           4.0101   -1.7980    1.9146 H       1  UNL1        0.0639
     51 H           5.8199   -1.3943   -2.2193 H       1  UNL1        0.0624
     52 H           8.0960   -2.3195   -2.6738 H       1  UNL1        0.0626
     53 H          11.0332   -3.8979   -2.5690 H       1  UNL1        0.2954
     54 H           8.7059   -2.8382    1.4653 H       1  UNL1        0.0628
     55 H           5.8847   -2.7397    2.7430 H       1  UNL1        0.0278
     56 H           7.3997   -1.8088    2.9084 H       1  UNL1        0.0278
     57 H           5.9399   -0.9108    2.5633 H       1  UNL1        0.0278
     58 H           2.6524    0.9541   -1.8227 H       1  UNL1        0.0849
     59 H          -2.2653    2.5430    1.5846 H       1  UNL1        0.0303
     60 H          -2.1838    0.9734    2.4761 H       1  UNL1        0.0303
     61 H          -4.4315    1.2734    2.1984 H       1  UNL1        0.0427
     62 H          -4.2930    2.0535    0.5861 H       1  UNL1        0.0427
     63 H          -3.3506   -1.4229    1.9513 H       1  UNL1        0.0491
     64 H          -5.0567   -0.9788    2.2274 H       1  UNL1        0.0491
     65 H          -3.3451   -5.0449   -0.8383 H       1  UNL1        0.0829
     66 H          -5.6317   -5.3316   -1.6621 H       1  UNL1        0.0633
     67 H          -7.3309   -3.6387   -1.0100 H       1  UNL1        0.0621
     68 H          -6.5469   -0.4719    0.1828 H       1  UNL1        0.0278
     69 H          -7.9233   -1.6781    0.1522 H       1  UNL1        0.0278
     70 H          -6.9971   -1.4731    1.6704 H       1  UNL1        0.0278
     71 H          -3.6488   -1.2471   -1.0337 H       1  UNL1        0.0427
     72 H          -3.5282    0.5134   -1.2930 H       1  UNL1        0.0427
     73 H          -1.6869   -1.1710    0.5052 H       1  UNL1        0.0303
     74 H          -1.3420   -0.5122   -1.1146 H       1  UNL1        0.0303
     75 H          -4.0028    4.1746   -3.2612 H       1  UNL1        0.1049
@<TRIPOS>BOND
     1     1     2    1
     2     2     3    1
     3     3     4   ar
     4     4     5   ar
     5     5     6    1
     6     6     7   am
     7     7     8    2
     8     7     9   am
     9     9    10    1
    10    10    11   ar
    11    11    12   ar
    12    12    13   ar
    13    13    14    1
    14    14    15   ar
    15    15    16   ar
    16    16    17   ar
    17    17    18    1
    18    18    19    2
    19    18    20    1
    20    17    21   ar
    21    21    22   ar
    22    22    23    1
    23    13    24   ar
    24    24    25   ar
    25     9    26   am
    26    26    27    2
    27    26    28    1
    28    28    29    1
    29    29    30    1
    30    30    31    1
    31    31    32    1
    32    32    33    1
    33    33    34   ar
    34    34    35   ar
    35    35    36   ar
    36    36    37   ar
    37    37    38   ar
    38    38    39    1
    39    31    40    1
    40    40    41    1
    41     5    42   ar
    42    42    43   ar
    43    43    44   ar
    44    44     3   ar
    45    28     6    1
    46    38    33   ar
    47    25    10   ar
    48    41    28    1
    49    22    14   ar
    50     1    45    1
    51     1    46    1
    52     1    47    1
    53     4    48    1
    54    11    49    1
    55    12    50    1
    56    15    51    1
    57    16    52    1
    58    20    53    1
    59    21    54    1
    60    23    55    1
    61    23    56    1
    62    23    57    1
    63    25    58    1
    64    29    59    1
    65    29    60    1
    66    30    61    1
    67    30    62    1
    68    32    63    1
    69    32    64    1
    70    35    65    1
    71    36    66    1
    72    37    67    1
    73    39    68    1
    74    39    69    1
    75    39    70    1
    76    40    71    1
    77    40    72    1
    78    41    73    1
    79    41    74    1
    80    43    75    1
