@<TRIPOS>MOLECULE
*****
 62 66 0 0 0
SMALL
GASTEIGER

@<TRIPOS>ATOM
      1 C          -3.0887    5.1826    0.6900 C.3     1  UNL1       -0.0653
      2 C          -2.4053    4.0364    1.4487 C.3     1  UNL1       -0.0556
      3 C          -2.6483    2.8025    0.6262 C.3     1  UNL1       -0.0478
      4 C          -2.0347    1.5576    1.2356 C.3     1  UNL1       -0.0084
      5 C          -2.3004    0.3810    0.3844 C.ar    1  UNL1        0.0677
      6 N          -3.2885   -0.5052    0.6770 N.ar    1  UNL1       -0.1703
      7 N          -3.3772   -1.4488   -0.2018 N.ar    1  UNL1       -0.2238
      8 C          -4.3121   -2.5269   -0.1733 C.ar    1  UNL1        0.0845
      9 C          -4.1208   -3.5877    0.7003 C.ar    1  UNL1       -0.0348
     10 C          -5.0013   -4.6473    0.7574 C.ar    1  UNL1       -0.0597
     11 C          -6.0918   -4.5990   -0.1054 C.ar    1  UNL1       -0.0603
     12 C          -6.2847   -3.5509   -0.9712 C.ar    1  UNL1       -0.0413
     13 C          -5.4002   -2.4953   -1.0227 C.ar    1  UNL1        0.0663
     14 CL         -5.6499   -1.1491   -2.1378 Cl      1  UNL1       -0.0813
     15 C          -2.4086   -1.1987   -1.1366 C.ar    1  UNL1        0.1548
     16 C          -2.2013   -2.0304   -2.2934 C.2     1  UNL1        0.3557
     17 O          -2.9038   -3.0746   -2.5130 O.2     1  UNL1       -0.2434
     18 O          -1.2401   -1.7517   -3.2293 O.3     1  UNL1       -0.4761
     19 C          -1.7121   -0.0519   -0.7928 C.ar    1  UNL1        0.0123
     20 C          -0.5831    0.5932   -1.4877 C.3     1  UNL1        0.0016
     21 C           0.7345    0.3744   -0.8389 C.ar    1  UNL1       -0.0429
     22 C           1.3711   -0.8257   -1.0344 C.ar    1  UNL1       -0.0577
     23 C           2.6025   -1.0328   -0.4511 C.ar    1  UNL1       -0.0537
     24 C           3.2277   -0.0598    0.3354 C.ar    1  UNL1       -0.0172
     25 C           4.5100   -0.3551    0.9248 C.ar    1  UNL1       -0.0072
     26 C           4.6377   -1.1820    2.0380 C.ar    1  UNL1       -0.0534
     27 C           5.8518   -1.4577    2.6052 C.ar    1  UNL1       -0.0611
     28 C           6.9982   -0.9139    2.0790 C.ar    1  UNL1       -0.0611
     29 C           6.9006   -0.0892    0.9734 C.ar    1  UNL1       -0.0504
     30 C           5.6471    0.1776    0.4112 C.ar    1  UNL1        0.0282
     31 C           5.6148    1.0334   -0.7433 C.ar    1  UNL1        0.1799
     32 N           4.5160    1.3733   -1.4237 N.ar    1  UNL1       -0.1084
     33 N           4.7880    2.1630   -2.4355 N.ar    1  UNL1       -0.0229
     34 N           6.1198    2.3278   -2.3899 N.ar    1  UNL1       -0.0464
     35 N           6.6258    1.6550   -1.3793 N.ar    1  UNL1       -0.2388
     36 C           2.5869    1.1554    0.5354 C.ar    1  UNL1       -0.0537
     37 C           1.3590    1.3535   -0.0504 C.ar    1  UNL1       -0.0577
     38 H          -4.0410    4.7681    0.2745 H       1  UNL1        0.0230
     39 H          -2.4219    5.4265   -0.1705 H       1  UNL1        0.0230
     40 H          -3.3068    6.0388    1.3284 H       1  UNL1        0.0230
     41 H          -1.3529    4.2756    1.6227 H       1  UNL1        0.0263
     42 H          -2.9404    3.9231    2.4195 H       1  UNL1        0.0263
     43 H          -3.7667    2.6259    0.6822 H       1  UNL1        0.0269
     44 H          -2.4318    2.9139   -0.4391 H       1  UNL1        0.0269
     45 H          -2.5739    1.4001    2.2210 H       1  UNL1        0.0329
     46 H          -0.9812    1.6952    1.4998 H       1  UNL1        0.0329
     47 H          -3.2533   -3.5992    1.3677 H       1  UNL1        0.0639
     48 H          -4.8802   -5.4877    1.4263 H       1  UNL1        0.0618
     49 H          -6.8035   -5.4330   -0.0737 H       1  UNL1        0.0618
     50 H          -7.1397   -3.5099   -1.6501 H       1  UNL1        0.0633
     51 H          -0.8745   -2.4167   -3.9034 H       1  UNL1        0.2955
     52 H          -0.7745    1.7096   -1.5802 H       1  UNL1        0.0363
     53 H          -0.4719    0.2798   -2.5502 H       1  UNL1        0.0363
     54 H           0.9079   -1.5829   -1.6316 H       1  UNL1        0.0621
     55 H           3.1065   -1.9936   -0.6114 H       1  UNL1        0.0624
     56 H           3.7377   -1.6166    2.4605 H       1  UNL1        0.0624
     57 H           5.9162   -2.0998    3.4644 H       1  UNL1        0.0618
     58 H           7.9893   -1.1077    2.4999 H       1  UNL1        0.0618
     59 H           7.7906    0.3556    0.5354 H       1  UNL1        0.0625
     60 H           7.6188    1.5800   -1.0785 H       1  UNL1        0.1923
     61 H           3.0481    1.9187    1.1359 H       1  UNL1        0.0624
     62 H           0.8606    2.3033    0.1044 H       1  UNL1        0.0621
@<TRIPOS>BOND
     1     1     2    1
     2     2     3    1
     3     3     4    1
     4     4     5    1
     5     5     6   ar
     6     6     7   ar
     7     7     8    1
     8     8     9   ar
     9     9    10   ar
    10    10    11   ar
    11    11    12   ar
    12    12    13   ar
    13    13    14    1
    14     7    15   ar
    15    15    16    1
    16    16    17    2
    17    16    18    1
    18    15    19   ar
    19    19    20    1
    20    20    21    1
    21    21    22   ar
    22    22    23   ar
    23    23    24   ar
    24    24    25    1
    25    25    26   ar
    26    26    27   ar
    27    27    28   ar
    28    28    29   ar
    29    29    30   ar
    30    30    31    1
    31    31    32   ar
    32    32    33   ar
    33    33    34   ar
    34    34    35   ar
    35    24    36   ar
    36    36    37   ar
    37    19     5   ar
    38    37    21   ar
    39    13     8   ar
    40    30    25   ar
    41    35    31   ar
    42     1    38    1
    43     1    39    1
    44     1    40    1
    45     2    41    1
    46     2    42    1
    47     3    43    1
    48     3    44    1
    49     4    45    1
    50     4    46    1
    51     9    47    1
    52    10    48    1
    53    11    49    1
    54    12    50    1
    55    18    51    1
    56    20    52    1
    57    20    53    1
    58    22    54    1
    59    23    55    1
    60    26    56    1
    61    27    57    1
    62    28    58    1
    63    29    59    1
    64    35    60    1
    65    36    61    1
    66    37    62    1
