@<TRIPOS>MOLECULE
*****
 70 74 0 0 0
SMALL
GASTEIGER

@<TRIPOS>ATOM
      1 C           8.3100   -4.2134   -0.6830 C.3     1  UNL1        0.0805
      2 O           7.4271   -3.1356   -0.4891 O.3     1  UNL1       -0.4774
      3 C           7.8736   -1.8290   -0.5983 C.ar    1  UNL1        0.2552
      4 N           9.1132   -1.4512   -0.8820 N.ar    1  UNL1       -0.1317
      5 N           9.1879   -0.1368   -0.9069 N.ar    1  UNL1       -0.2692
      6 C          10.3500    0.6538   -1.1762 C.3     1  UNL1        0.0304
      7 C           7.9568    0.3725   -0.6304 C.ar    1  UNL1        0.0503
      8 C           7.1023   -0.6745   -0.4301 C.ar    1  UNL1        0.1152
      9 N           5.7314   -0.7198   -0.1201 N.pl3   1  UNL1       -0.2782
     10 C           4.9228    0.4334    0.0595 C.ar    1  UNL1        0.2202
     11 N           5.4843    1.6447   -0.0607 N.ar    1  UNL1       -0.2224
     12 C           4.7255    2.7342    0.1069 C.ar    1  UNL1        0.0361
     13 C           3.3539    2.6360    0.4059 C.ar    1  UNL1       -0.0062
     14 C           2.6315    3.9101    0.5271 C.3     1  UNL1       -0.0362
     15 C           2.7935    1.4048    0.5275 C.ar    1  UNL1        0.0809
     16 C           1.3793    1.1871    0.8133 C.ar    1  UNL1        0.0258
     17 C           0.3793    2.0317    1.1867 C.ar    1  UNL1        0.0120
     18 N          -0.7591    1.3186    1.3716 N.ar    1  UNL1       -0.3586
     19 C          -0.5630    0.0230    1.1371 C.ar    1  UNL1        0.0686
     20 C          -1.4293   -1.0700    1.1970 C.ar    1  UNL1        0.0576
     21 N          -2.7734   -0.8088    1.5723 N.am    1  UNL1       -0.2825
     22 C          -3.7949   -0.5009    0.6312 C.2     1  UNL1        0.2342
     23 O          -3.4184   -0.4770   -0.5698 O.2     1  UNL1       -0.2738
     24 C          -5.1865   -0.2285    1.0046 C.3     1  UNL1        0.0848
     25 C          -5.1721    1.0382    1.8699 C.3     1  UNL1       -0.0409
     26 N          -6.0955    0.0042   -0.0605 N.3     1  UNL1       -0.2893
     27 C          -6.2548   -1.1170   -0.9245 C.3     1  UNL1        0.0124
     28 C          -7.4273   -1.0010   -1.8573 C.3     1  UNL1        0.0114
     29 N          -8.6211   -0.4804   -1.2759 N.3     1  UNL1       -0.3029
     30 C          -9.1150    0.7046   -1.9503 C.3     1  UNL1       -0.0127
     31 C          -8.5273   -0.2664    0.1335 C.3     1  UNL1        0.0114
     32 C          -7.3075    0.5678    0.4557 C.3     1  UNL1        0.0124
     33 C          -0.9117   -2.2886    0.8901 C.ar    1  UNL1       -0.0384
     34 C           0.4041   -2.4077    0.5411 C.ar    1  UNL1       -0.0593
     35 C           1.2782   -1.3151    0.4791 C.ar    1  UNL1       -0.0518
     36 C           0.7638   -0.0828    0.7874 C.ar    1  UNL1        0.0107
     37 N           3.6158    0.3480    0.3453 N.ar    1  UNL1       -0.2139
     38 H           8.1496   -4.9418    0.1406 H       1  UNL1        0.0660
     39 H           9.3709   -3.8631   -0.7050 H       1  UNL1        0.0660
     40 H           8.1017   -4.6449   -1.6844 H       1  UNL1        0.0660
     41 H          10.1933    1.3435   -2.0452 H       1  UNL1        0.0473
     42 H          10.5600    1.2930   -0.2998 H       1  UNL1        0.0473
     43 H          11.2281   -0.0014   -1.3167 H       1  UNL1        0.0473
     44 H           7.6958    1.4254   -0.5775 H       1  UNL1        0.0846
     45 H           5.2553   -1.6586   -0.0098 H       1  UNL1        0.1552
     46 H           5.2010    3.7123    0.0061 H       1  UNL1        0.0834
     47 H           1.7821    3.9040   -0.1833 H       1  UNL1        0.0279
     48 H           2.3641    4.1827    1.5605 H       1  UNL1        0.0279
     49 H           3.3015    4.7332    0.1229 H       1  UNL1        0.0279
     50 H           0.4623    3.0875    1.3322 H       1  UNL1        0.0814
     51 H          -1.6575    1.8016    1.6668 H       1  UNL1        0.1654
     52 H          -3.0345   -0.8413    2.5784 H       1  UNL1        0.1549
     53 H          -5.5846   -1.1008    1.5925 H       1  UNL1        0.0556
     54 H          -4.1372    1.3815    2.0731 H       1  UNL1        0.0249
     55 H          -5.6536    0.7871    2.8140 H       1  UNL1        0.0249
     56 H          -5.6647    1.8901    1.3408 H       1  UNL1        0.0249
     57 H          -6.2773   -2.0823   -0.3471 H       1  UNL1        0.0439
     58 H          -5.3536   -1.2050   -1.5690 H       1  UNL1        0.0439
     59 H          -7.1932   -0.4630   -2.7985 H       1  UNL1        0.0439
     60 H          -7.6639   -2.0558   -2.1867 H       1  UNL1        0.0439
     61 H          -8.2830    1.3511   -2.2974 H       1  UNL1        0.0391
     62 H          -9.7058    1.2995   -1.2196 H       1  UNL1        0.0391
     63 H          -9.8053    0.4380   -2.7709 H       1  UNL1        0.0391
     64 H          -9.4169    0.3419    0.4524 H       1  UNL1        0.0439
     65 H          -8.5475   -1.1969    0.7080 H       1  UNL1        0.0439
     66 H          -7.2536    0.6318    1.5604 H       1  UNL1        0.0439
     67 H          -7.3907    1.5981    0.0842 H       1  UNL1        0.0439
     68 H          -1.5959   -3.1325    0.9404 H       1  UNL1        0.0637
     69 H           0.8270   -3.3682    0.2953 H       1  UNL1        0.0618
     70 H           2.2985   -1.4544    0.1990 H       1  UNL1        0.0624
@<TRIPOS>BOND
     1     1     2    1
     2     2     3    1
     3     3     4   ar
     4     4     5   ar
     5     5     6    1
     6     5     7   ar
     7     7     8   ar
     8     8     9    1
     9     9    10    1
    10    10    11   ar
    11    11    12   ar
    12    12    13   ar
    13    13    14    1
    14    13    15   ar
    15    15    16    1
    16    16    17   ar
    17    17    18   ar
    18    18    19   ar
    19    19    20   ar
    20    20    21    1
    21    21    22   am
    22    22    23    2
    23    22    24    1
    24    24    25    1
    25    24    26    1
    26    26    27    1
    27    27    28    1
    28    28    29    1
    29    29    30    1
    30    29    31    1
    31    31    32    1
    32    20    33   ar
    33    33    34   ar
    34    34    35   ar
    35    35    36   ar
    36    15    37   ar
    37     8     3   ar
    38    37    10   ar
    39    36    16   ar
    40    36    19   ar
    41    32    26    1
    42     1    38    1
    43     1    39    1
    44     1    40    1
    45     6    41    1
    46     6    42    1
    47     6    43    1
    48     7    44    1
    49     9    45    1
    50    12    46    1
    51    14    47    1
    52    14    48    1
    53    14    49    1
    54    17    50    1
    55    18    51    1
    56    21    52    1
    57    24    53    1
    58    25    54    1
    59    25    55    1
    60    25    56    1
    61    27    57    1
    62    27    58    1
    63    28    59    1
    64    28    60    1
    65    30    61    1
    66    30    62    1
    67    30    63    1
    68    31    64    1
    69    31    65    1
    70    32    66    1
    71    32    67    1
    72    33    68    1
    73    34    69    1
    74    35    70    1
