
     RDKit          3D

 70 74  0  0  0  0  0  0  0  0999 V2000
    8.3100   -4.2134   -0.6830 C   0  0  0  0  0  0  0  0  0  0  0  0
    7.4271   -3.1356   -0.4891 O   0  0  0  0  0  0  0  0  0  0  0  0
    7.8736   -1.8290   -0.5983 C   0  0  0  0  0  0  0  0  0  0  0  0
    9.1132   -1.4512   -0.8820 N   0  0  0  0  0  0  0  0  0  0  0  0
    9.1879   -0.1368   -0.9069 N   0  0  0  0  0  0  0  0  0  0  0  0
   10.3500    0.6538   -1.1762 C   0  0  0  0  0  0  0  0  0  0  0  0
    7.9568    0.3725   -0.6304 C   0  0  0  0  0  0  0  0  0  0  0  0
    7.1023   -0.6745   -0.4301 C   0  0  0  0  0  0  0  0  0  0  0  0
    5.7314   -0.7198   -0.1201 N   0  0  0  0  0  0  0  0  0  0  0  0
    4.9228    0.4334    0.0595 C   0  0  0  0  0  0  0  0  0  0  0  0
    5.4843    1.6447   -0.0607 N   0  0  0  0  0  0  0  0  0  0  0  0
    4.7255    2.7342    0.1069 C   0  0  0  0  0  0  0  0  0  0  0  0
    3.3539    2.6360    0.4059 C   0  0  0  0  0  0  0  0  0  0  0  0
    2.6315    3.9101    0.5271 C   0  0  0  0  0  0  0  0  0  0  0  0
    2.7935    1.4048    0.5275 C   0  0  0  0  0  0  0  0  0  0  0  0
    1.3793    1.1871    0.8133 C   0  0  0  0  0  0  0  0  0  0  0  0
    0.3793    2.0317    1.1867 C   0  0  0  0  0  0  0  0  0  0  0  0
   -0.7591    1.3186    1.3716 N   0  0  0  0  0  0  0  0  0  0  0  0
   -0.5630    0.0230    1.1371 C   0  0  0  0  0  0  0  0  0  0  0  0
   -1.4293   -1.0700    1.1970 C   0  0  0  0  0  0  0  0  0  0  0  0
   -2.7734   -0.8088    1.5723 N   0  0  0  0  0  0  0  0  0  0  0  0
   -3.7949   -0.5009    0.6312 C   0  0  0  0  0  0  0  0  0  0  0  0
   -3.4184   -0.4770   -0.5698 O   0  0  0  0  0  0  0  0  0  0  0  0
   -5.1865   -0.2285    1.0046 C   0  0  1  0  0  0  0  0  0  0  0  0
   -5.1721    1.0382    1.8699 C   0  0  0  0  0  0  0  0  0  0  0  0
   -6.0955    0.0042   -0.0605 N   0  0  0  0  0  0  0  0  0  0  0  0
   -6.2548   -1.1170   -0.9245 C   0  0  0  0  0  0  0  0  0  0  0  0
   -7.4273   -1.0010   -1.8573 C   0  0  0  0  0  0  0  0  0  0  0  0
   -8.6211   -0.4804   -1.2759 N   0  0  0  0  0  0  0  0  0  0  0  0
   -9.1150    0.7046   -1.9503 C   0  0  0  0  0  0  0  0  0  0  0  0
   -8.5273   -0.2664    0.1335 C   0  0  0  0  0  0  0  0  0  0  0  0
   -7.3075    0.5678    0.4557 C   0  0  0  0  0  0  0  0  0  0  0  0
   -0.9117   -2.2886    0.8901 C   0  0  0  0  0  0  0  0  0  0  0  0
    0.4041   -2.4077    0.5411 C   0  0  0  0  0  0  0  0  0  0  0  0
    1.2782   -1.3151    0.4791 C   0  0  0  0  0  0  0  0  0  0  0  0
    0.7638   -0.0828    0.7874 C   0  0  0  0  0  0  0  0  0  0  0  0
    3.6158    0.3480    0.3453 N   0  0  0  0  0  0  0  0  0  0  0  0
    8.1496   -4.9418    0.1406 H   0  0  0  0  0  0  0  0  0  0  0  0
    9.3709   -3.8631   -0.7050 H   0  0  0  0  0  0  0  0  0  0  0  0
    8.1017   -4.6449   -1.6844 H   0  0  0  0  0  0  0  0  0  0  0  0
   10.1933    1.3435   -2.0452 H   0  0  0  0  0  0  0  0  0  0  0  0
   10.5600    1.2930   -0.2998 H   0  0  0  0  0  0  0  0  0  0  0  0
   11.2281   -0.0014   -1.3167 H   0  0  0  0  0  0  0  0  0  0  0  0
    7.6958    1.4254   -0.5775 H   0  0  0  0  0  0  0  0  0  0  0  0
    5.2553   -1.6586   -0.0098 H   0  0  0  0  0  0  0  0  0  0  0  0
    5.2010    3.7123    0.0061 H   0  0  0  0  0  0  0  0  0  0  0  0
    1.7821    3.9040   -0.1833 H   0  0  0  0  0  0  0  0  0  0  0  0
    2.3641    4.1827    1.5605 H   0  0  0  0  0  0  0  0  0  0  0  0
    3.3015    4.7332    0.1229 H   0  0  0  0  0  0  0  0  0  0  0  0
    0.4623    3.0875    1.3322 H   0  0  0  0  0  0  0  0  0  0  0  0
   -1.6575    1.8016    1.6668 H   0  0  0  0  0  0  0  0  0  0  0  0
   -3.0345   -0.8413    2.5784 H   0  0  0  0  0  0  0  0  0  0  0  0
   -5.5846   -1.1008    1.5925 H   0  0  0  0  0  0  0  0  0  0  0  0
   -4.1372    1.3815    2.0731 H   0  0  0  0  0  0  0  0  0  0  0  0
   -5.6536    0.7871    2.8140 H   0  0  0  0  0  0  0  0  0  0  0  0
   -5.6647    1.8901    1.3408 H   0  0  0  0  0  0  0  0  0  0  0  0
   -6.2773   -2.0823   -0.3471 H   0  0  0  0  0  0  0  0  0  0  0  0
   -5.3536   -1.2050   -1.5690 H   0  0  0  0  0  0  0  0  0  0  0  0
   -7.1932   -0.4630   -2.7985 H   0  0  0  0  0  0  0  0  0  0  0  0
   -7.6639   -2.0558   -2.1867 H   0  0  0  0  0  0  0  0  0  0  0  0
   -8.2830    1.3511   -2.2974 H   0  0  0  0  0  0  0  0  0  0  0  0
   -9.7058    1.2995   -1.2196 H   0  0  0  0  0  0  0  0  0  0  0  0
   -9.8053    0.4380   -2.7709 H   0  0  0  0  0  0  0  0  0  0  0  0
   -9.4169    0.3419    0.4524 H   0  0  0  0  0  0  0  0  0  0  0  0
   -8.5475   -1.1969    0.7080 H   0  0  0  0  0  0  0  0  0  0  0  0
   -7.2536    0.6318    1.5604 H   0  0  0  0  0  0  0  0  0  0  0  0
   -7.3907    1.5981    0.0842 H   0  0  0  0  0  0  0  0  0  0  0  0
   -1.5959   -3.1325    0.9404 H   0  0  0  0  0  0  0  0  0  0  0  0
    0.8270   -3.3682    0.2953 H   0  0  0  0  0  0  0  0  0  0  0  0
    2.2985   -1.4544    0.1990 H   0  0  0  0  0  0  0  0  0  0  0  0
  1  2  1  0
  2  3  1  0
  3  4  2  0
  4  5  1  0
  5  6  1  0
  5  7  1  0
  7  8  2  0
  8  9  1  0
  9 10  1  0
 10 11  2  0
 11 12  1  0
 12 13  2  0
 13 14  1  0
 13 15  1  0
 15 16  1  0
 16 17  2  0
 17 18  1  0
 18 19  1  0
 19 20  2  0
 20 21  1  0
 21 22  1  0
 22 23  2  0
 22 24  1  0
 24 25  1  0
 24 26  1  0
 26 27  1  0
 27 28  1  0
 28 29  1  0
 29 30  1  0
 29 31  1  0
 31 32  1  0
 20 33  1  0
 33 34  2  0
 34 35  1  0
 35 36  2  0
 15 37  2  0
  8  3  1  0
 37 10  1  0
 36 16  1  0
 36 19  1  0
 32 26  1  0
  1 38  1  0
  1 39  1  0
  1 40  1  0
  6 41  1  0
  6 42  1  0
  6 43  1  0
  7 44  1  0
  9 45  1  0
 12 46  1  0
 14 47  1  0
 14 48  1  0
 14 49  1  0
 17 50  1  0
 18 51  1  0
 21 52  1  0
 24 53  1  1
 25 54  1  0
 25 55  1  0
 25 56  1  0
 27 57  1  0
 27 58  1  0
 28 59  1  0
 28 60  1  0
 30 61  1  0
 30 62  1  0
 30 63  1  0
 31 64  1  0
 31 65  1  0
 32 66  1  0
 32 67  1  0
 33 68  1  0
 34 69  1  0
 35 70  1  0
M  END
$$$$
