
     RDKit          3D

 58 61  0  0  0  0  0  0  0  0999 V2000
    6.6568    1.4489   -1.4309 C   0  0  0  0  0  0  0  0  0  0  0  0
    5.3400    1.4972   -2.0121 N   0  0  0  0  0  0  0  0  0  0  0  0
    4.8986    0.2052   -2.5135 C   0  0  0  0  0  0  0  0  0  0  0  0
    3.3782    0.0871   -2.4223 C   0  0  0  0  0  0  0  0  0  0  0  0
    3.0507   -0.1484   -0.9618 C   0  0  0  0  0  0  0  0  0  0  0  0
    1.6921    0.2494   -0.6500 N   0  0  0  0  0  0  0  0  0  0  0  0
    0.7220   -0.7039   -0.1127 C   0  0  0  0  0  0  0  0  0  0  0  0
    1.2451   -1.8277    0.0081 O   0  0  0  0  0  0  0  0  0  0  0  0
   -0.6087   -0.2833    0.1833 C   0  0  0  0  0  0  0  0  0  0  0  0
   -0.8138    1.0755    0.4840 C   0  0  0  0  0  0  0  0  0  0  0  0
   -2.0096    1.5658    0.8482 N   0  0  0  0  0  0  0  0  0  0  0  0
   -3.0610    0.7610    0.9380 C   0  0  0  0  0  0  0  0  0  0  0  0
   -4.3419    1.2607    1.3233 N   0  0  0  0  0  0  0  0  0  0  0  0
   -4.6567    2.5903    1.5811 C   0  0  0  0  0  0  0  0  0  0  0  0
   -3.8655    3.6483    1.2270 C   0  0  0  0  0  0  0  0  0  0  0  0
   -4.2699    4.9469    1.5526 C   0  0  0  0  0  0  0  0  0  0  0  0
   -3.2409    6.2770    1.0890 Cl  0  0  0  0  0  0  0  0  0  0  0  0
   -5.4301    5.2249    2.2149 C   0  0  0  0  0  0  0  0  0  0  0  0
   -6.2210    4.1540    2.5673 C   0  0  0  0  0  0  0  0  0  0  0  0
   -7.7162    4.4956    3.4190 Cl  0  0  0  0  0  0  0  0  0  0  0  0
   -5.8437    2.8822    2.2592 C   0  0  0  0  0  0  0  0  0  0  0  0
   -2.9062   -0.5370    0.6598 N   0  0  0  0  0  0  0  0  0  0  0  0
   -1.6844   -1.1065    0.2734 C   0  0  0  0  0  0  0  0  0  0  0  0
   -1.7722   -2.4648   -0.0214 N   0  0  0  0  0  0  0  0  0  0  0  0
   -0.9226   -3.4655   -0.4515 C   0  0  2  0  0  0  0  0  0  0  0  0
   -1.7721   -4.6702   -1.0441 C   0  0  0  0  0  0  0  0  0  0  0  0
   -2.2191   -5.3626    0.0314 O   0  0  0  0  0  0  0  0  0  0  0  0
   -1.5755   -4.9929    1.1829 C   0  0  0  0  0  0  0  0  0  0  0  0
   -0.3128   -4.3117    0.6722 C   0  0  1  0  0  0  0  0  0  0  0  0
    0.5282   -5.2812    0.1945 O   0  0  0  0  0  0  0  0  0  0  0  0
    3.9488    0.7736   -0.1521 C   0  0  0  0  0  0  0  0  0  0  0  0
    4.4207    1.9583   -0.9685 C   0  0  0  0  0  0  0  0  0  0  0  0
    7.3269    2.0920   -2.0348 H   0  0  0  0  0  0  0  0  0  0  0  0
    6.6818    1.8888   -0.3929 H   0  0  0  0  0  0  0  0  0  0  0  0
    7.0584    0.4085   -1.3455 H   0  0  0  0  0  0  0  0  0  0  0  0
    5.3162   -0.5910   -1.8609 H   0  0  0  0  0  0  0  0  0  0  0  0
    5.2681    0.0583   -3.5411 H   0  0  0  0  0  0  0  0  0  0  0  0
    3.0937   -0.7434   -3.0740 H   0  0  0  0  0  0  0  0  0  0  0  0
    2.9176    1.0055   -2.8108 H   0  0  0  0  0  0  0  0  0  0  0  0
    3.2214   -1.2038   -0.7450 H   0  0  0  0  0  0  0  0  0  0  0  0
    1.3760    1.2116   -0.8131 H   0  0  0  0  0  0  0  0  0  0  0  0
    0.0506    1.7195    0.4215 H   0  0  0  0  0  0  0  0  0  0  0  0
   -5.1415    0.5546    1.4208 H   0  0  0  0  0  0  0  0  0  0  0  0
   -2.9386    3.5508    0.6936 H   0  0  0  0  0  0  0  0  0  0  0  0
   -5.7408    6.2435    2.4662 H   0  0  0  0  0  0  0  0  0  0  0  0
   -6.4929    2.0691    2.5546 H   0  0  0  0  0  0  0  0  0  0  0  0
   -2.8016   -2.8471    0.1360 H   0  0  0  0  0  0  0  0  0  0  0  0
   -0.2417   -3.2450   -1.2495 H   0  0  0  0  0  0  0  0  0  0  0  0
   -1.1321   -5.2895   -1.6689 H   0  0  0  0  0  0  0  0  0  0  0  0
   -2.6017   -4.2650   -1.6350 H   0  0  0  0  0  0  0  0  0  0  0  0
   -2.1844   -4.3069    1.8011 H   0  0  0  0  0  0  0  0  0  0  0  0
   -1.2208   -5.8747    1.7578 H   0  0  0  0  0  0  0  0  0  0  0  0
    0.0931   -3.6888    1.4833 H   0  0  0  0  0  0  0  0  0  0  0  0
    0.7160   -5.1577   -0.7667 H   0  0  0  0  0  0  0  0  0  0  0  0
    3.4195    1.2015    0.7296 H   0  0  0  0  0  0  0  0  0  0  0  0
    4.7904    0.1873    0.2164 H   0  0  0  0  0  0  0  0  0  0  0  0
    3.5652    2.4470   -1.4326 H   0  0  0  0  0  0  0  0  0  0  0  0
    4.9639    2.6289   -0.2784 H   0  0  0  0  0  0  0  0  0  0  0  0
  1  2  1  0
  2  3  1  0
  3  4  1  0
  4  5  1  0
  5  6  1  0
  6  7  1  0
  7  8  2  0
  7  9  1  0
  9 10  2  0
 10 11  1  0
 11 12  2  0
 12 13  1  0
 13 14  1  0
 14 15  2  0
 15 16  1  0
 16 17  1  0
 16 18  2  0
 18 19  1  0
 19 20  1  0
 19 21  2  0
 12 22  1  0
 22 23  2  0
 23 24  1  0
 24 25  1  0
 25 26  1  0
 26 27  1  0
 27 28  1  0
 28 29  1  0
 29 30  1  0
  5 31  1  0
 31 32  1  0
 32  2  1  0
 23  9  1  0
 29 25  1  0
 21 14  1  0
  1 33  1  0
  1 34  1  0
  1 35  1  0
  3 36  1  0
  3 37  1  0
  4 38  1  0
  4 39  1  0
  5 40  1  0
  6 41  1  0
 10 42  1  0
 13 43  1  0
 15 44  1  0
 18 45  1  0
 21 46  1  0
 24 47  1  0
 25 48  1  6
 26 49  1  0
 26 50  1  0
 28 51  1  0
 28 52  1  0
 29 53  1  1
 30 54  1  0
 31 55  1  0
 31 56  1  0
 32 57  1  0
 32 58  1  0
M  END
$$$$
