@<TRIPOS>MOLECULE
*****
 58 61 0 0 0
SMALL
GASTEIGER

@<TRIPOS>ATOM
      1 C           6.6568    1.4489   -1.4309 C.3     1  UNL1       -0.0128
      2 N           5.3400    1.4972   -2.0121 N.3     1  UNL1       -0.3052
      3 C           4.8986    0.2052   -2.5135 C.3     1  UNL1        0.0003
      4 C           3.3782    0.0871   -2.4223 C.3     1  UNL1       -0.0216
      5 C           3.0507   -0.1484   -0.9618 C.3     1  UNL1        0.0257
      6 N           1.6921    0.2494   -0.6500 N.am    1  UNL1       -0.3083
      7 C           0.7220   -0.7039   -0.1127 C.2     1  UNL1        0.2491
      8 O           1.2451   -1.8277    0.0081 O.2     1  UNL1       -0.2700
      9 C          -0.6087   -0.2833    0.1833 C.ar    1  UNL1        0.0945
     10 C          -0.8138    1.0755    0.4840 C.ar    1  UNL1        0.0466
     11 N          -2.0096    1.5658    0.8482 N.ar    1  UNL1       -0.2218
     12 C          -3.0610    0.7610    0.9380 C.ar    1  UNL1        0.2212
     13 N          -4.3419    1.2607    1.3233 N.pl3   1  UNL1       -0.2835
     14 C          -4.6567    2.5903    1.5811 C.ar    1  UNL1        0.0363
     15 C          -3.8655    3.6483    1.2270 C.ar    1  UNL1       -0.0220
     16 C          -4.2699    4.9469    1.5526 C.ar    1  UNL1        0.0441
     17 CL         -3.2409    6.2770    1.0890 Cl      1  UNL1       -0.0834
     18 C          -5.4301    5.2249    2.2149 C.ar    1  UNL1       -0.0249
     19 C          -6.2210    4.1540    2.5673 C.ar    1  UNL1        0.0441
     20 CL         -7.7162    4.4956    3.4190 Cl      1  UNL1       -0.0834
     21 C          -5.8437    2.8822    2.2592 C.ar    1  UNL1       -0.0220
     22 N          -2.9062   -0.5370    0.6598 N.ar    1  UNL1       -0.1987
     23 C          -1.6844   -1.1065    0.2734 C.ar    1  UNL1        0.1364
     24 N          -1.7722   -2.4648   -0.0214 N.pl3   1  UNL1       -0.3207
     25 C          -0.9226   -3.4655   -0.4515 C.3     1  UNL1        0.0733
     26 C          -1.7721   -4.6702   -1.0441 C.3     1  UNL1        0.0686
     27 O          -2.2191   -5.3626    0.0314 O.3     1  UNL1       -0.3752
     28 C          -1.5755   -4.9929    1.1829 C.3     1  UNL1        0.0755
     29 C          -0.3128   -4.3117    0.6722 C.3     1  UNL1        0.0988
     30 O           0.5282   -5.2812    0.1945 O.3     1  UNL1       -0.3876
     31 C           3.9488    0.7736   -0.1521 C.3     1  UNL1       -0.0216
     32 C           4.4207    1.9583   -0.9685 C.3     1  UNL1        0.0003
     33 H           7.3269    2.0920   -2.0348 H       1  UNL1        0.0391
     34 H           6.6818    1.8888   -0.3929 H       1  UNL1        0.0391
     35 H           7.0584    0.4085   -1.3455 H       1  UNL1        0.0391
     36 H           5.3162   -0.5910   -1.8609 H       1  UNL1        0.0427
     37 H           5.2681    0.0583   -3.5411 H       1  UNL1        0.0427
     38 H           3.0937   -0.7434   -3.0740 H       1  UNL1        0.0295
     39 H           2.9176    1.0055   -2.8108 H       1  UNL1        0.0295
     40 H           3.2214   -1.2038   -0.7450 H       1  UNL1        0.0499
     41 H           1.3760    1.2116   -0.8131 H       1  UNL1        0.1493
     42 H           0.0506    1.7195    0.4215 H       1  UNL1        0.0839
     43 H          -5.1415    0.5546    1.4208 H       1  UNL1        0.1550
     44 H          -2.9386    3.5508    0.6936 H       1  UNL1        0.0651
     45 H          -5.7408    6.2435    2.4662 H       1  UNL1        0.0647
     46 H          -6.4929    2.0691    2.5546 H       1  UNL1        0.0651
     47 H          -2.8016   -2.8471    0.1360 H       1  UNL1        0.1479
     48 H          -0.2417   -3.2450   -1.2495 H       1  UNL1        0.0547
     49 H          -1.1321   -5.2895   -1.6689 H       1  UNL1        0.0579
     50 H          -2.6017   -4.2650   -1.6350 H       1  UNL1        0.0579
     51 H          -2.1844   -4.3069    1.8011 H       1  UNL1        0.0586
     52 H          -1.2208   -5.8747    1.7578 H       1  UNL1        0.0586
     53 H           0.0931   -3.6888    1.4833 H       1  UNL1        0.0635
     54 H           0.7160   -5.1577   -0.7667 H       1  UNL1        0.2100
     55 H           3.4195    1.2015    0.7296 H       1  UNL1        0.0295
     56 H           4.7904    0.1873    0.2164 H       1  UNL1        0.0295
     57 H           3.5652    2.4470   -1.4326 H       1  UNL1        0.0427
     58 H           4.9639    2.6289   -0.2784 H       1  UNL1        0.0427
@<TRIPOS>BOND
     1     1     2    1
     2     2     3    1
     3     3     4    1
     4     4     5    1
     5     5     6    1
     6     6     7   am
     7     7     8    2
     8     7     9    1
     9     9    10   ar
    10    10    11   ar
    11    11    12   ar
    12    12    13    1
    13    13    14    1
    14    14    15   ar
    15    15    16   ar
    16    16    17    1
    17    16    18   ar
    18    18    19   ar
    19    19    20    1
    20    19    21   ar
    21    12    22   ar
    22    22    23   ar
    23    23    24    1
    24    24    25    1
    25    25    26    1
    26    26    27    1
    27    27    28    1
    28    28    29    1
    29    29    30    1
    30     5    31    1
    31    31    32    1
    32    32     2    1
    33    23     9   ar
    34    29    25    1
    35    21    14   ar
    36     1    33    1
    37     1    34    1
    38     1    35    1
    39     3    36    1
    40     3    37    1
    41     4    38    1
    42     4    39    1
    43     5    40    1
    44     6    41    1
    45    10    42    1
    46    13    43    1
    47    15    44    1
    48    18    45    1
    49    21    46    1
    50    24    47    1
    51    25    48    1
    52    26    49    1
    53    26    50    1
    54    28    51    1
    55    28    52    1
    56    29    53    1
    57    30    54    1
    58    31    55    1
    59    31    56    1
    60    32    57    1
    61    32    58    1
