@<TRIPOS>MOLECULE
*****
 42 44 0 0 0
SMALL
GASTEIGER

@<TRIPOS>ATOM
      1 C           6.0506    1.0267   -0.1481 C.3     1  UNL1        0.0790
      2 O           5.3004   -0.1435   -0.2597 O.3     1  UNL1       -0.4914
      3 C           3.9279   -0.2125   -0.0558 C.ar    1  UNL1        0.1630
      4 C           3.1824    0.8986    0.2784 C.ar    1  UNL1       -0.0159
      5 C           1.8028    0.7708    0.4734 C.ar    1  UNL1       -0.0523
      6 C           1.1346   -0.4045    0.3514 C.ar    1  UNL1       -0.0115
      7 C          -0.2874   -0.6599    0.5495 C.3     1  UNL1        0.0230
      8 N          -1.1537    0.4387    0.6995 N.3     1  UNL1       -0.3086
      9 C          -1.3877    1.2780   -0.4251 C.3     1  UNL1        0.0154
     10 C          -2.0038    0.7635   -1.6808 C.3     1  UNL1       -0.0287
     11 C          -2.7794    1.7043   -0.7807 C.3     1  UNL1        0.0010
     12 C          -3.9310    1.1310   -0.0518 C.ar    1  UNL1       -0.0428
     13 C          -3.9503   -0.1841    0.3432 C.ar    1  UNL1       -0.0583
     14 C          -5.0305   -0.7274    1.0389 C.ar    1  UNL1       -0.0615
     15 C          -6.1147    0.0948    1.3365 C.ar    1  UNL1       -0.0617
     16 C          -6.1150    1.4108    0.9507 C.ar    1  UNL1       -0.0615
     17 C          -5.0111    1.9144    0.2548 C.ar    1  UNL1       -0.0583
     18 C           1.9065   -1.5265    0.0105 C.ar    1  UNL1        0.0905
     19 CL          1.1550   -3.1075   -0.1744 Cl      1  UNL1       -0.0793
     20 C           3.2682   -1.4156   -0.1845 C.ar    1  UNL1        0.1801
     21 O           4.0553   -2.5255   -0.5246 O.3     1  UNL1       -0.4901
     22 C           4.6694   -3.3555    0.4404 C.3     1  UNL1        0.0790
     23 H           7.1177    0.8054    0.1504 H       1  UNL1        0.0660
     24 H           6.0875    1.6090   -1.0990 H       1  UNL1        0.0660
     25 H           5.6637    1.6486    0.6981 H       1  UNL1        0.0660
     26 H           3.6705    1.8638    0.3883 H       1  UNL1        0.0655
     27 H           1.2522    1.6456    0.7380 H       1  UNL1        0.0622
     28 H          -0.3707   -1.2760    1.4939 H       1  UNL1        0.0474
     29 H          -0.6557   -1.3549   -0.2420 H       1  UNL1        0.0474
     30 H          -1.1670    0.8783    1.6235 H       1  UNL1        0.1225
     31 H          -0.6269    2.0658   -0.6002 H       1  UNL1        0.0466
     32 H          -2.3593   -0.2882   -1.7558 H       1  UNL1        0.0287
     33 H          -1.6978    1.1654   -2.6757 H       1  UNL1        0.0287
     34 H          -2.9212    2.7472   -1.1512 H       1  UNL1        0.0364
     35 H          -3.1171   -0.8315    0.1152 H       1  UNL1        0.0620
     36 H          -5.0481   -1.7627    1.3516 H       1  UNL1        0.0618
     37 H          -6.9511   -0.3514    1.8822 H       1  UNL1        0.0618
     38 H          -6.9624    2.0363    1.1886 H       1  UNL1        0.0618
     39 H          -5.0912    2.9637   -0.0134 H       1  UNL1        0.0620
     40 H           4.2881   -3.0333    1.4319 H       1  UNL1        0.0660
     41 H           4.4043   -4.4168    0.2423 H       1  UNL1        0.0660
     42 H           5.7957   -3.2832    0.4025 H       1  UNL1        0.0660
@<TRIPOS>BOND
     1     1     2    1
     2     2     3    1
     3     3     4   ar
     4     4     5   ar
     5     5     6   ar
     6     6     7    1
     7     7     8    1
     8     8     9    1
     9     9    10    1
    10    10    11    1
    11    11    12    1
    12    12    13   ar
    13    13    14   ar
    14    14    15   ar
    15    15    16   ar
    16    16    17   ar
    17     6    18   ar
    18    18    19    1
    19    18    20   ar
    20    20    21    1
    21    21    22    1
    22    20     3   ar
    23    11     9    1
    24    17    12   ar
    25     1    23    1
    26     1    24    1
    27     1    25    1
    28     4    26    1
    29     5    27    1
    30     7    28    1
    31     7    29    1
    32     8    30    1
    33     9    31    1
    34    10    32    1
    35    10    33    1
    36    11    34    1
    37    13    35    1
    38    14    36    1
    39    15    37    1
    40    16    38    1
    41    17    39    1
    42    22    40    1
    43    22    41    1
    44    22    42    1
