@<TRIPOS>MOLECULE
*****
 57 60 0 0 0
SMALL
GASTEIGER

@<TRIPOS>ATOM
      1 O          -0.5092    1.2255    0.8843 O.2     1  UNL1       -0.2667
      2 C          -1.0610    0.4137    0.1201 C.2     1  UNL1        0.2825
      3 N          -0.5089    0.1408   -1.1467 N.am    1  UNL1       -0.3024
      4 C           0.6542    0.6947   -1.7509 C.3     1  UNL1        0.0437
      5 C           1.7946   -0.2195   -1.8018 C.2     1  UNL1       -0.0460
      6 C           2.4512   -0.6551   -0.7299 C.2     1  UNL1        0.0552
      7 S           3.8151   -1.7541   -0.8597 S.O2    1  UNL1        0.0182
      8 O           5.0554   -1.0544   -1.3294 O.2     1  UNL1       -0.1649
      9 O           3.5184   -2.8368   -1.8837 O.2     1  UNL1       -0.1649
     10 C           4.1539   -2.5132    0.6794 C.ar    1  UNL1        0.0929
     11 C           3.5160   -3.7035    0.9527 C.ar    1  UNL1       -0.0365
     12 C           3.7464   -4.3412    2.1454 C.ar    1  UNL1       -0.0599
     13 C           4.6068   -3.8051    3.0701 C.ar    1  UNL1       -0.0616
     14 C           5.2381   -2.6073    2.7755 C.ar    1  UNL1       -0.0599
     15 C           5.0258   -1.9448    1.5858 C.ar    1  UNL1       -0.0365
     16 C           1.0878    2.0487   -1.2048 C.3     1  UNL1       -0.0269
     17 C           0.0701    3.1297   -1.4275 C.3     1  UNL1       -0.0257
     18 C           0.5004    4.4299   -0.8610 C.ar    1  UNL1       -0.0473
     19 C           1.2224    5.3098   -1.6341 C.ar    1  UNL1       -0.0586
     20 C           1.6356    6.5253   -1.1363 C.ar    1  UNL1       -0.0615
     21 C           1.3440    6.9120    0.1560 C.ar    1  UNL1       -0.0617
     22 C           0.6185    6.0100    0.9095 C.ar    1  UNL1       -0.0615
     23 C           0.1960    4.7882    0.4281 C.ar    1  UNL1       -0.0586
     24 C          -2.2915   -0.2204    0.6180 C.ar    1  UNL1        0.2220
     25 C          -3.0144   -1.1278   -0.0935 C.ar    1  UNL1        0.0177
     26 C          -4.1056   -1.5100    0.6862 C.ar    1  UNL1        0.1155
     27 C          -5.1166   -2.4674    0.2764 C.ar    1  UNL1        0.0217
     28 C          -6.1483   -2.7632    1.1367 C.ar    1  UNL1       -0.0496
     29 C          -7.0980   -3.6834    0.7126 C.ar    1  UNL1       -0.0430
     30 C          -7.0315   -4.2893   -0.5163 C.ar    1  UNL1        0.0276
     31 N          -6.0140   -3.9829   -1.3374 N.ar    1  UNL1       -0.2626
     32 C          -5.0692   -3.0798   -0.9385 C.ar    1  UNL1        0.0368
     33 N          -3.9772   -0.8144    1.8159 N.ar    1  UNL1       -0.0774
     34 O          -2.8988   -0.0636    1.7457 O.2     1  UNL1       -0.3494
     35 H          -1.0847   -0.5948   -1.6966 H       1  UNL1        0.1497
     36 H           0.3960    1.0029   -2.8468 H       1  UNL1        0.0543
     37 H           2.1913   -0.6148   -2.7588 H       1  UNL1        0.0603
     38 H           2.1225   -0.3130    0.2445 H       1  UNL1        0.0821
     39 H           2.8235   -4.1741    0.2557 H       1  UNL1        0.0637
     40 H           3.2304   -5.2866    2.3449 H       1  UNL1        0.0618
     41 H           4.7833   -4.3220    4.0180 H       1  UNL1        0.0618
     42 H           5.9156   -2.2160    3.5407 H       1  UNL1        0.0618
     43 H           5.5239   -1.0137    1.3712 H       1  UNL1        0.0637
     44 H           2.0036    2.3906   -1.7875 H       1  UNL1        0.0289
     45 H           1.3813    1.9378   -0.1562 H       1  UNL1        0.0289
     46 H          -0.9121    2.8735   -1.0359 H       1  UNL1        0.0314
     47 H          -0.0787    3.3110   -2.5314 H       1  UNL1        0.0314
     48 H           1.4648    5.0219   -2.6637 H       1  UNL1        0.0620
     49 H           2.2032    7.2259   -1.7320 H       1  UNL1        0.0618
     50 H           1.6734    7.8786    0.5493 H       1  UNL1        0.0618
     51 H           0.3743    6.2799    1.9201 H       1  UNL1        0.0618
     52 H          -0.3820    4.0964    1.0638 H       1  UNL1        0.0620
     53 H          -2.8102   -1.5073   -1.0865 H       1  UNL1        0.0679
     54 H          -6.2723   -2.3359    2.1091 H       1  UNL1        0.0625
     55 H          -7.9140   -3.9295    1.3700 H       1  UNL1        0.0633
     56 H          -7.7554   -5.0109   -0.8780 H       1  UNL1        0.0829
     57 H          -4.2844   -2.8910   -1.6611 H       1  UNL1        0.0836
@<TRIPOS>BOND
     1     1     2    2
     2     2     3   am
     3     3     4    1
     4     4     5    1
     5     5     6    2
     6     6     7    1
     7     7     8    2
     8     7     9    2
     9     7    10    1
    10    10    11   ar
    11    11    12   ar
    12    12    13   ar
    13    13    14   ar
    14    14    15   ar
    15     4    16    1
    16    16    17    1
    17    17    18    1
    18    18    19   ar
    19    19    20   ar
    20    20    21   ar
    21    21    22   ar
    22    22    23   ar
    23     2    24    1
    24    24    25   ar
    25    25    26   ar
    26    26    27    1
    27    27    28   ar
    28    28    29   ar
    29    29    30   ar
    30    30    31   ar
    31    31    32   ar
    32    26    33   ar
    33    33    34   ar
    34    15    10   ar
    35    23    18   ar
    36    34    24   ar
    37    32    27   ar
    38     3    35    1
    39     4    36    1
    40     5    37    1
    41     6    38    1
    42    11    39    1
    43    12    40    1
    44    13    41    1
    45    14    42    1
    46    15    43    1
    47    16    44    1
    48    16    45    1
    49    17    46    1
    50    17    47    1
    51    19    48    1
    52    20    49    1
    53    21    50    1
    54    22    51    1
    55    23    52    1
    56    25    53    1
    57    28    54    1
    58    29    55    1
    59    30    56    1
    60    32    57    1
