
     RDKit          3D

 57 60  0  0  0  0  0  0  0  0999 V2000
   -0.5092    1.2255    0.8843 O   0  0  0  0  0  0  0  0  0  0  0  0
   -1.0610    0.4137    0.1201 C   0  0  0  0  0  0  0  0  0  0  0  0
   -0.5089    0.1408   -1.1467 N   0  0  0  0  0  0  0  0  0  0  0  0
    0.6542    0.6947   -1.7509 C   0  0  2  0  0  0  0  0  0  0  0  0
    1.7946   -0.2195   -1.8018 C   0  0  0  0  0  0  0  0  0  0  0  0
    2.4512   -0.6551   -0.7299 C   0  0  0  0  0  0  0  0  0  0  0  0
    3.8151   -1.7541   -0.8597 S   0  0  0  0  0  6  0  0  0  0  0  0
    5.0554   -1.0544   -1.3294 O   0  0  0  0  0  0  0  0  0  0  0  0
    3.5184   -2.8368   -1.8837 O   0  0  0  0  0  0  0  0  0  0  0  0
    4.1539   -2.5132    0.6794 C   0  0  0  0  0  0  0  0  0  0  0  0
    3.5160   -3.7035    0.9527 C   0  0  0  0  0  0  0  0  0  0  0  0
    3.7464   -4.3412    2.1454 C   0  0  0  0  0  0  0  0  0  0  0  0
    4.6068   -3.8051    3.0701 C   0  0  0  0  0  0  0  0  0  0  0  0
    5.2381   -2.6073    2.7755 C   0  0  0  0  0  0  0  0  0  0  0  0
    5.0258   -1.9448    1.5858 C   0  0  0  0  0  0  0  0  0  0  0  0
    1.0878    2.0487   -1.2048 C   0  0  0  0  0  0  0  0  0  0  0  0
    0.0701    3.1297   -1.4275 C   0  0  0  0  0  0  0  0  0  0  0  0
    0.5004    4.4299   -0.8610 C   0  0  0  0  0  0  0  0  0  0  0  0
    1.2224    5.3098   -1.6341 C   0  0  0  0  0  0  0  0  0  0  0  0
    1.6356    6.5253   -1.1363 C   0  0  0  0  0  0  0  0  0  0  0  0
    1.3440    6.9120    0.1560 C   0  0  0  0  0  0  0  0  0  0  0  0
    0.6185    6.0100    0.9095 C   0  0  0  0  0  0  0  0  0  0  0  0
    0.1960    4.7882    0.4281 C   0  0  0  0  0  0  0  0  0  0  0  0
   -2.2915   -0.2204    0.6180 C   0  0  0  0  0  0  0  0  0  0  0  0
   -3.0144   -1.1278   -0.0935 C   0  0  0  0  0  0  0  0  0  0  0  0
   -4.1056   -1.5100    0.6862 C   0  0  0  0  0  0  0  0  0  0  0  0
   -5.1166   -2.4674    0.2764 C   0  0  0  0  0  0  0  0  0  0  0  0
   -6.1483   -2.7632    1.1367 C   0  0  0  0  0  0  0  0  0  0  0  0
   -7.0980   -3.6834    0.7126 C   0  0  0  0  0  0  0  0  0  0  0  0
   -7.0315   -4.2893   -0.5163 C   0  0  0  0  0  0  0  0  0  0  0  0
   -6.0140   -3.9829   -1.3374 N   0  0  0  0  0  0  0  0  0  0  0  0
   -5.0692   -3.0798   -0.9385 C   0  0  0  0  0  0  0  0  0  0  0  0
   -3.9772   -0.8144    1.8159 N   0  0  0  0  0  0  0  0  0  0  0  0
   -2.8988   -0.0636    1.7457 O   0  0  0  0  0  0  0  0  0  0  0  0
   -1.0847   -0.5948   -1.6966 H   0  0  0  0  0  0  0  0  0  0  0  0
    0.3960    1.0029   -2.8468 H   0  0  0  0  0  0  0  0  0  0  0  0
    2.1913   -0.6148   -2.7588 H   0  0  0  0  0  0  0  0  0  0  0  0
    2.1225   -0.3130    0.2445 H   0  0  0  0  0  0  0  0  0  0  0  0
    2.8235   -4.1741    0.2557 H   0  0  0  0  0  0  0  0  0  0  0  0
    3.2304   -5.2866    2.3449 H   0  0  0  0  0  0  0  0  0  0  0  0
    4.7833   -4.3220    4.0180 H   0  0  0  0  0  0  0  0  0  0  0  0
    5.9156   -2.2160    3.5407 H   0  0  0  0  0  0  0  0  0  0  0  0
    5.5239   -1.0137    1.3712 H   0  0  0  0  0  0  0  0  0  0  0  0
    2.0036    2.3906   -1.7875 H   0  0  0  0  0  0  0  0  0  0  0  0
    1.3813    1.9378   -0.1562 H   0  0  0  0  0  0  0  0  0  0  0  0
   -0.9121    2.8735   -1.0359 H   0  0  0  0  0  0  0  0  0  0  0  0
   -0.0787    3.3110   -2.5314 H   0  0  0  0  0  0  0  0  0  0  0  0
    1.4648    5.0219   -2.6637 H   0  0  0  0  0  0  0  0  0  0  0  0
    2.2032    7.2259   -1.7320 H   0  0  0  0  0  0  0  0  0  0  0  0
    1.6734    7.8786    0.5493 H   0  0  0  0  0  0  0  0  0  0  0  0
    0.3743    6.2799    1.9201 H   0  0  0  0  0  0  0  0  0  0  0  0
   -0.3820    4.0964    1.0638 H   0  0  0  0  0  0  0  0  0  0  0  0
   -2.8102   -1.5073   -1.0865 H   0  0  0  0  0  0  0  0  0  0  0  0
   -6.2723   -2.3359    2.1091 H   0  0  0  0  0  0  0  0  0  0  0  0
   -7.9140   -3.9295    1.3700 H   0  0  0  0  0  0  0  0  0  0  0  0
   -7.7554   -5.0109   -0.8780 H   0  0  0  0  0  0  0  0  0  0  0  0
   -4.2844   -2.8910   -1.6611 H   0  0  0  0  0  0  0  0  0  0  0  0
  1  2  2  0
  2  3  1  0
  3  4  1  0
  4  5  1  0
  5  6  2  0
  6  7  1  0
  7  8  2  0
  7  9  2  0
  7 10  1  0
 10 11  2  0
 11 12  1  0
 12 13  2  0
 13 14  1  0
 14 15  2  0
  4 16  1  0
 16 17  1  0
 17 18  1  0
 18 19  2  0
 19 20  1  0
 20 21  2  0
 21 22  1  0
 22 23  2  0
  2 24  1  0
 24 25  2  0
 25 26  1  0
 26 27  1  0
 27 28  2  0
 28 29  1  0
 29 30  2  0
 30 31  1  0
 31 32  2  0
 26 33  2  0
 33 34  1  0
 15 10  1  0
 23 18  1  0
 34 24  1  0
 32 27  1  0
  3 35  1  0
  4 36  1  6
  5 37  1  0
  6 38  1  0
 11 39  1  0
 12 40  1  0
 13 41  1  0
 14 42  1  0
 15 43  1  0
 16 44  1  0
 16 45  1  0
 17 46  1  0
 17 47  1  0
 19 48  1  0
 20 49  1  0
 21 50  1  0
 22 51  1  0
 23 52  1  0
 25 53  1  0
 28 54  1  0
 29 55  1  0
 30 56  1  0
 32 57  1  0
M  END
$$$$
