
     RDKit          3D

 59 62  0  0  0  0  0  0  0  0999 V2000
   -3.8855    3.4601   -0.9689 C   0  0  0  0  0  0  0  0  0  0  0  0
   -3.6126    2.0959   -1.5609 C   0  0  0  0  0  0  0  0  0  0  0  0
   -4.1888    1.0085   -0.8479 N   0  0  0  0  0  0  0  0  0  0  0  0
   -5.6092    0.9468   -0.8935 C   0  0  0  0  0  0  0  0  0  0  0  0
   -6.1107   -0.1947   -0.1177 C   0  0  0  0  0  0  0  0  0  0  0  0
   -6.4308   -0.0102    1.2104 C   0  0  0  0  0  0  0  0  0  0  0  0
   -6.9041   -1.0342    1.9981 C   0  0  0  0  0  0  0  0  0  0  0  0
   -7.0743   -2.2908    1.4753 C   0  0  0  0  0  0  0  0  0  0  0  0
   -6.7653   -2.5041    0.1617 C   0  0  0  0  0  0  0  0  0  0  0  0
   -6.2869   -1.4624   -0.6283 C   0  0  0  0  0  0  0  0  0  0  0  0
   -3.5767    0.8559    0.4276 C   0  0  0  0  0  0  0  0  0  0  0  0
   -2.1294    0.5740    0.2368 C   0  0  0  0  0  0  0  0  0  0  0  0
   -1.6706   -0.7216    0.0662 C   0  0  0  0  0  0  0  0  0  0  0  0
   -0.3689   -1.0544   -0.1014 C   0  0  0  0  0  0  0  0  0  0  0  0
    0.5844   -0.0584   -0.1069 C   0  0  0  0  0  0  0  0  0  0  0  0
    1.9837   -0.4196   -0.2879 C   0  0  0  0  0  0  0  0  0  0  0  0
    2.9980    0.1067    0.4782 C   0  0  0  0  0  0  0  0  0  0  0  0
    4.3013   -0.2889    0.2413 C   0  0  0  0  0  0  0  0  0  0  0  0
    5.3525    0.2124    0.9844 C   0  0  0  0  0  0  0  0  0  0  0  0
    6.6505   -0.1642    0.7682 C   0  0  0  0  0  0  0  0  0  0  0  0
    7.7213    0.3339    1.5109 O   0  0  0  0  0  0  0  0  0  0  0  0
    7.4599    1.2680    2.5313 C   0  0  0  0  0  0  0  0  0  0  0  0
    6.9131   -1.0881   -0.2411 C   0  0  0  0  0  0  0  0  0  0  0  0
    8.2014   -1.4960   -0.4946 O   0  0  0  0  0  0  0  0  0  0  0  0
    8.4647   -2.4257   -1.5104 C   0  0  0  0  0  0  0  0  0  0  0  0
    5.8824   -1.6010   -0.9943 C   0  0  0  0  0  0  0  0  0  0  0  0
    4.5695   -1.2092   -0.7633 C   0  0  0  0  0  0  0  0  0  0  0  0
    3.5908   -1.6845   -1.4653 O   0  0  0  0  0  0  0  0  0  0  0  0
    2.3567   -1.3301   -1.2640 C   0  0  0  0  0  0  0  0  0  0  0  0
    1.4811   -1.8592   -2.0105 O   0  0  0  0  0  0  0  0  0  0  0  0
    0.1850    1.2700    0.0606 C   0  0  0  0  0  0  0  0  0  0  0  0
   -1.1706    1.5632    0.2302 C   0  0  0  0  0  0  0  0  0  0  0  0
   -3.1705    4.1662   -1.4848 H   0  0  0  0  0  0  0  0  0  0  0  0
   -3.6555    3.5243    0.0961 H   0  0  0  0  0  0  0  0  0  0  0  0
   -4.9031    3.8255   -1.2085 H   0  0  0  0  0  0  0  0  0  0  0  0
   -2.5218    2.0202   -1.7316 H   0  0  0  0  0  0  0  0  0  0  0  0
   -4.0361    2.1331   -2.6182 H   0  0  0  0  0  0  0  0  0  0  0  0
   -5.8889    0.8066   -1.9797 H   0  0  0  0  0  0  0  0  0  0  0  0
   -6.1011    1.8976   -0.5989 H   0  0  0  0  0  0  0  0  0  0  0  0
   -6.3136    0.9698    1.6737 H   0  0  0  0  0  0  0  0  0  0  0  0
   -7.1488   -0.8715    3.0308 H   0  0  0  0  0  0  0  0  0  0  0  0
   -7.4534   -3.1036    2.1137 H   0  0  0  0  0  0  0  0  0  0  0  0
   -6.9035   -3.5069   -0.2469 H   0  0  0  0  0  0  0  0  0  0  0  0
   -6.0487   -1.6493   -1.6630 H   0  0  0  0  0  0  0  0  0  0  0  0
   -3.9971    0.0176    1.0282 H   0  0  0  0  0  0  0  0  0  0  0  0
   -3.6636    1.7535    1.0852 H   0  0  0  0  0  0  0  0  0  0  0  0
   -2.4351   -1.4981    0.0727 H   0  0  0  0  0  0  0  0  0  0  0  0
   -0.0316   -2.0689   -0.2327 H   0  0  0  0  0  0  0  0  0  0  0  0
    2.7809    0.8268    1.2633 H   0  0  0  0  0  0  0  0  0  0  0  0
    5.1400    0.9416    1.7803 H   0  0  0  0  0  0  0  0  0  0  0  0
    7.1246    2.2477    2.1252 H   0  0  0  0  0  0  0  0  0  0  0  0
    8.3813    1.4444    3.1395 H   0  0  0  0  0  0  0  0  0  0  0  0
    6.6802    0.9387    3.2427 H   0  0  0  0  0  0  0  0  0  0  0  0
    7.7998   -3.2943   -1.5299 H   0  0  0  0  0  0  0  0  0  0  0  0
    9.5166   -2.7981   -1.3921 H   0  0  0  0  0  0  0  0  0  0  0  0
    8.4386   -1.8539   -2.4807 H   0  0  0  0  0  0  0  0  0  0  0  0
    6.0257   -2.3232   -1.7938 H   0  0  0  0  0  0  0  0  0  0  0  0
    0.9336    2.0477    0.0560 H   0  0  0  0  0  0  0  0  0  0  0  0
   -1.4606    2.6083    0.3606 H   0  0  0  0  0  0  0  0  0  0  0  0
  1  2  1  0
  2  3  1  0
  3  4  1  0
  4  5  1  0
  5  6  2  0
  6  7  1  0
  7  8  2  0
  8  9  1  0
  9 10  2  0
  3 11  1  0
 11 12  1  0
 12 13  2  0
 13 14  1  0
 14 15  2  0
 15 16  1  0
 16 17  2  0
 17 18  1  0
 18 19  2  0
 19 20  1  0
 20 21  1  0
 21 22  1  0
 20 23  2  0
 23 24  1  0
 24 25  1  0
 23 26  1  0
 26 27  2  0
 27 28  1  0
 28 29  1  0
 29 30  2  0
 15 31  1  0
 31 32  2  0
 10  5  1  0
 32 12  1  0
 29 16  1  0
 27 18  1  0
  1 33  1  0
  1 34  1  0
  1 35  1  0
  2 36  1  0
  2 37  1  0
  4 38  1  0
  4 39  1  0
  6 40  1  0
  7 41  1  0
  8 42  1  0
  9 43  1  0
 10 44  1  0
 11 45  1  0
 11 46  1  0
 13 47  1  0
 14 48  1  0
 17 49  1  0
 19 50  1  0
 22 51  1  0
 22 52  1  0
 22 53  1  0
 25 54  1  0
 25 55  1  0
 25 56  1  0
 26 57  1  0
 31 58  1  0
 32 59  1  0
M  END
$$$$
