@<TRIPOS>MOLECULE
*****
 59 62 0 0 0
SMALL
GASTEIGER

@<TRIPOS>ATOM
      1 C          -3.8855    3.4601   -0.9689 C.3     1  UNL1       -0.0523
      2 C          -3.6126    2.0959   -1.5609 C.3     1  UNL1       -0.0033
      3 N          -4.1888    1.0085   -0.8479 N.3     1  UNL1       -0.2943
      4 C          -5.6092    0.9468   -0.8935 C.3     1  UNL1        0.0244
      5 C          -6.1107   -0.1947   -0.1177 C.ar    1  UNL1       -0.0334
      6 C          -6.4308   -0.0102    1.2104 C.ar    1  UNL1       -0.0573
      7 C          -6.9041   -1.0342    1.9981 C.ar    1  UNL1       -0.0615
      8 C          -7.0743   -2.2908    1.4753 C.ar    1  UNL1       -0.0617
      9 C          -6.7653   -2.5041    0.1617 C.ar    1  UNL1       -0.0615
     10 C          -6.2869   -1.4624   -0.6283 C.ar    1  UNL1       -0.0573
     11 C          -3.5767    0.8559    0.4276 C.3     1  UNL1        0.0244
     12 C          -2.1294    0.5740    0.2368 C.ar    1  UNL1       -0.0333
     13 C          -1.6706   -0.7216    0.0662 C.ar    1  UNL1       -0.0568
     14 C          -0.3689   -1.0544   -0.1014 C.ar    1  UNL1       -0.0535
     15 C           0.5844   -0.0584   -0.1069 C.ar    1  UNL1       -0.0110
     16 C           1.9837   -0.4196   -0.2879 C.ar    1  UNL1        0.0672
     17 C           2.9980    0.1067    0.4782 C.ar    1  UNL1       -0.0364
     18 C           4.3013   -0.2889    0.2413 C.ar    1  UNL1        0.0219
     19 C           5.3525    0.2124    0.9844 C.ar    1  UNL1       -0.0056
     20 C           6.6505   -0.1642    0.7682 C.ar    1  UNL1        0.1623
     21 O           7.7213    0.3339    1.5109 O.3     1  UNL1       -0.4914
     22 C           7.4599    1.2680    2.5313 C.3     1  UNL1        0.0790
     23 C           6.9131   -1.0881   -0.2411 C.ar    1  UNL1        0.1650
     24 O           8.2014   -1.4960   -0.4946 O.3     1  UNL1       -0.4913
     25 C           8.4647   -2.4257   -1.5104 C.3     1  UNL1        0.0790
     26 C           5.8824   -1.6010   -0.9943 C.ar    1  UNL1        0.0267
     27 C           4.5695   -1.2092   -0.7633 C.ar    1  UNL1        0.1428
     28 O           3.5908   -1.6845   -1.4653 O.2     1  UNL1       -0.4216
     29 C           2.3567   -1.3301   -1.2640 C.ar    1  UNL1        0.3451
     30 O           1.4811   -1.8592   -2.0105 O.2     1  UNL1       -0.2445
     31 C           0.1850    1.2700    0.0606 C.ar    1  UNL1       -0.0535
     32 C          -1.1706    1.5632    0.2302 C.ar    1  UNL1       -0.0568
     33 H          -3.1705    4.1662   -1.4848 H       1  UNL1        0.0242
     34 H          -3.6555    3.5243    0.0961 H       1  UNL1        0.0242
     35 H          -4.9031    3.8255   -1.2085 H       1  UNL1        0.0242
     36 H          -2.5218    2.0202   -1.7316 H       1  UNL1        0.0424
     37 H          -4.0361    2.1331   -2.6182 H       1  UNL1        0.0424
     38 H          -5.8889    0.8066   -1.9797 H       1  UNL1        0.0476
     39 H          -6.1011    1.8976   -0.5989 H       1  UNL1        0.0476
     40 H          -6.3136    0.9698    1.6737 H       1  UNL1        0.0621
     41 H          -7.1488   -0.8715    3.0308 H       1  UNL1        0.0618
     42 H          -7.4534   -3.1036    2.1137 H       1  UNL1        0.0618
     43 H          -6.9035   -3.5069   -0.2469 H       1  UNL1        0.0618
     44 H          -6.0487   -1.6493   -1.6630 H       1  UNL1        0.0621
     45 H          -3.9971    0.0176    1.0282 H       1  UNL1        0.0476
     46 H          -3.6636    1.7535    1.0852 H       1  UNL1        0.0476
     47 H          -2.4351   -1.4981    0.0727 H       1  UNL1        0.0621
     48 H          -0.0316   -2.0689   -0.2327 H       1  UNL1        0.0624
     49 H           2.7809    0.8268    1.2633 H       1  UNL1        0.0633
     50 H           5.1400    0.9416    1.7803 H       1  UNL1        0.0662
     51 H           7.1246    2.2477    2.1252 H       1  UNL1        0.0660
     52 H           8.3813    1.4444    3.1395 H       1  UNL1        0.0660
     53 H           6.6802    0.9387    3.2427 H       1  UNL1        0.0660
     54 H           7.7998   -3.2943   -1.5299 H       1  UNL1        0.0660
     55 H           9.5166   -2.7981   -1.3921 H       1  UNL1        0.0660
     56 H           8.4386   -1.8539   -2.4807 H       1  UNL1        0.0660
     57 H           6.0257   -2.3232   -1.7938 H       1  UNL1        0.0692
     58 H           0.9336    2.0477    0.0560 H       1  UNL1        0.0624
     59 H          -1.4606    2.6083    0.3606 H       1  UNL1        0.0621
@<TRIPOS>BOND
     1     1     2    1
     2     2     3    1
     3     3     4    1
     4     4     5    1
     5     5     6   ar
     6     6     7   ar
     7     7     8   ar
     8     8     9   ar
     9     9    10   ar
    10     3    11    1
    11    11    12    1
    12    12    13   ar
    13    13    14   ar
    14    14    15   ar
    15    15    16    1
    16    16    17   ar
    17    17    18   ar
    18    18    19   ar
    19    19    20   ar
    20    20    21    1
    21    21    22    1
    22    20    23   ar
    23    23    24    1
    24    24    25    1
    25    23    26   ar
    26    26    27   ar
    27    27    28   ar
    28    28    29   ar
    29    29    30    2
    30    15    31   ar
    31    31    32   ar
    32    10     5   ar
    33    32    12   ar
    34    29    16   ar
    35    27    18   ar
    36     1    33    1
    37     1    34    1
    38     1    35    1
    39     2    36    1
    40     2    37    1
    41     4    38    1
    42     4    39    1
    43     6    40    1
    44     7    41    1
    45     8    42    1
    46     9    43    1
    47    10    44    1
    48    11    45    1
    49    11    46    1
    50    13    47    1
    51    14    48    1
    52    17    49    1
    53    19    50    1
    54    22    51    1
    55    22    52    1
    56    22    53    1
    57    25    54    1
    58    25    55    1
    59    25    56    1
    60    26    57    1
    61    31    58    1
    62    32    59    1
