@<TRIPOS>MOLECULE
*****
 17 16 0 0 0
SMALL
GASTEIGER

@<TRIPOS>ATOM
      1 C          -1.2700   -0.7902   -0.8458 C.3     1  UNL1       -0.0532
      2 C          -1.0471   -0.0976    0.4640 C.3     1  UNL1        0.0068
      3 C          -2.1599    0.9409    0.6349 C.3     1  UNL1       -0.0532
      4 S           0.5014    0.7882    0.5762 S.3     1  UNL1       -0.0885
      5 C           1.9340   -0.2771    0.5434 C.2     1  UNL1        0.1441
      6 N           3.0197    0.6400    0.6464 N.pl3   1  UNL1       -0.3382
      7 N           2.4086   -1.4962    0.4663 N.2     1  UNL1       -0.2801
      8 H          -2.2387   -1.3473   -0.7472 H       1  UNL1        0.0240
      9 H          -1.3609   -0.0934   -1.7036 H       1  UNL1        0.0240
     10 H          -0.4713   -1.5525   -0.9668 H       1  UNL1        0.0240
     11 H          -1.2039   -0.8403    1.2732 H       1  UNL1        0.0411
     12 H          -1.9894    1.8265   -0.0424 H       1  UNL1        0.0240
     13 H          -3.1590    0.5211    0.3447 H       1  UNL1        0.0240
     14 H          -2.1637    1.3307    1.6698 H       1  UNL1        0.0240
     15 H           3.8991    1.2134    0.6915 H       1  UNL1        0.1442
     16 H           3.6511    1.4666    0.7709 H       1  UNL1        0.1442
     17 H           1.6501   -2.2329    0.3842 H       1  UNL1        0.1886
@<TRIPOS>BOND
     1     1     2    1
     2     2     3    1
     3     2     4    1
     4     4     5    1
     5     5     6    1
     6     5     7    2
     7     1     8    1
     8     1     9    1
     9     1    10    1
    10     2    11    1
    11     3    12    1
    12     3    13    1
    13     3    14    1
    14     6    15    1
    15     6    16    1
    16     7    17    1
