@<TRIPOS>MOLECULE
*****
 75 78 0 0 0
SMALL
GASTEIGER

@<TRIPOS>ATOM
      1 C          -3.2758   -4.5725   -0.6245 C.3     1  UNL1       -0.0652
      2 C          -3.7262   -3.7728   -1.8236 C.3     1  UNL1       -0.0545
      3 C          -3.1271   -2.3866   -1.7256 C.3     1  UNL1       -0.0374
      4 C          -3.5765   -1.6831   -0.4613 C.3     1  UNL1        0.0158
      5 N          -3.0013   -0.3589   -0.3728 N.am    1  UNL1       -0.2855
      6 C          -3.7456    0.7025   -0.9603 C.2     1  UNL1        0.2393
      7 O          -4.6116    0.4365   -1.8251 O.2     1  UNL1       -0.2734
      8 C          -3.5214    2.0985   -0.5761 C.3     1  UNL1        0.1259
      9 C          -4.7472    2.9432   -0.5257 C.3     1  UNL1        0.0843
     10 O          -4.3588    4.2738   -0.4153 O.3     1  UNL1       -0.3892
     11 C          -5.7300    2.6342    0.5291 C.3     1  UNL1       -0.0184
     12 C          -5.2490    2.7318    1.9375 C.3     1  UNL1       -0.0602
     13 C          -6.4414    1.3099    0.3601 C.3     1  UNL1       -0.0602
     14 N          -2.6804    2.2163    0.5958 N.am    1  UNL1       -0.3001
     15 C          -1.9232    1.1310    1.0946 C.2     1  UNL1        0.2375
     16 O          -1.4242    1.2317    2.2415 O.2     1  UNL1       -0.2734
     17 C          -1.7172   -0.1022    0.2898 C.3     1  UNL1        0.1156
     18 C          -0.6096    0.1584   -0.7222 C.3     1  UNL1       -0.0100
     19 C           0.6187    0.4701    0.1109 C.3     1  UNL1        0.0016
     20 N           1.0327   -0.6106    0.9261 N.3     1  UNL1       -0.2980
     21 C           1.8426   -1.6113    0.3247 C.3     1  UNL1        0.0240
     22 C           3.1025   -1.0232   -0.1893 C.ar    1  UNL1       -0.0331
     23 C           3.2519   -0.5793   -1.4919 C.ar    1  UNL1       -0.0539
     24 C           4.4130   -0.0251   -1.9820 C.ar    1  UNL1       -0.0190
     25 C           5.5052    0.1052   -1.1432 C.ar    1  UNL1        0.1285
     26 O           6.6915    0.6655   -1.6241 O.3     1  UNL1       -0.4560
     27 C           7.7528    0.7778   -0.7595 C.ar    1  UNL1        0.1284
     28 C           7.9120    1.9131    0.0042 C.ar    1  UNL1       -0.0193
     29 C           8.9689    2.0266    0.8659 C.ar    1  UNL1       -0.0583
     30 C           9.8905    1.0032    0.9812 C.ar    1  UNL1       -0.0615
     31 C           9.7485   -0.1429    0.2244 C.ar    1  UNL1       -0.0583
     32 C           8.6728   -0.2264   -0.6346 C.ar    1  UNL1       -0.0193
     33 C           5.3821   -0.3270    0.1502 C.ar    1  UNL1       -0.0190
     34 C           4.2222   -0.8798    0.6377 C.ar    1  UNL1       -0.0539
     35 C          -0.0046   -1.1374    1.7813 C.3     1  UNL1        0.0016
     36 C          -1.3243   -1.2833    1.1054 C.3     1  UNL1       -0.0100
     37 H          -2.2552   -4.2666   -0.3600 H       1  UNL1        0.0230
     38 H          -3.9335   -4.2503    0.2288 H       1  UNL1        0.0230
     39 H          -3.4025   -5.6581   -0.7828 H       1  UNL1        0.0230
     40 H          -3.4226   -4.2186   -2.7797 H       1  UNL1        0.0263
     41 H          -4.8462   -3.6311   -1.8155 H       1  UNL1        0.0263
     42 H          -2.0345   -2.3977   -1.8326 H       1  UNL1        0.0280
     43 H          -3.5402   -1.8175   -2.6062 H       1  UNL1        0.0280
     44 H          -4.6853   -1.6613   -0.4726 H       1  UNL1        0.0465
     45 H          -3.2984   -2.3184    0.4070 H       1  UNL1        0.0465
     46 H          -2.8901    2.5375   -1.4109 H       1  UNL1        0.0621
     47 H          -5.2577    2.8546   -1.5081 H       1  UNL1        0.0619
     48 H          -4.1061    4.4293    0.5282 H       1  UNL1        0.2099
     49 H          -6.5502    3.4113    0.4320 H       1  UNL1        0.0321
     50 H          -6.1217    2.4262    2.5885 H       1  UNL1        0.0233
     51 H          -4.4469    2.0253    2.1984 H       1  UNL1        0.0233
     52 H          -5.0307    3.7783    2.2178 H       1  UNL1        0.0233
     53 H          -6.9541    1.2261   -0.6269 H       1  UNL1        0.0233
     54 H          -5.8396    0.4448    0.6320 H       1  UNL1        0.0233
     55 H          -7.2922    1.3357    1.1055 H       1  UNL1        0.0233
     56 H          -2.6378    3.1321    1.0789 H       1  UNL1        0.1496
     57 H          -0.8134    1.0341   -1.3578 H       1  UNL1        0.0303
     58 H          -0.3796   -0.7549   -1.2942 H       1  UNL1        0.0303
     59 H           1.4238    0.7637   -0.5797 H       1  UNL1        0.0427
     60 H           0.3832    1.3932    0.7090 H       1  UNL1        0.0427
     61 H           1.2834   -2.0024   -0.5691 H       1  UNL1        0.0476
     62 H           2.1184   -2.4374    0.9906 H       1  UNL1        0.0476
     63 H           2.4314   -0.6606   -2.1926 H       1  UNL1        0.0622
     64 H           4.4881    0.3134   -3.0202 H       1  UNL1        0.0654
     65 H           7.1831    2.7170   -0.0902 H       1  UNL1        0.0654
     66 H           9.0734    2.9291    1.4560 H       1  UNL1        0.0619
     67 H          10.7271    1.0887    1.6612 H       1  UNL1        0.0618
     68 H          10.4666   -0.9572    0.3047 H       1  UNL1        0.0619
     69 H           8.5661   -1.1305   -1.2279 H       1  UNL1        0.0654
     70 H           6.2660   -0.2074    0.7815 H       1  UNL1        0.0654
     71 H           4.1599   -1.2105    1.6647 H       1  UNL1        0.0622
     72 H          -0.0357   -0.5792    2.7384 H       1  UNL1        0.0427
     73 H           0.3361   -2.1760    2.0682 H       1  UNL1        0.0427
     74 H          -2.0885   -1.4553    1.9073 H       1  UNL1        0.0303
     75 H          -1.2566   -2.1564    0.4211 H       1  UNL1        0.0303
@<TRIPOS>BOND
     1     1     2    1
     2     2     3    1
     3     3     4    1
     4     4     5    1
     5     5     6   am
     6     6     7    2
     7     6     8    1
     8     8     9    1
     9     9    10    1
    10     9    11    1
    11    11    12    1
    12    11    13    1
    13     8    14    1
    14    14    15   am
    15    15    16    2
    16    15    17    1
    17    17    18    1
    18    18    19    1
    19    19    20    1
    20    20    21    1
    21    21    22    1
    22    22    23   ar
    23    23    24   ar
    24    24    25   ar
    25    25    26    1
    26    26    27    1
    27    27    28   ar
    28    28    29   ar
    29    29    30   ar
    30    30    31   ar
    31    31    32   ar
    32    25    33   ar
    33    33    34   ar
    34    20    35    1
    35    35    36    1
    36    17     5    1
    37    34    22   ar
    38    36    17    1
    39    32    27   ar
    40     1    37    1
    41     1    38    1
    42     1    39    1
    43     2    40    1
    44     2    41    1
    45     3    42    1
    46     3    43    1
    47     4    44    1
    48     4    45    1
    49     8    46    1
    50     9    47    1
    51    10    48    1
    52    11    49    1
    53    12    50    1
    54    12    51    1
    55    12    52    1
    56    13    53    1
    57    13    54    1
    58    13    55    1
    59    14    56    1
    60    18    57    1
    61    18    58    1
    62    19    59    1
    63    19    60    1
    64    21    61    1
    65    21    62    1
    66    23    63    1
    67    24    64    1
    68    28    65    1
    69    29    66    1
    70    30    67    1
    71    31    68    1
    72    32    69    1
    73    33    70    1
    74    34    71    1
    75    35    72    1
    76    35    73    1
    77    36    74    1
    78    36    75    1
