
     RDKit          3D

 58 61  0  0  0  0  0  0  0  0999 V2000
    6.0519   -0.4265    1.9815 C   0  0  0  0  0  0  0  0  0  0  0  0
    6.2507   -0.7352    0.5131 C   0  0  0  0  0  0  0  0  0  0  0  0
    6.1269    0.4543   -0.3714 C   0  0  0  0  0  0  0  0  0  0  0  0
    4.8356    1.1741   -0.3803 C   0  0  0  0  0  0  0  0  0  0  0  0
    3.6748    0.4932   -0.7928 N   0  0  0  0  0  0  0  0  0  0  0  0
    3.1444   -0.5399    0.0084 C   0  0  0  0  0  0  0  0  0  0  0  0
    1.6139   -0.4531   -0.1126 C   0  0  0  0  0  0  0  0  0  0  0  0
    1.2254   -0.1310   -1.5285 C   0  0  0  0  0  0  0  0  0  0  0  0
    0.0410   -0.9730   -1.9428 C   0  0  0  0  0  0  0  0  0  0  0  0
   -1.1138   -0.7690   -1.1277 N   0  0  0  0  0  0  0  0  0  0  0  0
   -1.8036    0.4592   -0.9440 C   0  0  0  0  0  0  0  0  0  0  0  0
   -1.3367    1.4497   -1.5687 O   0  0  0  0  0  0  0  0  0  0  0  0
   -2.9735    0.5718   -0.0910 C   0  0  0  0  0  0  0  0  0  0  0  0
   -3.6187   -0.4151    0.6637 C   0  0  0  0  0  0  0  0  0  0  0  0
   -3.3703   -1.7590    0.8372 O   0  0  0  0  0  0  0  0  0  0  0  0
   -4.4243   -2.7004    0.8465 C   0  0  0  0  0  0  0  0  0  0  0  0
   -5.7130   -2.0671    1.2922 C   0  0  0  0  0  0  0  0  0  0  0  0
   -5.3776   -0.8678    2.1199 C   0  0  0  0  0  0  0  0  0  0  0  0
   -4.6712    0.0974    1.3233 N   0  0  0  0  0  0  0  0  0  0  0  0
   -4.7121    1.4002    1.0034 C   0  0  0  0  0  0  0  0  0  0  0  0
   -5.6335    2.3411    1.4480 C   0  0  0  0  0  0  0  0  0  0  0  0
   -5.5366    3.6554    1.0203 C   0  0  0  0  0  0  0  0  0  0  0  0
   -4.5154    3.9661    0.1628 C   0  0  0  0  0  0  0  0  0  0  0  0
   -3.5852    3.0514   -0.2956 C   0  0  0  0  0  0  0  0  0  0  0  0
   -3.6759    1.7385    0.1270 C   0  0  0  0  0  0  0  0  0  0  0  0
    2.3546   -0.5379   -2.4841 C   0  0  0  0  0  0  0  0  0  0  0  0
    3.5963    0.2465   -2.2146 C   0  0  0  0  0  0  0  0  0  0  0  0
    5.7748    0.6360    2.1427 H   0  0  0  0  0  0  0  0  0  0  0  0
    5.2490   -1.0575    2.4127 H   0  0  0  0  0  0  0  0  0  0  0  0
    6.9606   -0.5915    2.5878 H   0  0  0  0  0  0  0  0  0  0  0  0
    5.6785   -1.6197    0.2390 H   0  0  0  0  0  0  0  0  0  0  0  0
    7.3339   -1.0619    0.4276 H   0  0  0  0  0  0  0  0  0  0  0  0
    6.9151    1.1818   -0.0072 H   0  0  0  0  0  0  0  0  0  0  0  0
    6.4814    0.1741   -1.3855 H   0  0  0  0  0  0  0  0  0  0  0  0
    4.9529    2.0564   -1.0813 H   0  0  0  0  0  0  0  0  0  0  0  0
    4.6273    1.6535    0.6025 H   0  0  0  0  0  0  0  0  0  0  0  0
    3.3786   -1.5667   -0.3456 H   0  0  0  0  0  0  0  0  0  0  0  0
    3.3506   -0.3571    1.0666 H   0  0  0  0  0  0  0  0  0  0  0  0
    1.3111    0.3725    0.5693 H   0  0  0  0  0  0  0  0  0  0  0  0
    1.2155   -1.4146    0.2556 H   0  0  0  0  0  0  0  0  0  0  0  0
    1.0750    0.9544   -1.6965 H   0  0  0  0  0  0  0  0  0  0  0  0
    0.3525   -2.0337   -1.8800 H   0  0  0  0  0  0  0  0  0  0  0  0
   -0.1598   -0.7527   -3.0200 H   0  0  0  0  0  0  0  0  0  0  0  0
   -1.5372   -1.5805   -0.5856 H   0  0  0  0  0  0  0  0  0  0  0  0
   -4.5270   -3.1205   -0.1785 H   0  0  0  0  0  0  0  0  0  0  0  0
   -4.1279   -3.5090    1.5476 H   0  0  0  0  0  0  0  0  0  0  0  0
   -6.3287   -2.8042    1.8471 H   0  0  0  0  0  0  0  0  0  0  0  0
   -6.3060   -1.7764    0.4112 H   0  0  0  0  0  0  0  0  0  0  0  0
   -6.3096   -0.4408    2.5607 H   0  0  0  0  0  0  0  0  0  0  0  0
   -4.7499   -1.2351    2.9780 H   0  0  0  0  0  0  0  0  0  0  0  0
   -6.4368    2.0648    2.1311 H   0  0  0  0  0  0  0  0  0  0  0  0
   -6.2511    4.4044    1.3596 H   0  0  0  0  0  0  0  0  0  0  0  0
   -4.4445    4.9998   -0.1700 H   0  0  0  0  0  0  0  0  0  0  0  0
   -2.7987    3.3221   -0.9654 H   0  0  0  0  0  0  0  0  0  0  0  0
    2.4995   -1.6234   -2.5034 H   0  0  0  0  0  0  0  0  0  0  0  0
    1.9926   -0.2478   -3.4997 H   0  0  0  0  0  0  0  0  0  0  0  0
    4.4573   -0.3420   -2.5918 H   0  0  0  0  0  0  0  0  0  0  0  0
    3.5169    1.2277   -2.7216 H   0  0  0  0  0  0  0  0  0  0  0  0
  1  2  1  0
  2  3  1  0
  3  4  1  0
  4  5  1  0
  5  6  1  0
  6  7  1  0
  7  8  1  0
  8  9  1  0
  9 10  1  0
 10 11  1  0
 11 12  2  0
 11 13  1  0
 13 14  2  0
 14 15  1  0
 15 16  1  0
 16 17  1  0
 17 18  1  0
 18 19  1  0
 19 20  1  0
 20 21  2  0
 21 22  1  0
 22 23  2  0
 23 24  1  0
 24 25  2  0
  8 26  1  0
 26 27  1  0
 27  5  1  0
 25 13  1  0
 19 14  1  0
 25 20  1  0
  1 28  1  0
  1 29  1  0
  1 30  1  0
  2 31  1  0
  2 32  1  0
  3 33  1  0
  3 34  1  0
  4 35  1  0
  4 36  1  0
  6 37  1  0
  6 38  1  0
  7 39  1  0
  7 40  1  0
  8 41  1  0
  9 42  1  0
  9 43  1  0
 10 44  1  0
 16 45  1  0
 16 46  1  0
 17 47  1  0
 17 48  1  0
 18 49  1  0
 18 50  1  0
 21 51  1  0
 22 52  1  0
 23 53  1  0
 24 54  1  0
 26 55  1  0
 26 56  1  0
 27 57  1  0
 27 58  1  0
M  END
$$$$
