
     RDKit          3D

 34 35  0  0  0  0  0  0  0  0999 V2000
   -4.0856    0.0562    0.1892 C   0  0  0  0  0  0  0  0  0  0  0  0
   -2.8868   -0.7725    0.2685 N   0  0  0  0  0  0  0  0  0  0  0  0
   -3.0265   -2.1980    0.5023 C   0  0  0  0  0  0  0  0  0  0  0  0
   -1.5912   -0.2334    0.1248 C   0  0  0  0  0  0  0  0  0  0  0  0
   -1.1675    1.0577   -0.0983 C   0  0  0  0  0  0  0  0  0  0  0  0
   -2.0439    2.2509   -0.2451 C   0  0  0  0  0  0  0  0  0  0  0  0
    0.1881    1.1151   -0.1702 N   0  0  0  0  0  0  0  0  0  0  0  0
    0.9740    2.3354   -0.3989 C   0  0  0  0  0  0  0  0  0  0  0  0
    0.6495   -0.1127    0.0018 N   0  0  0  0  0  0  0  0  0  0  0  0
   -0.3989   -0.9237    0.1782 C   0  0  0  0  0  0  0  0  0  0  0  0
   -0.1976   -2.1529    0.3625 O   0  0  0  0  0  0  0  0  0  0  0  0
    2.0441   -0.4109   -0.0159 C   0  0  0  0  0  0  0  0  0  0  0  0
    2.3966   -1.4980   -0.7783 C   0  0  0  0  0  0  0  0  0  0  0  0
    3.7316   -1.8674   -0.8582 C   0  0  0  0  0  0  0  0  0  0  0  0
    4.7004   -1.1460   -0.1750 C   0  0  0  0  0  0  0  0  0  0  0  0
    4.3330   -0.0443    0.5961 C   0  0  0  0  0  0  0  0  0  0  0  0
    2.9914    0.3074    0.6618 C   0  0  0  0  0  0  0  0  0  0  0  0
   -4.9832   -0.6178    0.0397 H   0  0  0  0  0  0  0  0  0  0  0  0
   -4.3207    0.5727    1.1399 H   0  0  0  0  0  0  0  0  0  0  0  0
   -4.0907    0.7282   -0.6734 H   0  0  0  0  0  0  0  0  0  0  0  0
   -2.3089   -2.5660    1.2635 H   0  0  0  0  0  0  0  0  0  0  0  0
   -4.0503   -2.3704    0.8902 H   0  0  0  0  0  0  0  0  0  0  0  0
   -2.9630   -2.7651   -0.4451 H   0  0  0  0  0  0  0  0  0  0  0  0
   -2.4531    2.3620   -1.2695 H   0  0  0  0  0  0  0  0  0  0  0  0
   -1.4381    3.1980   -0.1039 H   0  0  0  0  0  0  0  0  0  0  0  0
   -2.7981    2.3206    0.5622 H   0  0  0  0  0  0  0  0  0  0  0  0
    1.0776    2.8614    0.5804 H   0  0  0  0  0  0  0  0  0  0  0  0
    0.4291    2.9805   -1.0988 H   0  0  0  0  0  0  0  0  0  0  0  0
    1.9459    2.0921   -0.8421 H   0  0  0  0  0  0  0  0  0  0  0  0
    1.7359   -2.1300   -1.3491 H   0  0  0  0  0  0  0  0  0  0  0  0
    4.1227   -2.7161   -1.4363 H   0  0  0  0  0  0  0  0  0  0  0  0
    5.7368   -1.4161   -0.2245 H   0  0  0  0  0  0  0  0  0  0  0  0
    5.0775    0.5439    1.1465 H   0  0  0  0  0  0  0  0  0  0  0  0
    2.6700    1.1591    1.2525 H   0  0  0  0  0  0  0  0  0  0  0  0
  1  2  1  0
  2  3  1  0
  2  4  1  0
  4  5  2  0
  5  6  1  0
  5  7  1  0
  7  8  1  0
  7  9  1  0
  9 10  1  0
 10 11  2  0
  9 12  1  0
 12 13  2  0
 13 14  1  0
 14 15  2  0
 15 16  1  0
 16 17  2  0
 10  4  1  0
 17 12  1  0
  1 18  1  0
  1 19  1  0
  1 20  1  0
  3 21  1  0
  3 22  1  0
  3 23  1  0
  6 24  1  0
  6 25  1  0
  6 26  1  0
  8 27  1  0
  8 28  1  0
  8 29  1  0
 13 30  1  0
 14 31  1  0
 15 32  1  0
 16 33  1  0
 17 34  1  0
M  END
$$$$
