
     RDKit          3D

 20 20  0  0  0  0  0  0  0  0999 V2000
   -0.9051   -1.5795   -0.3428 N   0  0  0  0  0  0  0  0  0  0  0  0
   -1.2071   -0.3487    0.3240 C   0  0  1  0  0  0  0  0  0  0  0  0
   -0.5272    0.8180   -0.3549 C   0  0  0  0  0  0  0  0  0  0  0  0
    0.9572    0.6468   -0.3501 C   0  0  0  0  0  0  0  0  0  0  0  0
    1.7325   -0.3727    0.1644 C   0  0  0  0  0  0  0  0  0  0  0  0
    3.0757   -0.2743    0.0307 C   0  0  0  0  0  0  0  0  0  0  0  0
    3.5867    0.8454   -0.6152 C   0  0  0  0  0  0  0  0  0  0  0  0
    2.1233    1.7859   -1.0455 S   0  0  0  0  0  0  0  0  0  0  0  0
   -2.6783   -0.1555    0.3160 C   0  0  0  0  0  0  0  0  0  0  0  0
   -3.0916    1.0317    0.9498 O   0  0  0  0  0  0  0  0  0  0  0  0
   -3.5791   -0.8676   -0.1551 O   0  0  0  0  0  0  0  0  0  0  0  0
   -1.5429   -1.7131   -1.1547 H   0  0  0  0  0  0  0  0  0  0  0  0
   -0.9643   -2.3960    0.3051 H   0  0  0  0  0  0  0  0  0  0  0  0
   -0.8790   -0.4022    1.3749 H   0  0  0  0  0  0  0  0  0  0  0  0
   -0.7314    1.7408    0.2466 H   0  0  0  0  0  0  0  0  0  0  0  0
   -0.9194    1.0039   -1.3665 H   0  0  0  0  0  0  0  0  0  0  0  0
    1.2170   -1.1911    0.6457 H   0  0  0  0  0  0  0  0  0  0  0  0
    3.7686   -1.0279    0.4039 H   0  0  0  0  0  0  0  0  0  0  0  0
    4.6143    1.0829   -0.8068 H   0  0  0  0  0  0  0  0  0  0  0  0
   -4.0498    1.3732    0.7796 H   0  0  0  0  0  0  0  0  0  0  0  0
  1  2  1  0
  2  3  1  0
  3  4  1  0
  4  5  2  0
  5  6  1  0
  6  7  2  0
  7  8  1  0
  2  9  1  0
  9 10  1  0
  9 11  2  0
  8  4  1  0
  1 12  1  0
  1 13  1  0
  2 14  1  1
  3 15  1  0
  3 16  1  0
  5 17  1  0
  6 18  1  0
  7 19  1  0
 10 20  1  0
M  END
$$$$
