@<TRIPOS>MOLECULE
*****
 20 20 0 0 0
SMALL
GASTEIGER

@<TRIPOS>ATOM
      1 N          -0.9051   -1.5795   -0.3428 N.3     1  UNL1       -0.3181
      2 CA         -1.2071   -0.3487    0.3240 C.3     1  UNL1        0.1077
      3 C          -0.5272    0.8180   -0.3549 C.3     1  UNL1        0.0042
      4 C           0.9572    0.6468   -0.3501 C.ar    1  UNL1       -0.0082
      5 C           1.7325   -0.3727    0.1644 C.ar    1  UNL1       -0.0515
      6 C           3.0757   -0.2743    0.0307 C.ar    1  UNL1       -0.0545
      7 C           3.5867    0.8454   -0.6152 C.ar    1  UNL1       -0.0241
      8 S           2.1233    1.7859   -1.0455 S.2     1  UNL1       -0.1015
      9 C          -2.6783   -0.1555    0.3160 C.2     1  UNL1        0.3221
     10 O          -3.0916    1.0317    0.9498 O.3     1  UNL1       -0.4795
     11 OXT        -3.5791   -0.8676   -0.1551 O.2     1  UNL1       -0.2492
     12 H1         -1.5429   -1.7131   -1.1547 H       1  UNL1        0.1190
     13 H2         -0.9643   -2.3960    0.3051 H       1  UNL1        0.1190
     14 HA         -0.8790   -0.4022    1.3749 H       1  UNL1        0.0577
     15 H          -0.7314    1.7408    0.2466 H       1  UNL1        0.0339
     16 H          -0.9194    1.0039   -1.3665 H       1  UNL1        0.0339
     17 H           1.2170   -1.1911    0.6457 H       1  UNL1        0.0626
     18 H           3.7686   -1.0279    0.4039 H       1  UNL1        0.0623
     19 H           4.6143    1.0829   -0.8068 H       1  UNL1        0.0693
     20 H          -4.0498    1.3732    0.7796 H       1  UNL1        0.2951
@<TRIPOS>BOND
     1     1     2    1
     2     2     3    1
     3     3     4    1
     4     4     5   ar
     5     5     6   ar
     6     6     7   ar
     7     7     8   ar
     8     2     9    1
     9     9    10    1
    10     9    11    2
    11     8     4   ar
    12     1    12    1
    13     1    13    1
    14     2    14    1
    15     3    15    1
    16     3    16    1
    17     5    17    1
    18     6    18    1
    19     7    19    1
    20    10    20    1
