@<TRIPOS>MOLECULE
*****
 66 70 0 0 0
SMALL
GASTEIGER

@<TRIPOS>ATOM
      1 C          10.9604   -0.4524   -1.5860 C.3     1  UNL1        0.0788
      2 O          10.5387   -0.7021   -0.2585 O.3     1  UNL1       -0.4951
      3 C           9.2292   -0.4008    0.1420 C.ar    1  UNL1        0.1202
      4 C           8.3245    0.1433   -0.7436 C.ar    1  UNL1       -0.0182
      5 C           7.0450    0.4343   -0.3408 C.ar    1  UNL1       -0.0368
      6 C           6.6557    0.1805    0.9656 C.ar    1  UNL1        0.0374
      7 N           5.3500    0.4690    1.3999 N.am    1  UNL1       -0.2566
      8 C           4.5934    1.5329    1.9728 C.2     1  UNL1        0.2263
      9 O           4.8830    2.5634    2.5944 O.2     1  UNL1       -0.2748
     10 C           3.2907    0.8929    1.5139 C.3     1  UNL1        0.0693
     11 C           2.8342    1.6019    0.2989 C.3     1  UNL1       -0.0143
     12 C           1.5654    1.1325   -0.2990 C.ar    1  UNL1       -0.0463
     13 C           0.3537    1.6119    0.2072 C.ar    1  UNL1       -0.0551
     14 C          -0.8689    1.2379   -0.3160 C.ar    1  UNL1       -0.0197
     15 C          -0.9377    0.3757   -1.3582 C.ar    1  UNL1        0.1205
     16 O          -2.0835   -0.0436   -1.9257 O.3     1  UNL1       -0.4916
     17 C          -3.4163    0.1842   -1.6901 C.3     1  UNL1        0.0951
     18 C          -3.8478   -0.3140   -0.3497 C.3     1  UNL1        0.0272
     19 C          -5.3064   -0.0535   -0.1076 C.ar    1  UNL1        0.0860
     20 N          -6.3228   -0.9306   -0.1547 N.ar    1  UNL1       -0.2136
     21 C          -7.4845   -0.2850    0.1274 C.ar    1  UNL1        0.2276
     22 C          -8.7976   -0.9141    0.1693 C.ar    1  UNL1        0.0369
     23 C          -9.9141   -0.1614    0.4650 C.ar    1  UNL1       -0.0495
     24 C         -11.1744   -0.7295    0.5118 C.ar    1  UNL1       -0.0610
     25 C         -11.3679   -2.0717    0.2649 C.ar    1  UNL1       -0.0617
     26 C         -10.2515   -2.8289   -0.0317 C.ar    1  UNL1       -0.0610
     27 C          -8.9829   -2.2573   -0.0788 C.ar    1  UNL1       -0.0495
     28 O          -7.1506    0.9577    0.3375 O.2     1  UNL1       -0.4402
     29 C          -5.8655    1.1578    0.2117 C.ar    1  UNL1        0.1258
     30 C          -5.2054    2.4737    0.3942 C.3     1  UNL1       -0.0045
     31 C           0.2653   -0.1073   -1.8704 C.ar    1  UNL1       -0.0197
     32 C           1.4895    0.2707   -1.3433 C.ar    1  UNL1       -0.0551
     33 C           4.1112   -0.3431    1.4259 C.3     1  UNL1        0.1388
     34 C           3.9387   -1.2679    0.3200 C.2     1  UNL1        0.3266
     35 O           4.7289   -1.3425   -0.6479 O.2     1  UNL1       -0.2489
     36 O           2.8432   -2.1165    0.3327 O.3     1  UNL1       -0.4793
     37 C           7.5345   -0.3576    1.8591 C.ar    1  UNL1       -0.0368
     38 C           8.8364   -0.6506    1.4391 C.ar    1  UNL1       -0.0182
     39 H          11.9966   -0.8114   -1.7082 H       1  UNL1        0.0660
     40 H          10.3029   -0.9820   -2.3108 H       1  UNL1        0.0660
     41 H          10.8999    0.6391   -1.7466 H       1  UNL1        0.0660
     42 H           8.6139    0.3471   -1.7663 H       1  UNL1        0.0655
     43 H           6.3262    0.8592   -1.0141 H       1  UNL1        0.0637
     44 H           2.5283    0.9267    2.3186 H       1  UNL1        0.0421
     45 H           2.6318    2.6739    0.6057 H       1  UNL1        0.0321
     46 H           3.6251    1.7026   -0.4801 H       1  UNL1        0.0321
     47 H           0.4121    2.3048    1.0458 H       1  UNL1        0.0621
     48 H          -1.7635    1.6804    0.1379 H       1  UNL1        0.0654
     49 H          -3.7060    1.2722   -1.8370 H       1  UNL1        0.0700
     50 H          -4.0163   -0.3272   -2.5002 H       1  UNL1        0.0700
     51 H          -3.7440   -1.4411   -0.3754 H       1  UNL1        0.0362
     52 H          -3.2884    0.0217    0.5064 H       1  UNL1        0.0362
     53 H          -9.7537    0.9074    0.6604 H       1  UNL1        0.0625
     54 H         -12.0334   -0.1352    0.7423 H       1  UNL1        0.0618
     55 H         -12.3454   -2.5460    0.2942 H       1  UNL1        0.0618
     56 H         -10.4130   -3.8833   -0.2245 H       1  UNL1        0.0618
     57 H          -8.1190   -2.8765   -0.3150 H       1  UNL1        0.0625
     58 H          -4.2098    2.3746    0.8860 H       1  UNL1        0.0308
     59 H          -4.9850    2.9620   -0.5928 H       1  UNL1        0.0308
     60 H          -5.8246    3.1533    0.9825 H       1  UNL1        0.0308
     61 H           0.2713   -0.7958   -2.7003 H       1  UNL1        0.0654
     62 H           2.4244   -0.1160   -1.7729 H       1  UNL1        0.0621
     63 H           4.1179   -0.8331    2.4543 H       1  UNL1        0.0628
     64 H           2.8186   -3.0058   -0.1484 H       1  UNL1        0.2951
     65 H           7.2883   -0.5755    2.8845 H       1  UNL1        0.0637
     66 H           9.5514   -1.0759    2.1228 H       1  UNL1        0.0655
@<TRIPOS>BOND
     1     1     2    1
     2     2     3    1
     3     3     4   ar
     4     4     5   ar
     5     5     6   ar
     6     6     7    1
     7     7     8   am
     8     8     9    2
     9     8    10    1
    10    10    11    1
    11    11    12    1
    12    12    13   ar
    13    13    14   ar
    14    14    15   ar
    15    15    16    1
    16    16    17    1
    17    17    18    1
    18    18    19    1
    19    19    20   ar
    20    20    21   ar
    21    21    22    1
    22    22    23   ar
    23    23    24   ar
    24    24    25   ar
    25    25    26   ar
    26    26    27   ar
    27    21    28   ar
    28    28    29   ar
    29    29    30    1
    30    15    31   ar
    31    31    32   ar
    32    10    33    1
    33    33    34    1
    34    34    35    2
    35    34    36    1
    36     6    37   ar
    37    37    38   ar
    38    38     3   ar
    39    33     7    1
    40    32    12   ar
    41    29    19   ar
    42    27    22   ar
    43     1    39    1
    44     1    40    1
    45     1    41    1
    46     4    42    1
    47     5    43    1
    48    10    44    1
    49    11    45    1
    50    11    46    1
    51    13    47    1
    52    14    48    1
    53    17    49    1
    54    17    50    1
    55    18    51    1
    56    18    52    1
    57    23    53    1
    58    24    54    1
    59    25    55    1
    60    26    56    1
    61    27    57    1
    62    30    58    1
    63    30    59    1
    64    30    60    1
    65    31    61    1
    66    32    62    1
    67    33    63    1
    68    36    64    1
    69    37    65    1
    70    38    66    1
