
     RDKit          3D

 66 70  0  0  0  0  0  0  0  0999 V2000
   10.9604   -0.4524   -1.5860 C   0  0  0  0  0  0  0  0  0  0  0  0
   10.5387   -0.7021   -0.2585 O   0  0  0  0  0  0  0  0  0  0  0  0
    9.2292   -0.4008    0.1420 C   0  0  0  0  0  0  0  0  0  0  0  0
    8.3245    0.1433   -0.7436 C   0  0  0  0  0  0  0  0  0  0  0  0
    7.0450    0.4343   -0.3408 C   0  0  0  0  0  0  0  0  0  0  0  0
    6.6557    0.1805    0.9656 C   0  0  0  0  0  0  0  0  0  0  0  0
    5.3500    0.4690    1.3999 N   0  0  0  0  0  0  0  0  0  0  0  0
    4.5934    1.5329    1.9728 C   0  0  0  0  0  0  0  0  0  0  0  0
    4.8830    2.5634    2.5944 O   0  0  0  0  0  0  0  0  0  0  0  0
    3.2907    0.8929    1.5139 C   0  0  1  0  0  0  0  0  0  0  0  0
    2.8342    1.6019    0.2989 C   0  0  0  0  0  0  0  0  0  0  0  0
    1.5654    1.1325   -0.2990 C   0  0  0  0  0  0  0  0  0  0  0  0
    0.3537    1.6119    0.2072 C   0  0  0  0  0  0  0  0  0  0  0  0
   -0.8689    1.2379   -0.3160 C   0  0  0  0  0  0  0  0  0  0  0  0
   -0.9377    0.3757   -1.3582 C   0  0  0  0  0  0  0  0  0  0  0  0
   -2.0835   -0.0436   -1.9257 O   0  0  0  0  0  0  0  0  0  0  0  0
   -3.4163    0.1842   -1.6901 C   0  0  0  0  0  0  0  0  0  0  0  0
   -3.8478   -0.3140   -0.3497 C   0  0  0  0  0  0  0  0  0  0  0  0
   -5.3064   -0.0535   -0.1076 C   0  0  0  0  0  0  0  0  0  0  0  0
   -6.3228   -0.9306   -0.1547 N   0  0  0  0  0  0  0  0  0  0  0  0
   -7.4845   -0.2850    0.1274 C   0  0  0  0  0  0  0  0  0  0  0  0
   -8.7976   -0.9141    0.1693 C   0  0  0  0  0  0  0  0  0  0  0  0
   -9.9141   -0.1614    0.4650 C   0  0  0  0  0  0  0  0  0  0  0  0
  -11.1744   -0.7295    0.5118 C   0  0  0  0  0  0  0  0  0  0  0  0
  -11.3679   -2.0717    0.2649 C   0  0  0  0  0  0  0  0  0  0  0  0
  -10.2515   -2.8289   -0.0317 C   0  0  0  0  0  0  0  0  0  0  0  0
   -8.9829   -2.2573   -0.0788 C   0  0  0  0  0  0  0  0  0  0  0  0
   -7.1506    0.9577    0.3375 O   0  0  0  0  0  0  0  0  0  0  0  0
   -5.8655    1.1578    0.2117 C   0  0  0  0  0  0  0  0  0  0  0  0
   -5.2054    2.4737    0.3942 C   0  0  0  0  0  0  0  0  0  0  0  0
    0.2653   -0.1073   -1.8704 C   0  0  0  0  0  0  0  0  0  0  0  0
    1.4895    0.2707   -1.3433 C   0  0  0  0  0  0  0  0  0  0  0  0
    4.1112   -0.3431    1.4259 C   0  0  1  0  0  0  0  0  0  0  0  0
    3.9387   -1.2679    0.3200 C   0  0  0  0  0  0  0  0  0  0  0  0
    4.7289   -1.3425   -0.6479 O   0  0  0  0  0  0  0  0  0  0  0  0
    2.8432   -2.1165    0.3327 O   0  0  0  0  0  0  0  0  0  0  0  0
    7.5345   -0.3576    1.8591 C   0  0  0  0  0  0  0  0  0  0  0  0
    8.8364   -0.6506    1.4391 C   0  0  0  0  0  0  0  0  0  0  0  0
   11.9966   -0.8114   -1.7082 H   0  0  0  0  0  0  0  0  0  0  0  0
   10.3029   -0.9820   -2.3108 H   0  0  0  0  0  0  0  0  0  0  0  0
   10.8999    0.6391   -1.7466 H   0  0  0  0  0  0  0  0  0  0  0  0
    8.6139    0.3471   -1.7663 H   0  0  0  0  0  0  0  0  0  0  0  0
    6.3262    0.8592   -1.0141 H   0  0  0  0  0  0  0  0  0  0  0  0
    2.5283    0.9267    2.3186 H   0  0  0  0  0  0  0  0  0  0  0  0
    2.6318    2.6739    0.6057 H   0  0  0  0  0  0  0  0  0  0  0  0
    3.6251    1.7026   -0.4801 H   0  0  0  0  0  0  0  0  0  0  0  0
    0.4121    2.3048    1.0458 H   0  0  0  0  0  0  0  0  0  0  0  0
   -1.7635    1.6804    0.1379 H   0  0  0  0  0  0  0  0  0  0  0  0
   -3.7060    1.2722   -1.8370 H   0  0  0  0  0  0  0  0  0  0  0  0
   -4.0163   -0.3272   -2.5002 H   0  0  0  0  0  0  0  0  0  0  0  0
   -3.7440   -1.4411   -0.3754 H   0  0  0  0  0  0  0  0  0  0  0  0
   -3.2884    0.0217    0.5064 H   0  0  0  0  0  0  0  0  0  0  0  0
   -9.7537    0.9074    0.6604 H   0  0  0  0  0  0  0  0  0  0  0  0
  -12.0334   -0.1352    0.7423 H   0  0  0  0  0  0  0  0  0  0  0  0
  -12.3454   -2.5460    0.2942 H   0  0  0  0  0  0  0  0  0  0  0  0
  -10.4130   -3.8833   -0.2245 H   0  0  0  0  0  0  0  0  0  0  0  0
   -8.1190   -2.8765   -0.3150 H   0  0  0  0  0  0  0  0  0  0  0  0
   -4.2098    2.3746    0.8860 H   0  0  0  0  0  0  0  0  0  0  0  0
   -4.9850    2.9620   -0.5928 H   0  0  0  0  0  0  0  0  0  0  0  0
   -5.8246    3.1533    0.9825 H   0  0  0  0  0  0  0  0  0  0  0  0
    0.2713   -0.7958   -2.7003 H   0  0  0  0  0  0  0  0  0  0  0  0
    2.4244   -0.1160   -1.7729 H   0  0  0  0  0  0  0  0  0  0  0  0
    4.1179   -0.8331    2.4543 H   0  0  0  0  0  0  0  0  0  0  0  0
    2.8186   -3.0058   -0.1484 H   0  0  0  0  0  0  0  0  0  0  0  0
    7.2883   -0.5755    2.8845 H   0  0  0  0  0  0  0  0  0  0  0  0
    9.5514   -1.0759    2.1228 H   0  0  0  0  0  0  0  0  0  0  0  0
  1  2  1  0
  2  3  1  0
  3  4  2  0
  4  5  1  0
  5  6  2  0
  6  7  1  0
  7  8  1  0
  8  9  2  0
  8 10  1  0
 10 11  1  0
 11 12  1  0
 12 13  2  0
 13 14  1  0
 14 15  2  0
 15 16  1  0
 16 17  1  0
 17 18  1  0
 18 19  1  0
 19 20  1  0
 20 21  2  0
 21 22  1  0
 22 23  2  0
 23 24  1  0
 24 25  2  0
 25 26  1  0
 26 27  2  0
 21 28  1  0
 28 29  1  0
 29 30  1  0
 15 31  1  0
 31 32  2  0
 10 33  1  0
 33 34  1  0
 34 35  2  0
 34 36  1  0
  6 37  1  0
 37 38  2  0
 38  3  1  0
 33  7  1  0
 32 12  1  0
 29 19  2  0
 27 22  1  0
  1 39  1  0
  1 40  1  0
  1 41  1  0
  4 42  1  0
  5 43  1  0
 10 44  1  1
 11 45  1  0
 11 46  1  0
 13 47  1  0
 14 48  1  0
 17 49  1  0
 17 50  1  0
 18 51  1  0
 18 52  1  0
 23 53  1  0
 24 54  1  0
 25 55  1  0
 26 56  1  0
 27 57  1  0
 30 58  1  0
 30 59  1  0
 30 60  1  0
 31 61  1  0
 32 62  1  0
 33 63  1  1
 36 64  1  0
 37 65  1  0
 38 66  1  0
M  END
$$$$
