@<TRIPOS>MOLECULE
*****
 39 40 0 0 0
SMALL
GASTEIGER

@<TRIPOS>ATOM
      1 C          -2.6510    1.8953   -0.5855 C.3     1  UNL1       -0.0611
      2 C          -2.1175    1.1518    0.6245 C.3     1  UNL1       -0.0270
      3 C          -2.0616   -0.3111    0.3922 C.ar    1  UNL1       -0.0040
      4 C          -2.9984   -1.1271    1.0186 C.ar    1  UNL1       -0.0367
      5 C          -2.9880   -2.4977    0.8509 C.ar    1  UNL1        0.0415
      6 CL         -4.1865   -3.4814    1.6586 Cl      1  UNL1       -0.0835
      7 C          -2.0539   -3.1274    0.0581 C.ar    1  UNL1       -0.0399
      8 C          -1.1259   -2.3366   -0.5649 C.ar    1  UNL1       -0.0177
      9 C          -1.1223   -0.9297   -0.4040 C.ar    1  UNL1        0.1317
     10 O          -0.1792   -0.1802   -1.0464 O.3     1  UNL1       -0.4553
     11 C           0.7767    0.6740   -0.5766 C.ar    1  UNL1        0.1360
     12 C           0.8200    2.0186   -0.9901 C.ar    1  UNL1        0.0020
     13 C           1.7568    2.9118   -0.5480 C.ar    1  UNL1        0.0417
     14 C           1.7234    4.3108   -1.0431 C.3     1  UNL1       -0.0222
     15 N           2.6986    2.5334    0.3219 N.ar    1  UNL1       -0.2596
     16 C           2.6994    1.2675    0.7445 C.ar    1  UNL1        0.0357
     17 C           1.7618    0.3246    0.3175 C.ar    1  UNL1        0.0267
     18 C           1.8170   -1.0657    0.8105 C.3     1  UNL1        0.0259
     19 N           2.3769   -1.9702   -0.1730 N.3     1  UNL1       -0.3148
     20 C           2.4076   -3.3096    0.3779 C.3     1  UNL1       -0.0155
     21 H          -2.3512    2.9478   -0.4984 H       1  UNL1        0.0233
     22 H          -3.7513    1.7586   -0.6601 H       1  UNL1        0.0233
     23 H          -2.1578    1.5112   -1.5245 H       1  UNL1        0.0233
     24 H          -2.9032    1.3242    1.4284 H       1  UNL1        0.0312
     25 H          -1.1850    1.6157    0.9268 H       1  UNL1        0.0312
     26 H          -3.7579   -0.6454    1.6581 H       1  UNL1        0.0636
     27 H          -2.0251   -4.1973   -0.0898 H       1  UNL1        0.0633
     28 H          -0.3580   -2.7765   -1.2110 H       1  UNL1        0.0655
     29 H           0.0777    2.3597   -1.6903 H       1  UNL1        0.0672
     30 H           0.7042    4.7073   -0.7775 H       1  UNL1        0.0293
     31 H           1.7577    4.2571   -2.1705 H       1  UNL1        0.0293
     32 H           2.5355    4.9239   -0.6375 H       1  UNL1        0.0293
     33 H           3.4431    0.9247    1.4451 H       1  UNL1        0.0834
     34 H           0.8844   -1.4179    1.2724 H       1  UNL1        0.0475
     35 H           2.5603   -1.0778    1.6651 H       1  UNL1        0.0475
     36 H           1.8686   -1.9437   -1.0565 H       1  UNL1        0.1219
     37 H           2.9433   -3.9953   -0.3176 H       1  UNL1        0.0388
     38 H           1.4054   -3.7282    0.5680 H       1  UNL1        0.0388
     39 H           2.9556   -3.2994    1.3627 H       1  UNL1        0.0388
@<TRIPOS>BOND
     1     1     2    1
     2     2     3    1
     3     3     4   ar
     4     4     5   ar
     5     5     6    1
     6     5     7   ar
     7     7     8   ar
     8     8     9   ar
     9     9    10    1
    10    10    11    1
    11    11    12   ar
    12    12    13   ar
    13    13    14    1
    14    13    15   ar
    15    15    16   ar
    16    16    17   ar
    17    17    18    1
    18    18    19    1
    19    19    20    1
    20     9     3   ar
    21    17    11   ar
    22     1    21    1
    23     1    22    1
    24     1    23    1
    25     2    24    1
    26     2    25    1
    27     4    26    1
    28     7    27    1
    29     8    28    1
    30    12    29    1
    31    14    30    1
    32    14    31    1
    33    14    32    1
    34    16    33    1
    35    18    34    1
    36    18    35    1
    37    19    36    1
    38    20    37    1
    39    20    38    1
    40    20    39    1
