
     RDKit          3D

 39 40  0  0  0  0  0  0  0  0999 V2000
   -2.6510    1.8953   -0.5855 C   0  0  0  0  0  0  0  0  0  0  0  0
   -2.1175    1.1518    0.6245 C   0  0  0  0  0  0  0  0  0  0  0  0
   -2.0616   -0.3111    0.3922 C   0  0  0  0  0  0  0  0  0  0  0  0
   -2.9984   -1.1271    1.0186 C   0  0  0  0  0  0  0  0  0  0  0  0
   -2.9880   -2.4977    0.8509 C   0  0  0  0  0  0  0  0  0  0  0  0
   -4.1865   -3.4814    1.6586 Cl  0  0  0  0  0  0  0  0  0  0  0  0
   -2.0539   -3.1274    0.0581 C   0  0  0  0  0  0  0  0  0  0  0  0
   -1.1259   -2.3366   -0.5649 C   0  0  0  0  0  0  0  0  0  0  0  0
   -1.1223   -0.9297   -0.4040 C   0  0  0  0  0  0  0  0  0  0  0  0
   -0.1792   -0.1802   -1.0464 O   0  0  0  0  0  0  0  0  0  0  0  0
    0.7767    0.6740   -0.5766 C   0  0  0  0  0  0  0  0  0  0  0  0
    0.8200    2.0186   -0.9901 C   0  0  0  0  0  0  0  0  0  0  0  0
    1.7568    2.9118   -0.5480 C   0  0  0  0  0  0  0  0  0  0  0  0
    1.7234    4.3108   -1.0431 C   0  0  0  0  0  0  0  0  0  0  0  0
    2.6986    2.5334    0.3219 N   0  0  0  0  0  0  0  0  0  0  0  0
    2.6994    1.2675    0.7445 C   0  0  0  0  0  0  0  0  0  0  0  0
    1.7618    0.3246    0.3175 C   0  0  0  0  0  0  0  0  0  0  0  0
    1.8170   -1.0657    0.8105 C   0  0  0  0  0  0  0  0  0  0  0  0
    2.3769   -1.9702   -0.1730 N   0  0  0  0  0  0  0  0  0  0  0  0
    2.4076   -3.3096    0.3779 C   0  0  0  0  0  0  0  0  0  0  0  0
   -2.3512    2.9478   -0.4984 H   0  0  0  0  0  0  0  0  0  0  0  0
   -3.7513    1.7586   -0.6601 H   0  0  0  0  0  0  0  0  0  0  0  0
   -2.1578    1.5112   -1.5245 H   0  0  0  0  0  0  0  0  0  0  0  0
   -2.9032    1.3242    1.4284 H   0  0  0  0  0  0  0  0  0  0  0  0
   -1.1850    1.6157    0.9268 H   0  0  0  0  0  0  0  0  0  0  0  0
   -3.7579   -0.6454    1.6581 H   0  0  0  0  0  0  0  0  0  0  0  0
   -2.0251   -4.1973   -0.0898 H   0  0  0  0  0  0  0  0  0  0  0  0
   -0.3580   -2.7765   -1.2110 H   0  0  0  0  0  0  0  0  0  0  0  0
    0.0777    2.3597   -1.6903 H   0  0  0  0  0  0  0  0  0  0  0  0
    0.7042    4.7073   -0.7775 H   0  0  0  0  0  0  0  0  0  0  0  0
    1.7577    4.2571   -2.1705 H   0  0  0  0  0  0  0  0  0  0  0  0
    2.5355    4.9239   -0.6375 H   0  0  0  0  0  0  0  0  0  0  0  0
    3.4431    0.9247    1.4451 H   0  0  0  0  0  0  0  0  0  0  0  0
    0.8844   -1.4179    1.2724 H   0  0  0  0  0  0  0  0  0  0  0  0
    2.5603   -1.0778    1.6651 H   0  0  0  0  0  0  0  0  0  0  0  0
    1.8686   -1.9437   -1.0565 H   0  0  0  0  0  0  0  0  0  0  0  0
    2.9433   -3.9953   -0.3176 H   0  0  0  0  0  0  0  0  0  0  0  0
    1.4054   -3.7282    0.5680 H   0  0  0  0  0  0  0  0  0  0  0  0
    2.9556   -3.2994    1.3627 H   0  0  0  0  0  0  0  0  0  0  0  0
  1  2  1  0
  2  3  1  0
  3  4  2  0
  4  5  1  0
  5  6  1  0
  5  7  2  0
  7  8  1  0
  8  9  2  0
  9 10  1  0
 10 11  1  0
 11 12  2  0
 12 13  1  0
 13 14  1  0
 13 15  2  0
 15 16  1  0
 16 17  2  0
 17 18  1  0
 18 19  1  0
 19 20  1  0
  9  3  1  0
 17 11  1  0
  1 21  1  0
  1 22  1  0
  1 23  1  0
  2 24  1  0
  2 25  1  0
  4 26  1  0
  7 27  1  0
  8 28  1  0
 12 29  1  0
 14 30  1  0
 14 31  1  0
 14 32  1  0
 16 33  1  0
 18 34  1  0
 18 35  1  0
 19 36  1  0
 20 37  1  0
 20 38  1  0
 20 39  1  0
M  END
$$$$
