@<TRIPOS>MOLECULE
*****
 59 63 0 0 0
SMALL
GASTEIGER

@<TRIPOS>ATOM
      1 C          -4.2138   -0.6565    3.0071 C.3     1  UNL1       -0.0376
      2 C          -4.7425   -0.5258    1.6115 C.ar    1  UNL1       -0.0223
      3 C          -6.0124   -0.0769    1.3422 C.ar    1  UNL1       -0.0489
      4 C          -6.4522    0.0107    0.0284 C.ar    1  UNL1       -0.0127
      5 C          -7.7715    0.4982   -0.3122 C.ar    1  UNL1        0.0188
      6 C          -8.8420   -0.3555   -0.4167 C.ar    1  UNL1        0.0501
      7 CL         -8.6760   -2.0849   -0.1494 Cl      1  UNL1       -0.0829
      8 C         -10.1120    0.1399   -0.7450 C.ar    1  UNL1       -0.0427
      9 C         -10.2872    1.4959   -0.9646 C.ar    1  UNL1       -0.0590
     10 C          -9.2029    2.3260   -0.8537 C.ar    1  UNL1       -0.0427
     11 C          -7.9193    1.8652   -0.5280 C.ar    1  UNL1        0.0501
     12 CL         -6.5743    2.9768   -0.4071 Cl      1  UNL1       -0.0829
     13 C          -5.5835   -0.3640   -0.9875 C.ar    1  UNL1       -0.0246
     14 C          -4.3087   -0.8148   -0.7213 C.ar    1  UNL1        0.1125
     15 N          -3.4697   -1.1733   -1.7006 N.ar    1  UNL1       -0.1444
     16 N          -2.2396   -1.5999   -1.3926 N.ar    1  UNL1       -0.1123
     17 C          -1.7748   -1.6964   -0.1548 C.ar    1  UNL1        0.2398
     18 N          -0.4796   -2.1487    0.2186 N.pl3   1  UNL1       -0.2824
     19 C           0.6619   -1.3319    0.0496 C.ar    1  UNL1        0.0338
     20 C           1.7516   -1.5057    0.8470 C.ar    1  UNL1       -0.0370
     21 C           2.8611   -0.7079    0.6146 C.ar    1  UNL1       -0.0182
     22 C           2.9134    0.2432   -0.3760 C.ar    1  UNL1        0.1207
     23 O           3.9601    1.0366   -0.6425 O.3     1  UNL1       -0.4907
     24 C           5.2243    1.2562   -0.1768 C.3     1  UNL1        0.1022
     25 C           6.1281    0.0833   -0.2905 C.3     1  UNL1        0.0331
     26 N           7.4438    0.2742    0.1871 N.3     1  UNL1       -0.2991
     27 C           8.3492   -0.8157    0.0815 C.3     1  UNL1       -0.0010
     28 C           9.7497   -0.2004    0.1825 C.3     1  UNL1       -0.0390
     29 C           9.5505    1.1806   -0.3998 C.3     1  UNL1       -0.0390
     30 C           8.1126    1.4859   -0.0518 C.3     1  UNL1       -0.0010
     31 C           1.7676    0.4081   -1.1950 C.ar    1  UNL1       -0.0182
     32 C           0.6705   -0.3751   -0.9706 C.ar    1  UNL1       -0.0370
     33 N          -2.6266   -1.3334    0.8538 N.ar    1  UNL1       -0.2112
     34 C          -3.8668   -0.9012    0.6016 C.ar    1  UNL1        0.0975
     35 H          -3.1131   -0.5245    3.0538 H       1  UNL1        0.0278
     36 H          -4.6520    0.0698    3.7046 H       1  UNL1        0.0278
     37 H          -4.3802   -1.7154    3.3664 H       1  UNL1        0.0278
     38 H          -6.6898    0.2145    2.1485 H       1  UNL1        0.0627
     39 H         -10.9427   -0.5609   -0.8208 H       1  UNL1        0.0632
     40 H         -11.2692    1.8666   -1.2145 H       1  UNL1        0.0618
     41 H          -9.3402    3.3915   -1.0248 H       1  UNL1        0.0632
     42 H          -5.8978   -0.3075   -2.0324 H       1  UNL1        0.0646
     43 H          -0.3250   -3.1005    0.6290 H       1  UNL1        0.1551
     44 H           1.8005   -2.2311    1.6536 H       1  UNL1        0.0637
     45 H           3.7465   -0.8188    1.2625 H       1  UNL1        0.0655
     46 H           5.6217    2.1569   -0.7228 H       1  UNL1        0.0709
     47 H           5.1336    1.5160    0.9283 H       1  UNL1        0.0709
     48 H           6.2215   -0.2218   -1.3824 H       1  UNL1        0.0460
     49 H           5.7254   -0.8259    0.1960 H       1  UNL1        0.0460
     50 H           8.2488   -1.4293   -0.8276 H       1  UNL1        0.0427
     51 H           8.2295   -1.4579    0.9786 H       1  UNL1        0.0427
     52 H          10.0239   -0.0693    1.2635 H       1  UNL1        0.0278
     53 H          10.5047   -0.7994   -0.3269 H       1  UNL1        0.0278
     54 H          10.2392    1.9271    0.0407 H       1  UNL1        0.0278
     55 H           9.7384    1.1713   -1.4936 H       1  UNL1        0.0278
     56 H           7.6510    2.2135   -0.7262 H       1  UNL1        0.0427
     57 H           8.1769    2.0274    0.9432 H       1  UNL1        0.0427
     58 H           1.7915    1.1633   -1.9914 H       1  UNL1        0.0655
     59 H          -0.2318   -0.2681   -1.5893 H       1  UNL1        0.0637
@<TRIPOS>BOND
     1     1     2    1
     2     2     3   ar
     3     3     4   ar
     4     4     5    1
     5     5     6   ar
     6     6     7    1
     7     6     8   ar
     8     8     9   ar
     9     9    10   ar
    10    10    11   ar
    11    11    12    1
    12     4    13   ar
    13    13    14   ar
    14    14    15   ar
    15    15    16   ar
    16    16    17   ar
    17    17    18    1
    18    18    19    1
    19    19    20   ar
    20    20    21   ar
    21    21    22   ar
    22    22    23    1
    23    23    24    1
    24    24    25    1
    25    25    26    1
    26    26    27    1
    27    27    28    1
    28    28    29    1
    29    29    30    1
    30    22    31   ar
    31    31    32   ar
    32    17    33   ar
    33    33    34   ar
    34    34     2   ar
    35    11     5   ar
    36    34    14   ar
    37    32    19   ar
    38    30    26    1
    39     1    35    1
    40     1    36    1
    41     1    37    1
    42     3    38    1
    43     8    39    1
    44     9    40    1
    45    10    41    1
    46    13    42    1
    47    18    43    1
    48    20    44    1
    49    21    45    1
    50    24    46    1
    51    24    47    1
    52    25    48    1
    53    25    49    1
    54    27    50    1
    55    27    51    1
    56    28    52    1
    57    28    53    1
    58    29    54    1
    59    29    55    1
    60    30    56    1
    61    30    57    1
    62    31    58    1
    63    32    59    1
