@<TRIPOS>MOLECULE
*****
 44 47 0 0 0
SMALL
GASTEIGER

@<TRIPOS>ATOM
      1 C           5.5661    0.6366    0.9703 C.3     1  UNL1       -0.0126
      2 N           4.2982   -0.0027    0.6807 N.3     1  UNL1       -0.3024
      3 C           3.4457   -0.1031    1.8414 C.3     1  UNL1        0.0146
      4 C           2.3090   -1.0513    1.5267 C.3     1  UNL1        0.0306
      5 N           1.5757   -0.4753    0.4180 N.am    1  UNL1       -0.2649
      6 C           2.1547    0.5430   -0.4269 C.3     1  UNL1        0.0306
      7 C           3.6467    0.4855   -0.4827 C.3     1  UNL1        0.0146
      8 C           0.2589   -0.9663    0.2084 C.2     1  UNL1        0.4049
      9 O          -0.1264   -1.8525    1.0142 O.2     1  UNL1       -0.2262
     10 O          -0.5865   -0.5264   -0.8081 O.3     1  UNL1       -0.4218
     11 C          -1.8884   -1.0190   -1.0070 C.3     1  UNL1        0.2247
     12 N          -2.8354    0.1041   -0.9345 N.am    1  UNL1       -0.2080
     13 C          -3.5267    0.2219   -2.1934 C.2     1  UNL1        0.2753
     14 O          -4.3939    1.0801   -2.4454 O.2     1  UNL1       -0.2677
     15 C          -3.0265   -0.8314   -3.0908 C.ar    1  UNL1        0.1525
     16 N          -3.3098   -1.1857   -4.3586 N.ar    1  UNL1       -0.2469
     17 C          -2.6470   -2.2348   -4.9004 C.ar    1  UNL1        0.0465
     18 C          -1.6899   -2.9772   -4.2397 C.ar    1  UNL1        0.0462
     19 N          -1.4277   -2.5903   -2.9565 N.ar    1  UNL1       -0.2506
     20 C          -2.0741   -1.5511   -2.3980 C.ar    1  UNL1        0.1311
     21 C          -2.9603    0.8819    0.2515 C.ar    1  UNL1        0.1309
     22 N          -3.8658    0.4949    1.1888 N.ar    1  UNL1       -0.2384
     23 C          -4.0392    1.1797    2.3331 C.ar    1  UNL1        0.0480
     24 C          -3.3101    2.3152    2.6261 C.ar    1  UNL1        0.0592
     25 CL         -3.5300    3.2032    4.1023 Cl      1  UNL1       -0.0820
     26 C          -2.3809    2.7121    1.6641 C.ar    1  UNL1       -0.0387
     27 C          -2.1940    2.0152    0.4829 C.ar    1  UNL1       -0.0198
     28 H           6.3579    0.0614    0.4425 H       1  UNL1        0.0391
     29 H           5.5049    1.6591    0.5505 H       1  UNL1        0.0391
     30 H           5.8114    0.6432    2.0425 H       1  UNL1        0.0391
     31 H           4.0346   -0.5659    2.6616 H       1  UNL1        0.0442
     32 H           3.0595    0.8743    2.1596 H       1  UNL1        0.0442
     33 H           2.7913   -1.9855    1.1380 H       1  UNL1        0.0478
     34 H           1.6874   -1.2493    2.4131 H       1  UNL1        0.0478
     35 H           1.7610    1.5597   -0.1876 H       1  UNL1        0.0478
     36 H           1.7685    0.3274   -1.4532 H       1  UNL1        0.0478
     37 H           3.9986    1.5449   -0.6342 H       1  UNL1        0.0442
     38 H           3.9941   -0.0571   -1.3840 H       1  UNL1        0.0442
     39 H          -2.0706   -1.7761   -0.2313 H       1  UNL1        0.1030
     40 H          -2.9014   -2.4961   -5.9326 H       1  UNL1        0.0845
     41 H          -1.1891   -3.8078   -4.7198 H       1  UNL1        0.0845
     42 H          -4.7729    0.8655    3.0917 H       1  UNL1        0.0845
     43 H          -1.7928    3.5972    1.8611 H       1  UNL1        0.0634
     44 H          -1.4848    2.2987   -0.2760 H       1  UNL1        0.0652
@<TRIPOS>BOND
     1     1     2    1
     2     2     3    1
     3     3     4    1
     4     4     5    1
     5     5     6    1
     6     6     7    1
     7     5     8   am
     8     8     9    2
     9     8    10    1
    10    10    11    1
    11    11    12    1
    12    12    13   am
    13    13    14    2
    14    13    15    1
    15    15    16   ar
    16    16    17   ar
    17    17    18   ar
    18    18    19   ar
    19    19    20   ar
    20    12    21    1
    21    21    22   ar
    22    22    23   ar
    23    23    24   ar
    24    24    25    1
    25    24    26   ar
    26    26    27   ar
    27     7     2    1
    28    20    11    1
    29    27    21   ar
    30    20    15   ar
    31     1    28    1
    32     1    29    1
    33     1    30    1
    34     3    31    1
    35     3    32    1
    36     4    33    1
    37     4    34    1
    38     6    35    1
    39     6    36    1
    40     7    37    1
    41     7    38    1
    42    11    39    1
    43    17    40    1
    44    18    41    1
    45    23    42    1
    46    26    43    1
    47    27    44    1
