@<TRIPOS>MOLECULE
*****
 43 45 0 0 0
SMALL
GASTEIGER

@<TRIPOS>ATOM
      1 C          -7.0651    2.1699    0.3448 C.3     1  UNL1       -0.0397
      2 C          -6.0796    1.0798    0.6688 C.ar    1  UNL1       -0.0497
      3 C          -6.3883    0.1884    1.6625 C.ar    1  UNL1       -0.0588
      4 C          -5.5268   -0.8289    2.0029 C.ar    1  UNL1       -0.0608
      5 C          -4.3346   -0.9182    1.3026 C.ar    1  UNL1       -0.0496
      6 C          -4.0028   -0.0354    0.3014 C.ar    1  UNL1        0.0373
      7 C          -2.7433   -0.1485   -0.4217 C.2     1  UNL1        0.2483
      8 O          -2.4864    0.6887   -1.3333 O.2     1  UNL1       -0.2699
      9 N          -1.7784   -1.1364   -0.1752 N.am    1  UNL1       -0.2814
     10 C          -0.5395   -1.2370   -0.8959 C.ar    1  UNL1        0.0354
     11 C          -0.4840   -2.0021   -2.0435 C.ar    1  UNL1       -0.0404
     12 C           0.7264   -2.0668   -2.6984 C.ar    1  UNL1       -0.0583
     13 C           1.8380   -1.3987   -2.2331 C.ar    1  UNL1       -0.0404
     14 C           1.7796   -0.6252   -1.0718 C.ar    1  UNL1        0.0354
     15 N           2.9403    0.0622   -0.6008 N.am    1  UNL1       -0.2814
     16 C           3.8628   -0.5244    0.3023 C.2     1  UNL1        0.2483
     17 O           3.5945   -1.7057    0.6705 O.2     1  UNL1       -0.2699
     18 C           5.0551    0.1490    0.8013 C.ar    1  UNL1        0.0370
     19 C           5.3973    1.4125    0.4451 C.ar    1  UNL1       -0.0496
     20 C           6.5465    2.0502    0.9314 C.ar    1  UNL1       -0.0610
     21 C           7.3641    1.3787    1.8025 C.ar    1  UNL1       -0.0617
     22 C           7.0269    0.0830    2.1772 C.ar    1  UNL1       -0.0610
     23 C           5.8828   -0.5198    1.6781 C.ar    1  UNL1       -0.0496
     24 C           0.5666   -0.5633   -0.4197 C.ar    1  UNL1       -0.0192
     25 C          -4.8947    0.9660   -0.0050 C.ar    1  UNL1       -0.0467
     26 H          -6.5401    3.0188   -0.0989 H       1  UNL1        0.0278
     27 H          -7.5553    2.4651    1.2957 H       1  UNL1        0.0278
     28 H          -7.8520    1.8065   -0.3476 H       1  UNL1        0.0278
     29 H          -7.3232    0.2691    2.2022 H       1  UNL1        0.0620
     30 H          -5.7636   -1.5317    2.7821 H       1  UNL1        0.0618
     31 H          -3.6815   -1.7349    1.6010 H       1  UNL1        0.0625
     32 H          -1.9381   -1.8441    0.5579 H       1  UNL1        0.1551
     33 H          -1.3826   -2.5071   -2.3683 H       1  UNL1        0.0636
     34 H           0.7830   -2.6619   -3.5973 H       1  UNL1        0.0619
     35 H           2.8072   -1.4337   -2.7328 H       1  UNL1        0.0636
     36 H           3.1208    1.0336   -0.9310 H       1  UNL1        0.1551
     37 H           4.7856    1.9643   -0.2297 H       1  UNL1        0.0625
     38 H           6.8057    3.0578    0.6379 H       1  UNL1        0.0618
     39 H           8.2707    1.8174    2.2162 H       1  UNL1        0.0618
     40 H           7.6712   -0.4491    2.8651 H       1  UNL1        0.0618
     41 H           5.6949   -1.5292    2.0210 H       1  UNL1        0.0625
     42 H           0.5399    0.0427    0.4812 H       1  UNL1        0.0655
     43 H          -4.7000    1.6984   -0.7829 H       1  UNL1        0.0628
@<TRIPOS>BOND
     1     1     2    1
     2     2     3   ar
     3     3     4   ar
     4     4     5   ar
     5     5     6   ar
     6     6     7    1
     7     7     8    2
     8     7     9   am
     9     9    10    1
    10    10    11   ar
    11    11    12   ar
    12    12    13   ar
    13    13    14   ar
    14    14    15    1
    15    15    16   am
    16    16    17    2
    17    16    18    1
    18    18    19   ar
    19    19    20   ar
    20    20    21   ar
    21    21    22   ar
    22    22    23   ar
    23    14    24   ar
    24     6    25   ar
    25    25     2   ar
    26    24    10   ar
    27    23    18   ar
    28     1    26    1
    29     1    27    1
    30     1    28    1
    31     3    29    1
    32     4    30    1
    33     5    31    1
    34     9    32    1
    35    11    33    1
    36    12    34    1
    37    13    35    1
    38    15    36    1
    39    19    37    1
    40    20    38    1
    41    21    39    1
    42    22    40    1
    43    23    41    1
    44    24    42    1
    45    25    43    1
