@<TRIPOS>MOLECULE
*****
 41 43 0 0 0
SMALL
GASTEIGER

@<TRIPOS>ATOM
      1 C           2.5442   -0.9493   -2.3418 C.3     1  UNL1        0.0788
      2 O           3.4884   -0.4326   -1.4425 O.3     1  UNL1       -0.4943
      3 C           3.0333    0.0412   -0.2144 C.ar    1  UNL1        0.1325
      4 C           1.6888    0.0086    0.1216 C.ar    1  UNL1        0.0020
      5 C           1.2261    0.4646    1.3114 C.ar    1  UNL1        0.0383
      6 N          -0.1169    0.4766    1.7494 N.am    1  UNL1       -0.2691
      7 C          -1.2237    0.0127    1.0210 C.2     1  UNL1        0.3081
      8 O          -1.1127   -0.4648   -0.1106 O.2     1  UNL1       -0.2522
      9 N          -2.5645    0.0628    1.5460 N.am    1  UNL1       -0.2692
     10 C          -3.6822   -0.4077    0.8058 C.ar    1  UNL1        0.0350
     11 C          -4.0981   -1.7165    0.9028 C.ar    1  UNL1       -0.0404
     12 C          -5.1965   -2.1897    0.1789 C.ar    1  UNL1       -0.0598
     13 C          -5.8637   -1.3070   -0.6452 C.ar    1  UNL1       -0.0587
     14 C          -5.4738    0.0109   -0.7660 C.ar    1  UNL1       -0.0487
     15 C          -6.2407    0.9017   -1.6725 C.3     1  UNL1       -0.0397
     16 C          -4.4023    0.4362   -0.0479 C.ar    1  UNL1       -0.0375
     17 C           2.1894    0.9747    2.1895 C.ar    1  UNL1       -0.0395
     18 C           3.5276    1.0095    1.8606 C.ar    1  UNL1       -0.0458
     19 C           3.9804    0.5419    0.6472 C.ar    1  UNL1        0.0605
     20 C           5.3861    0.5701    0.2824 C.ar    1  UNL1        0.1584
     21 C           6.4413    1.0374    1.0343 C.ar    1  UNL1        0.0738
     22 N           7.5479    0.8739    0.3203 N.ar    1  UNL1       -0.2240
     23 C           7.1763    0.3185   -0.8430 C.ar    1  UNL1        0.1825
     24 O           5.8799    0.1428   -0.8506 O.2     1  UNL1       -0.4424
     25 H           1.7645   -0.1988   -2.6064 H       1  UNL1        0.0660
     26 H           3.0015   -1.2591   -3.3032 H       1  UNL1        0.0660
     27 H           1.9799   -1.8167   -1.9134 H       1  UNL1        0.0660
     28 H           1.0101   -0.3981   -0.6057 H       1  UNL1        0.0673
     29 H          -0.3493    0.8668    2.7176 H       1  UNL1        0.1564
     30 H          -2.6723    0.4638    2.5009 H       1  UNL1        0.1564
     31 H          -3.5982   -2.4281    1.5367 H       1  UNL1        0.0636
     32 H          -5.5430   -3.1957    0.2319 H       1  UNL1        0.0618
     33 H          -6.7165   -1.6870   -1.2031 H       1  UNL1        0.0620
     34 H          -5.5722    1.2621   -2.5080 H       1  UNL1        0.0278
     35 H          -7.1126    0.3920   -2.0852 H       1  UNL1        0.0278
     36 H          -6.5378    1.8310   -1.1152 H       1  UNL1        0.0278
     37 H          -4.0576    1.4601   -0.1083 H       1  UNL1        0.0639
     38 H           1.8343    1.3453    3.1501 H       1  UNL1        0.0636
     39 H           4.2219    1.4149    2.5803 H       1  UNL1        0.0626
     40 H           6.3044    1.4527    2.0309 H       1  UNL1        0.0868
     41 H           7.9078    0.0783   -1.6187 H       1  UNL1        0.1255
@<TRIPOS>BOND
     1     1     2    1
     2     2     3    1
     3     3     4   ar
     4     4     5   ar
     5     5     6    1
     6     6     7   am
     7     7     8    2
     8     7     9   am
     9     9    10    1
    10    10    11   ar
    11    11    12   ar
    12    12    13   ar
    13    13    14   ar
    14    14    15    1
    15    14    16   ar
    16     5    17   ar
    17    17    18   ar
    18    18    19   ar
    19    19    20    1
    20    20    21   ar
    21    21    22   ar
    22    22    23   ar
    23    23    24   ar
    24    19     3   ar
    25    24    20   ar
    26    16    10   ar
    27     1    25    1
    28     1    26    1
    29     1    27    1
    30     4    28    1
    31     6    29    1
    32     9    30    1
    33    11    31    1
    34    12    32    1
    35    13    33    1
    36    15    34    1
    37    15    35    1
    38    15    36    1
    39    16    37    1
    40    17    38    1
    41    18    39    1
    42    21    40    1
    43    23    41    1
