
     RDKit          3D

 56 60  0  0  0  0  0  0  0  0999 V2000
   -7.7668    1.7665   -1.3243 O   0  0  0  0  0  0  0  0  0  0  0  0
   -7.5061    0.6724   -0.5242 C   0  0  0  0  0  0  0  0  0  0  0  0
   -6.0554    0.5735   -0.1783 C   0  0  0  0  0  0  0  0  0  0  0  0
   -5.1730    0.4362   -1.3842 C   0  0  0  0  0  0  0  0  0  0  0  0
   -3.7238    0.5025   -0.9485 C   0  0  0  0  0  0  0  0  0  0  0  0
   -3.6741    0.3795    0.5083 N   0  0  0  0  0  0  0  0  0  0  0  0
   -3.0982   -0.7628    1.1240 C   0  0  0  0  0  0  0  0  0  0  0  0
   -3.8066   -1.5841    1.9380 N   0  0  0  0  0  0  0  0  0  0  0  0
   -3.2948   -2.6603    2.5271 C   0  0  0  0  0  0  0  0  0  0  0  0
   -1.9675   -2.9917    2.3206 C   0  0  0  0  0  0  0  0  0  0  0  0
   -1.2167   -2.1672    1.4905 C   0  0  0  0  0  0  0  0  0  0  0  0
   -1.7727   -1.0534    0.8897 C   0  0  0  0  0  0  0  0  0  0  0  0
   -1.0406   -0.2179    0.0585 O   0  0  0  0  0  0  0  0  0  0  0  0
    0.2984   -0.5347   -0.1584 C   0  0  0  0  0  0  0  0  0  0  0  0
    1.3240   -0.0575    0.6359 C   0  0  0  0  0  0  0  0  0  0  0  0
    2.6436   -0.3756    0.4149 C   0  0  0  0  0  0  0  0  0  0  0  0
    2.9912   -1.1965   -0.6283 C   0  0  0  0  0  0  0  0  0  0  0  0
    4.3163   -1.5653   -0.9705 N   0  0  0  0  0  0  0  0  0  0  0  0
    5.4263   -0.7227   -0.7531 C   0  0  0  0  0  0  0  0  0  0  0  0
    6.7208   -1.1653   -0.8491 N   0  0  0  0  0  0  0  0  0  0  0  0
    7.5347   -0.1305   -0.6258 C   0  0  0  0  0  0  0  0  0  0  0  0
    8.9125    0.0409   -0.5884 C   0  0  0  0  0  0  0  0  0  0  0  0
    9.5075    1.2501   -0.3271 C   0  0  0  0  0  0  0  0  0  0  0  0
    8.7041    2.3652   -0.0866 C   0  0  0  0  0  0  0  0  0  0  0  0
    7.3373    2.2233   -0.1172 C   0  0  0  0  0  0  0  0  0  0  0  0
    6.7798    0.9945   -0.3828 C   0  0  0  0  0  0  0  0  0  0  0  0
    5.4967    0.5787   -0.4729 N   0  0  0  0  0  0  0  0  0  0  0  0
    1.9589   -1.6892   -1.4435 C   0  0  0  0  0  0  0  0  0  0  0  0
    0.6485   -1.3596   -1.2050 C   0  0  0  0  0  0  0  0  0  0  0  0
   -4.2463    1.4881    1.2480 C   0  0  0  0  0  0  0  0  0  0  0  0
   -5.6089    1.7778    0.6327 C   0  0  0  0  0  0  0  0  0  0  0  0
   -8.1142    2.5066   -0.7418 H   0  0  0  0  0  0  0  0  0  0  0  0
   -7.8089   -0.2990   -1.0065 H   0  0  0  0  0  0  0  0  0  0  0  0
   -8.1230    0.7400    0.3898 H   0  0  0  0  0  0  0  0  0  0  0  0
   -5.9235   -0.3424    0.4435 H   0  0  0  0  0  0  0  0  0  0  0  0
   -5.3777    1.2698   -2.0920 H   0  0  0  0  0  0  0  0  0  0  0  0
   -5.3383   -0.5434   -1.8886 H   0  0  0  0  0  0  0  0  0  0  0  0
   -3.1414   -0.3190   -1.4087 H   0  0  0  0  0  0  0  0  0  0  0  0
   -3.2643    1.4788   -1.2328 H   0  0  0  0  0  0  0  0  0  0  0  0
   -3.9082   -3.2947    3.1787 H   0  0  0  0  0  0  0  0  0  0  0  0
   -1.5176   -3.8615    2.7843 H   0  0  0  0  0  0  0  0  0  0  0  0
   -0.1609   -2.3946    1.3021 H   0  0  0  0  0  0  0  0  0  0  0  0
    1.0256    0.5928    1.4579 H   0  0  0  0  0  0  0  0  0  0  0  0
    3.4133   -0.0049    1.0682 H   0  0  0  0  0  0  0  0  0  0  0  0
    4.4552   -2.5317   -1.4134 H   0  0  0  0  0  0  0  0  0  0  0  0
    9.5029   -0.8456   -0.7809 H   0  0  0  0  0  0  0  0  0  0  0  0
   10.5979    1.3348   -0.3084 H   0  0  0  0  0  0  0  0  0  0  0  0
    9.2199    3.2926    0.1141 H   0  0  0  0  0  0  0  0  0  0  0  0
    6.7090    3.0723    0.0664 H   0  0  0  0  0  0  0  0  0  0  0  0
    4.6732    1.2234   -0.3498 H   0  0  0  0  0  0  0  0  0  0  0  0
    2.2442   -2.3476   -2.2773 H   0  0  0  0  0  0  0  0  0  0  0  0
   -0.1421   -1.7612   -1.8619 H   0  0  0  0  0  0  0  0  0  0  0  0
   -3.5559    2.3468    1.1221 H   0  0  0  0  0  0  0  0  0  0  0  0
   -4.3174    1.2630    2.3320 H   0  0  0  0  0  0  0  0  0  0  0  0
   -6.3211    2.0002    1.4557 H   0  0  0  0  0  0  0  0  0  0  0  0
   -5.4762    2.6093   -0.0766 H   0  0  0  0  0  0  0  0  0  0  0  0
  1  2  1  0
  2  3  1  0
  3  4  1  0
  4  5  1  0
  5  6  1  0
  6  7  1  0
  7  8  2  0
  8  9  1  0
  9 10  2  0
 10 11  1  0
 11 12  2  0
 12 13  1  0
 13 14  1  0
 14 15  2  0
 15 16  1  0
 16 17  2  0
 17 18  1  0
 18 19  1  0
 19 20  2  0
 20 21  1  0
 21 22  2  0
 22 23  1  0
 23 24  2  0
 24 25  1  0
 25 26  2  0
 26 27  1  0
 17 28  1  0
 28 29  2  0
  6 30  1  0
 30 31  1  0
 31  3  1  0
 12  7  1  0
 29 14  1  0
 27 19  1  0
 26 21  1  0
  1 32  1  0
  2 33  1  0
  2 34  1  0
  3 35  1  0
  4 36  1  0
  4 37  1  0
  5 38  1  0
  5 39  1  0
  9 40  1  0
 10 41  1  0
 11 42  1  0
 15 43  1  0
 16 44  1  0
 18 45  1  0
 22 46  1  0
 23 47  1  0
 24 48  1  0
 25 49  1  0
 27 50  1  0
 28 51  1  0
 29 52  1  0
 30 53  1  0
 30 54  1  0
 31 55  1  0
 31 56  1  0
M  END
$$$$
