@<TRIPOS>MOLECULE
*****
 56 60 0 0 0
SMALL
GASTEIGER

@<TRIPOS>ATOM
      1 O          -7.7668    1.7665   -1.3243 O.3     1  UNL1       -0.3947
      2 C          -7.5061    0.6724   -0.5242 C.3     1  UNL1        0.0471
      3 C          -6.0554    0.5735   -0.1783 C.3     1  UNL1       -0.0150
      4 C          -5.1730    0.4362   -1.3842 C.3     1  UNL1       -0.0322
      5 C          -3.7238    0.5025   -0.9485 C.3     1  UNL1        0.0139
      6 N          -3.6741    0.3795    0.5083 N.pl3   1  UNL1       -0.3123
      7 C          -3.0982   -0.7628    1.1240 C.ar    1  UNL1        0.1641
      8 N          -3.8066   -1.5841    1.9380 N.ar    1  UNL1       -0.2367
      9 C          -3.2948   -2.6603    2.5271 C.ar    1  UNL1        0.0299
     10 C          -1.9675   -2.9917    2.3206 C.ar    1  UNL1       -0.0400
     11 C          -1.2167   -2.1672    1.4905 C.ar    1  UNL1       -0.0145
     12 C          -1.7727   -1.0534    0.8897 C.ar    1  UNL1        0.1681
     13 O          -1.0406   -0.2179    0.0585 O.3     1  UNL1       -0.4526
     14 C           0.2984   -0.5347   -0.1584 C.ar    1  UNL1        0.1287
     15 C           1.3240   -0.0575    0.6359 C.ar    1  UNL1       -0.0176
     16 C           2.6436   -0.3756    0.4149 C.ar    1  UNL1       -0.0370
     17 C           2.9912   -1.1965   -0.6283 C.ar    1  UNL1        0.0337
     18 N           4.3163   -1.5653   -0.9705 N.pl3   1  UNL1       -0.2851
     19 C           5.4263   -0.7227   -0.7531 C.ar    1  UNL1        0.1983
     20 N           6.7208   -1.1653   -0.8491 N.ar    1  UNL1       -0.2144
     21 C           7.5347   -0.1305   -0.6258 C.ar    1  UNL1        0.0907
     22 C           8.9125    0.0409   -0.5884 C.ar    1  UNL1       -0.0342
     23 C           9.5075    1.2501   -0.3271 C.ar    1  UNL1       -0.0596
     24 C           8.7041    2.3652   -0.0866 C.ar    1  UNL1       -0.0597
     25 C           7.3373    2.2233   -0.1172 C.ar    1  UNL1       -0.0362
     26 C           6.7798    0.9945   -0.3828 C.ar    1  UNL1        0.0674
     27 N           5.4967    0.5787   -0.4729 N.ar    1  UNL1       -0.3258
     28 C           1.9589   -1.6892   -1.4435 C.ar    1  UNL1       -0.0370
     29 C           0.6485   -1.3596   -1.2050 C.ar    1  UNL1       -0.0176
     30 C          -4.2463    1.4881    1.2480 C.3     1  UNL1        0.0139
     31 C          -5.6089    1.7778    0.6327 C.3     1  UNL1       -0.0322
     32 H          -8.1142    2.5066   -0.7418 H       1  UNL1        0.2094
     33 H          -7.8089   -0.2990   -1.0065 H       1  UNL1        0.0560
     34 H          -8.1230    0.7400    0.3898 H       1  UNL1        0.0560
     35 H          -5.9235   -0.3424    0.4435 H       1  UNL1        0.0324
     36 H          -5.3777    1.2698   -2.0920 H       1  UNL1        0.0284
     37 H          -5.3383   -0.5434   -1.8886 H       1  UNL1        0.0284
     38 H          -3.1414   -0.3190   -1.4087 H       1  UNL1        0.0464
     39 H          -3.2643    1.4788   -1.2328 H       1  UNL1        0.0464
     40 H          -3.9082   -3.2947    3.1787 H       1  UNL1        0.0830
     41 H          -1.5176   -3.8615    2.7843 H       1  UNL1        0.0634
     42 H          -0.1609   -2.3946    1.3021 H       1  UNL1        0.0656
     43 H           1.0256    0.5928    1.4579 H       1  UNL1        0.0655
     44 H           3.4133   -0.0049    1.0682 H       1  UNL1        0.0637
     45 H           4.4552   -2.5317   -1.4134 H       1  UNL1        0.1550
     46 H           9.5029   -0.8456   -0.7809 H       1  UNL1        0.0639
     47 H          10.5979    1.3348   -0.3084 H       1  UNL1        0.0618
     48 H           9.2199    3.2926    0.1141 H       1  UNL1        0.0618
     49 H           6.7090    3.0723    0.0664 H       1  UNL1        0.0639
     50 H           4.6732    1.2234   -0.3498 H       1  UNL1        0.1686
     51 H           2.2442   -2.3476   -2.2773 H       1  UNL1        0.0637
     52 H          -0.1421   -1.7612   -1.8619 H       1  UNL1        0.0655
     53 H          -3.5559    2.3468    1.1221 H       1  UNL1        0.0464
     54 H          -4.3174    1.2630    2.3320 H       1  UNL1        0.0464
     55 H          -6.3211    2.0002    1.4557 H       1  UNL1        0.0284
     56 H          -5.4762    2.6093   -0.0766 H       1  UNL1        0.0284
@<TRIPOS>BOND
     1     1     2    1
     2     2     3    1
     3     3     4    1
     4     4     5    1
     5     5     6    1
     6     6     7    1
     7     7     8   ar
     8     8     9   ar
     9     9    10   ar
    10    10    11   ar
    11    11    12   ar
    12    12    13    1
    13    13    14    1
    14    14    15   ar
    15    15    16   ar
    16    16    17   ar
    17    17    18    1
    18    18    19    1
    19    19    20   ar
    20    20    21   ar
    21    21    22   ar
    22    22    23   ar
    23    23    24   ar
    24    24    25   ar
    25    25    26   ar
    26    26    27   ar
    27    17    28   ar
    28    28    29   ar
    29     6    30    1
    30    30    31    1
    31    31     3    1
    32    12     7   ar
    33    29    14   ar
    34    27    19   ar
    35    26    21   ar
    36     1    32    1
    37     2    33    1
    38     2    34    1
    39     3    35    1
    40     4    36    1
    41     4    37    1
    42     5    38    1
    43     5    39    1
    44     9    40    1
    45    10    41    1
    46    11    42    1
    47    15    43    1
    48    16    44    1
    49    18    45    1
    50    22    46    1
    51    23    47    1
    52    24    48    1
    53    25    49    1
    54    27    50    1
    55    28    51    1
    56    29    52    1
    57    30    53    1
    58    30    54    1
    59    31    55    1
    60    31    56    1
