@<TRIPOS>MOLECULE
*****
 39 42 0 0 0
SMALL
GASTEIGER

@<TRIPOS>ATOM
      1 N          -1.6681    2.4481    2.8756 N.pl3   1  UNL1       -0.3380
      2 C          -1.4040    1.3436    2.0508 C.2     1  UNL1        0.1476
      3 N          -0.8655    1.3602    0.9153 N.2     1  UNL1       -0.2495
      4 C          -0.5621    0.2910    0.0154 C.3     1  UNL1        0.1185
      5 C          -1.8336    0.0310   -0.7154 C.ar    1  UNL1        0.0178
      6 C          -2.4418   -1.2072   -0.6774 C.ar    1  UNL1       -0.0507
      7 C          -3.6231   -1.4380   -1.3727 C.ar    1  UNL1       -0.0259
      8 C          -4.1842   -0.4143   -2.1037 C.ar    1  UNL1        0.1261
      9 F          -5.3369   -0.5981   -2.7972 F       1  UNL1       -0.2054
     10 C          -3.5712    0.8254   -2.1385 C.ar    1  UNL1        0.0091
     11 C          -2.4023    1.0641   -1.4539 C.ar    1  UNL1        0.1317
     12 F          -1.8272    2.3024   -1.4927 F       1  UNL1       -0.2050
     13 C           0.5335    0.8010   -0.8919 C.3     1  UNL1        0.0783
     14 O           1.2432   -0.2226   -1.5164 O.3     1  UNL1       -0.3645
     15 C           2.1492   -0.7242   -0.5821 C.3     1  UNL1        0.1347
     16 C           3.4020    0.0254   -0.4979 C.ar    1  UNL1        0.2243
     17 N           4.6490   -0.4857   -0.4464 N.ar    1  UNL1       -0.2196
     18 C           5.5225    0.5276   -0.3750 C.ar    1  UNL1        0.0660
     19 C           4.7936    1.6782   -0.3832 C.ar    1  UNL1        0.1122
     20 O           3.5416    1.3268   -0.4571 O.2     1  UNL1       -0.4452
     21 C           1.5079   -0.7716    0.7844 C.3     1  UNL1       -0.0117
     22 C          -0.0229   -0.9467    0.6353 C.3     1  UNL1        0.0029
     23 C          -0.5485   -1.3734    1.9324 C.3     1  UNL1        0.0064
     24 S          -1.8559   -0.3182    2.6102 S.3     1  UNL1       -0.0907
     25 H          -2.5249    2.4511    3.4596 H       1  UNL1        0.1442
     26 H          -1.0298    3.2628    2.9178 H       1  UNL1        0.1442
     27 H          -2.0375   -2.0566   -0.1055 H       1  UNL1        0.0623
     28 H          -4.1095   -2.4035   -1.3511 H       1  UNL1        0.0646
     29 H          -3.9896    1.6627   -2.7097 H       1  UNL1        0.0675
     30 H           0.2274    1.4910   -1.6690 H       1  UNL1        0.0588
     31 H           1.2197    1.4042   -0.2215 H       1  UNL1        0.0588
     32 H           2.3569   -1.7671   -0.8967 H       1  UNL1        0.0694
     33 H           6.6133    0.4133   -0.3214 H       1  UNL1        0.0862
     34 H           5.2426    2.6711   -0.3344 H       1  UNL1        0.1046
     35 H           1.8481   -1.7052    1.2745 H       1  UNL1        0.0299
     36 H           1.7579    0.0627    1.4309 H       1  UNL1        0.0299
     37 H          -0.0899   -1.7769   -0.0869 H       1  UNL1        0.0337
     38 H           0.2511   -1.3803    2.7369 H       1  UNL1        0.0384
     39 H          -0.9313   -2.4128    1.9586 H       1  UNL1        0.0384
@<TRIPOS>BOND
     1     1     2    1
     2     2     3    2
     3     3     4    1
     4     4     5    1
     5     5     6   ar
     6     6     7   ar
     7     7     8   ar
     8     8     9    1
     9     8    10   ar
    10    10    11   ar
    11    11    12    1
    12     4    13    1
    13    13    14    1
    14    14    15    1
    15    15    16    1
    16    16    17   ar
    17    17    18   ar
    18    18    19   ar
    19    19    20   ar
    20    15    21    1
    21    21    22    1
    22    22    23    1
    23    23    24    1
    24    24     2    1
    25    22     4    1
    26    11     5   ar
    27    20    16   ar
    28     1    25    1
    29     1    26    1
    30     6    27    1
    31     7    28    1
    32    10    29    1
    33    13    30    1
    34    13    31    1
    35    15    32    1
    36    18    33    1
    37    19    34    1
    38    21    35    1
    39    21    36    1
    40    22    37    1
    41    23    38    1
    42    23    39    1
