@<TRIPOS>MOLECULE
*****
 13 12 0 0 0
SMALL
GASTEIGER

@<TRIPOS>ATOM
      1 O           1.2794    1.2958    0.5942 O.3     1  UNL1       -0.2922
      2 N           0.8841    0.1636   -0.0256 N.am    1  UNL1       -0.1756
      3 C          -0.3319    0.1686   -0.8284 C.3     1  UNL1        0.1381
      4 C          -1.5164   -0.1785   -0.0258 C.2     1  UNL1        0.3247
      5 O          -1.5094   -0.4802    1.3370 O.3     1  UNL1       -0.4795
      6 O          -2.6292   -0.2038   -0.6259 O.2     1  UNL1       -0.2491
      7 C           1.6861   -1.0232    0.1293 C.2     1  UNL1        0.2255
      8 O           2.4819   -0.3808    0.8591 O.2     1  UNL1       -0.2772
      9 H           1.3417    2.0384   -0.0697 H       1  UNL1        0.2417
     10 H          -0.2713   -0.5143   -1.6949 H       1  UNL1        0.0605
     11 H          -0.4652    1.2070   -1.1939 H       1  UNL1        0.0605
     12 H          -2.2802   -0.1672    1.9358 H       1  UNL1        0.2951
     13 H           1.3303   -1.9253   -0.3914 H       1  UNL1        0.1274
@<TRIPOS>BOND
     1     1     2    1
     2     2     3    1
     3     3     4    1
     4     4     5    1
     5     4     6    2
     6     2     7   am
     7     7     8    2
     8     1     9    1
     9     3    10    1
    10     3    11    1
    11     5    12    1
    12     7    13    1
