
     RDKit          3D

 13 12  0  0  0  0  0  0  0  0999 V2000
    1.2794    1.2958    0.5942 O   0  0  0  0  0  0  0  0  0  0  0  0
    0.8841    0.1636   -0.0256 N   0  0  0  0  0  0  0  0  0  0  0  0
   -0.3319    0.1686   -0.8284 C   0  0  0  0  0  0  0  0  0  0  0  0
   -1.5164   -0.1785   -0.0258 C   0  0  0  0  0  0  0  0  0  0  0  0
   -1.5094   -0.4802    1.3370 O   0  0  0  0  0  0  0  0  0  0  0  0
   -2.6292   -0.2038   -0.6259 O   0  0  0  0  0  0  0  0  0  0  0  0
    1.6861   -1.0232    0.1293 C   0  0  0  0  0  0  0  0  0  0  0  0
    2.4819   -0.3808    0.8591 O   0  0  0  0  0  0  0  0  0  0  0  0
    1.3417    2.0384   -0.0697 H   0  0  0  0  0  0  0  0  0  0  0  0
   -0.2713   -0.5143   -1.6949 H   0  0  0  0  0  0  0  0  0  0  0  0
   -0.4652    1.2070   -1.1939 H   0  0  0  0  0  0  0  0  0  0  0  0
   -2.2802   -0.1672    1.9358 H   0  0  0  0  0  0  0  0  0  0  0  0
    1.3303   -1.9253   -0.3914 H   0  0  0  0  0  0  0  0  0  0  0  0
  1  2  1  0
  2  3  1  0
  3  4  1  0
  4  5  1  0
  4  6  2  0
  2  7  1  0
  7  8  2  0
  1  9  1  0
  3 10  1  0
  3 11  1  0
  5 12  1  0
  7 13  1  0
M  END
$$$$
