@<TRIPOS>MOLECULE
*****
 33 34 0 0 0
SMALL
GASTEIGER

@<TRIPOS>ATOM
      1 O           1.0901   -3.0545   -0.3052 O.3     1  UNL1       -0.3890
      2 C           0.5262   -1.8233   -0.6259 C.3     1  UNL1        0.0877
      3 C          -0.9656   -1.7730   -0.3610 C.3     1  UNL1        0.0214
      4 C          -1.0753   -0.5196    0.4810 C.3     1  UNL1        0.1422
      5 O           0.0461    0.2491    0.0851 O.3     1  UNL1       -0.3483
      6 C           1.0364   -0.7193    0.2511 C.3     1  UNL1        0.1108
      7 C           2.4060   -0.2296   -0.0846 C.3     1  UNL1        0.0878
      8 O           2.6558    0.8510    0.7878 O.3     1  UNL1       -0.2841
      9 P           4.2067    1.4043    0.4067 P.3     1  UNL1        0.4724
     10 O           5.2546    0.0611    0.4950 O.3     1  UNL1       -0.3026
     11 O           4.2627    2.0132   -1.1697 O.3     1  UNL1       -0.3026
     12 O           4.6176    2.4227    1.4393 O.2     1  UNL1       -0.2275
     13 N          -2.2968    0.1983    0.2860 N.ar    1  UNL1       -0.2740
     14 C          -3.4117   -0.3806    0.7759 C.ar    1  UNL1        0.0170
     15 C          -4.6116    0.2931    0.6015 C.ar    1  UNL1        0.0192
     16 C          -4.5559    1.5076   -0.0646 C.ar    1  UNL1        0.2539
     17 O          -5.6297    2.1235   -0.2278 O.2     1  UNL1       -0.2677
     18 N          -3.4362    2.0593   -0.5406 N.ar    1  UNL1       -0.2749
     19 C          -2.2937    1.3715   -0.3494 C.ar    1  UNL1        0.3313
     20 O          -1.2340    1.8923   -0.7991 O.2     1  UNL1       -0.2464
     21 H           1.9479   -2.9432    0.1965 H       1  UNL1        0.2099
     22 H           0.7563   -1.5819   -1.6712 H       1  UNL1        0.0621
     23 H          -1.2153   -2.6914    0.2119 H       1  UNL1        0.0335
     24 H          -1.5409   -1.6768   -1.2818 H       1  UNL1        0.0335
     25 H          -0.9179   -0.7711    1.5495 H       1  UNL1        0.0840
     26 H           0.9985   -1.0045    1.3201 H       1  UNL1        0.0646
     27 H           2.4475    0.1173   -1.1468 H       1  UNL1        0.0592
     28 H           3.1138   -1.0463    0.0937 H       1  UNL1        0.0592
     29 H           5.1268   -0.4304   -0.3661 H       1  UNL1        0.2220
     30 H           5.0952    2.5532   -1.2427 H       1  UNL1        0.2220
     31 H          -3.4046   -1.3407    1.2944 H       1  UNL1        0.0813
     32 H          -5.5522   -0.1060    0.9664 H       1  UNL1        0.0686
     33 H          -3.4467    2.9747   -1.0343 H       1  UNL1        0.1734
@<TRIPOS>BOND
     1     1     2    1
     2     2     3    1
     3     3     4    1
     4     4     5    1
     5     5     6    1
     6     6     7    1
     7     7     8    1
     8     8     9    1
     9     9    10    1
    10     9    11    1
    11     9    12    2
    12     4    13    1
    13    13    14   ar
    14    14    15   ar
    15    15    16   ar
    16    16    17    2
    17    16    18   ar
    18    18    19   ar
    19    19    20    2
    20     6     2    1
    21    19    13   ar
    22     1    21    1
    23     2    22    1
    24     3    23    1
    25     3    24    1
    26     4    25    1
    27     6    26    1
    28     7    27    1
    29     7    28    1
    30    10    29    1
    31    11    30    1
    32    14    31    1
    33    15    32    1
    34    18    33    1
