
     RDKit          3D

 33 34  0  0  0  0  0  0  0  0999 V2000
    1.0901   -3.0545   -0.3052 O   0  0  0  0  0  0  0  0  0  0  0  0
    0.5262   -1.8233   -0.6259 C   0  0  1  0  0  0  0  0  0  0  0  0
   -0.9656   -1.7730   -0.3610 C   0  0  0  0  0  0  0  0  0  0  0  0
   -1.0753   -0.5196    0.4810 C   0  0  1  0  0  0  0  0  0  0  0  0
    0.0461    0.2491    0.0851 O   0  0  0  0  0  0  0  0  0  0  0  0
    1.0364   -0.7193    0.2511 C   0  0  2  0  0  0  0  0  0  0  0  0
    2.4060   -0.2296   -0.0846 C   0  0  0  0  0  0  0  0  0  0  0  0
    2.6558    0.8510    0.7878 O   0  0  0  0  0  0  0  0  0  0  0  0
    4.2067    1.4043    0.4067 P   0  0  0  0  0  0  0  0  0  0  0  0
    5.2546    0.0611    0.4950 O   0  0  0  0  0  0  0  0  0  0  0  0
    4.2627    2.0132   -1.1697 O   0  0  0  0  0  0  0  0  0  0  0  0
    4.6176    2.4227    1.4393 O   0  0  0  0  0  0  0  0  0  0  0  0
   -2.2968    0.1983    0.2860 N   0  0  0  0  0  0  0  0  0  0  0  0
   -3.4117   -0.3806    0.7759 C   0  0  0  0  0  0  0  0  0  0  0  0
   -4.6116    0.2931    0.6015 C   0  0  0  0  0  0  0  0  0  0  0  0
   -4.5559    1.5076   -0.0646 C   0  0  0  0  0  0  0  0  0  0  0  0
   -5.6297    2.1235   -0.2278 O   0  0  0  0  0  0  0  0  0  0  0  0
   -3.4362    2.0593   -0.5406 N   0  0  0  0  0  0  0  0  0  0  0  0
   -2.2937    1.3715   -0.3494 C   0  0  0  0  0  0  0  0  0  0  0  0
   -1.2340    1.8923   -0.7991 O   0  0  0  0  0  0  0  0  0  0  0  0
    1.9479   -2.9432    0.1965 H   0  0  0  0  0  0  0  0  0  0  0  0
    0.7563   -1.5819   -1.6712 H   0  0  0  0  0  0  0  0  0  0  0  0
   -1.2153   -2.6914    0.2119 H   0  0  0  0  0  0  0  0  0  0  0  0
   -1.5409   -1.6768   -1.2818 H   0  0  0  0  0  0  0  0  0  0  0  0
   -0.9179   -0.7711    1.5495 H   0  0  0  0  0  0  0  0  0  0  0  0
    0.9985   -1.0045    1.3201 H   0  0  0  0  0  0  0  0  0  0  0  0
    2.4475    0.1173   -1.1468 H   0  0  0  0  0  0  0  0  0  0  0  0
    3.1138   -1.0463    0.0937 H   0  0  0  0  0  0  0  0  0  0  0  0
    5.1268   -0.4304   -0.3661 H   0  0  0  0  0  0  0  0  0  0  0  0
    5.0952    2.5532   -1.2427 H   0  0  0  0  0  0  0  0  0  0  0  0
   -3.4046   -1.3407    1.2944 H   0  0  0  0  0  0  0  0  0  0  0  0
   -5.5522   -0.1060    0.9664 H   0  0  0  0  0  0  0  0  0  0  0  0
   -3.4467    2.9747   -1.0343 H   0  0  0  0  0  0  0  0  0  0  0  0
  1  2  1  0
  2  3  1  0
  3  4  1  0
  4  5  1  0
  5  6  1  0
  6  7  1  0
  7  8  1  0
  8  9  1  0
  9 10  1  0
  9 11  1  0
  9 12  2  0
  4 13  1  0
 13 14  1  0
 14 15  2  0
 15 16  1  0
 16 17  2  0
 16 18  1  0
 18 19  1  0
 19 20  2  0
  6  2  1  0
 19 13  1  0
  1 21  1  0
  2 22  1  6
  3 23  1  0
  3 24  1  0
  4 25  1  1
  6 26  1  1
  7 27  1  0
  7 28  1  0
 10 29  1  0
 11 30  1  0
 14 31  1  0
 15 32  1  0
 18 33  1  0
M  END
$$$$
