@<TRIPOS>MOLECULE
*****
 21 21 0 0 0
SMALL
GASTEIGER

@<TRIPOS>ATOM
      1 C          -2.4073   -2.3944    0.5365 C.3     1  UNL1        0.0336
      2 C          -1.6920   -1.1923    0.0834 C.2     1  UNL1        0.3092
      3 O          -1.7565   -0.5456   -0.9933 O.2     1  UNL1       -0.2507
      4 O          -0.7478   -0.5335    0.8587 O.3     1  UNL1       -0.4252
      5 C          -0.0794    0.6026    0.4163 C.ar    1  UNL1        0.1456
      6 C          -0.4632    1.9175    0.5739 C.ar    1  UNL1       -0.0184
      7 C           0.3191    2.9388    0.0712 C.ar    1  UNL1       -0.0582
      8 C           1.4856    2.6167   -0.5880 C.ar    1  UNL1       -0.0608
      9 C           1.9149    1.3179   -0.7727 C.ar    1  UNL1       -0.0442
     10 C           1.1118    0.3159   -0.2589 C.ar    1  UNL1        0.1010
     11 C           1.5955   -1.0466   -0.4720 C.2     1  UNL1        0.3404
     12 O           1.0039   -2.2109   -0.0725 O.3     1  UNL1       -0.4770
     13 O           2.6537   -1.3676   -1.0686 O.2     1  UNL1       -0.2450
     14 H          -2.6623   -3.1033   -0.2740 H       1  UNL1        0.0342
     15 H          -3.3627   -2.0670    0.9985 H       1  UNL1        0.0342
     16 H          -1.8028   -2.8578    1.3278 H       1  UNL1        0.0342
     17 H          -1.3994    2.0254    1.1103 H       1  UNL1        0.0654
     18 H          -0.0385    3.9476    0.2287 H       1  UNL1        0.0619
     19 H           2.0948    3.4456   -0.9811 H       1  UNL1        0.0618
     20 H           2.8386    1.0940   -1.2962 H       1  UNL1        0.0627
     21 H           1.3939   -2.9030    0.5722 H       1  UNL1        0.2954
@<TRIPOS>BOND
     1     1     2    1
     2     2     3    2
     3     2     4    1
     4     4     5    1
     5     5     6   ar
     6     6     7   ar
     7     7     8   ar
     8     8     9   ar
     9     9    10   ar
    10    10    11    1
    11    11    12    1
    12    11    13    2
    13    10     5   ar
    14     1    14    1
    15     1    15    1
    16     1    16    1
    17     6    17    1
    18     7    18    1
    19     8    19    1
    20     9    20    1
    21    12    21    1
