@<TRIPOS>MOLECULE
*****
 39 41 0 0 0
SMALL
GASTEIGER

@<TRIPOS>ATOM
      1 C           2.5713    2.3217   -0.8987 C.3     1  UNL1       -0.0130
      2 N           3.3692    1.1431   -1.1546 N.3     1  UNL1       -0.3080
      3 C           4.5065    1.1709   -0.2642 C.3     1  UNL1       -0.0130
      4 C           2.5334   -0.0191   -0.9188 C.3     1  UNL1        0.0024
      5 C           2.1873   -0.1965    0.5582 C.3     1  UNL1       -0.0129
      6 C           1.3209   -1.4252    0.6496 C.ar    1  UNL1       -0.0211
      7 C           1.6275   -2.7034    1.0746 C.ar    1  UNL1        0.0059
      8 N           0.4904   -3.4385    0.9631 N.ar    1  UNL1       -0.3604
      9 C          -0.5090   -2.6865    0.4914 C.ar    1  UNL1        0.0467
     10 C          -0.0179   -1.3946    0.2789 C.ar    1  UNL1        0.0032
     11 C          -0.8885   -0.4662   -0.2040 C.ar    1  UNL1       -0.0474
     12 C          -2.2193   -0.6823   -0.5048 C.ar    1  UNL1       -0.0254
     13 C          -2.9955    0.4540   -1.0166 C.3     1  UNL1        0.0682
     14 N          -3.5966    1.2418    0.0365 N.ar    1  UNL1       -0.2477
     15 C          -4.7807    1.1847    0.6796 C.ar    1  UNL1        0.1146
     16 N          -4.8712    2.1602    1.6006 N.ar    1  UNL1       -0.2228
     17 C          -3.6946    2.8261    1.5030 C.ar    1  UNL1        0.1380
     18 N          -2.9210    2.2729    0.5578 N.ar    1  UNL1       -0.1581
     19 C          -2.6688   -1.9642   -0.2839 C.ar    1  UNL1       -0.0548
     20 C          -1.8467   -2.9722    0.2072 C.ar    1  UNL1       -0.0375
     21 H           3.0743    2.9583   -0.1547 H       1  UNL1        0.0391
     22 H           1.5629    2.0428   -0.5497 H       1  UNL1        0.0391
     23 H           2.5158    2.8795   -1.8860 H       1  UNL1        0.0391
     24 H           4.1426    1.6207    0.6847 H       1  UNL1        0.0391
     25 H           5.2925    1.8417   -0.6625 H       1  UNL1        0.0391
     26 H           4.8840    0.1764    0.0053 H       1  UNL1        0.0391
     27 H           3.1156   -0.8819   -1.2931 H       1  UNL1        0.0429
     28 H           1.6171    0.0118   -1.5371 H       1  UNL1        0.0429
     29 H           1.5888    0.6598    0.9258 H       1  UNL1        0.0326
     30 H           3.0700   -0.3939    1.1590 H       1  UNL1        0.0326
     31 H           2.6223   -2.9335    1.4065 H       1  UNL1        0.0810
     32 H           0.4494   -4.4477    1.2219 H       1  UNL1        0.1653
     33 H          -0.4598    0.5152   -0.3500 H       1  UNL1        0.0627
     34 H          -3.8623    0.0624   -1.6176 H       1  UNL1        0.0559
     35 H          -2.3725    1.0645   -1.6746 H       1  UNL1        0.0559
     36 H          -5.5038    0.4067    0.4084 H       1  UNL1        0.1044
     37 H          -3.3781    3.6821    2.0793 H       1  UNL1        0.1065
     38 H          -3.7226   -2.1423   -0.5209 H       1  UNL1        0.0622
     39 H          -2.2328   -3.9492    0.3648 H       1  UNL1        0.0638
@<TRIPOS>BOND
     1     1     2    1
     2     2     3    1
     3     2     4    1
     4     4     5    1
     5     5     6    1
     6     6     7   ar
     7     7     8   ar
     8     8     9   ar
     9     9    10   ar
    10    10    11   ar
    11    11    12   ar
    12    12    13    1
    13    13    14    1
    14    14    15   ar
    15    15    16   ar
    16    16    17   ar
    17    17    18   ar
    18    12    19   ar
    19    19    20   ar
    20    10     6   ar
    21    18    14   ar
    22    20     9   ar
    23     1    21    1
    24     1    22    1
    25     1    23    1
    26     3    24    1
    27     3    25    1
    28     3    26    1
    29     4    27    1
    30     4    28    1
    31     5    29    1
    32     5    30    1
    33     7    31    1
    34     8    32    1
    35    11    33    1
    36    13    34    1
    37    13    35    1
    38    15    36    1
    39    17    37    1
    40    19    38    1
    41    20    39    1
