
     RDKit          3D

 39 41  0  0  0  0  0  0  0  0999 V2000
    2.5713    2.3217   -0.8987 C   0  0  0  0  0  0  0  0  0  0  0  0
    3.3692    1.1431   -1.1546 N   0  0  0  0  0  0  0  0  0  0  0  0
    4.5065    1.1709   -0.2642 C   0  0  0  0  0  0  0  0  0  0  0  0
    2.5334   -0.0191   -0.9188 C   0  0  0  0  0  0  0  0  0  0  0  0
    2.1873   -0.1965    0.5582 C   0  0  0  0  0  0  0  0  0  0  0  0
    1.3209   -1.4252    0.6496 C   0  0  0  0  0  0  0  0  0  0  0  0
    1.6275   -2.7034    1.0746 C   0  0  0  0  0  0  0  0  0  0  0  0
    0.4904   -3.4385    0.9631 N   0  0  0  0  0  0  0  0  0  0  0  0
   -0.5090   -2.6865    0.4914 C   0  0  0  0  0  0  0  0  0  0  0  0
   -0.0179   -1.3946    0.2789 C   0  0  0  0  0  0  0  0  0  0  0  0
   -0.8885   -0.4662   -0.2040 C   0  0  0  0  0  0  0  0  0  0  0  0
   -2.2193   -0.6823   -0.5048 C   0  0  0  0  0  0  0  0  0  0  0  0
   -2.9955    0.4540   -1.0166 C   0  0  0  0  0  0  0  0  0  0  0  0
   -3.5966    1.2418    0.0365 N   0  0  0  0  0  0  0  0  0  0  0  0
   -4.7807    1.1847    0.6796 C   0  0  0  0  0  0  0  0  0  0  0  0
   -4.8712    2.1602    1.6006 N   0  0  0  0  0  0  0  0  0  0  0  0
   -3.6946    2.8261    1.5030 C   0  0  0  0  0  0  0  0  0  0  0  0
   -2.9210    2.2729    0.5578 N   0  0  0  0  0  0  0  0  0  0  0  0
   -2.6688   -1.9642   -0.2839 C   0  0  0  0  0  0  0  0  0  0  0  0
   -1.8467   -2.9722    0.2072 C   0  0  0  0  0  0  0  0  0  0  0  0
    3.0743    2.9583   -0.1547 H   0  0  0  0  0  0  0  0  0  0  0  0
    1.5629    2.0428   -0.5497 H   0  0  0  0  0  0  0  0  0  0  0  0
    2.5158    2.8795   -1.8860 H   0  0  0  0  0  0  0  0  0  0  0  0
    4.1426    1.6207    0.6847 H   0  0  0  0  0  0  0  0  0  0  0  0
    5.2925    1.8417   -0.6625 H   0  0  0  0  0  0  0  0  0  0  0  0
    4.8840    0.1764    0.0053 H   0  0  0  0  0  0  0  0  0  0  0  0
    3.1156   -0.8819   -1.2931 H   0  0  0  0  0  0  0  0  0  0  0  0
    1.6171    0.0118   -1.5371 H   0  0  0  0  0  0  0  0  0  0  0  0
    1.5888    0.6598    0.9258 H   0  0  0  0  0  0  0  0  0  0  0  0
    3.0700   -0.3939    1.1590 H   0  0  0  0  0  0  0  0  0  0  0  0
    2.6223   -2.9335    1.4065 H   0  0  0  0  0  0  0  0  0  0  0  0
    0.4494   -4.4477    1.2219 H   0  0  0  0  0  0  0  0  0  0  0  0
   -0.4598    0.5152   -0.3500 H   0  0  0  0  0  0  0  0  0  0  0  0
   -3.8623    0.0624   -1.6176 H   0  0  0  0  0  0  0  0  0  0  0  0
   -2.3725    1.0645   -1.6746 H   0  0  0  0  0  0  0  0  0  0  0  0
   -5.5038    0.4067    0.4084 H   0  0  0  0  0  0  0  0  0  0  0  0
   -3.3781    3.6821    2.0793 H   0  0  0  0  0  0  0  0  0  0  0  0
   -3.7226   -2.1423   -0.5209 H   0  0  0  0  0  0  0  0  0  0  0  0
   -2.2328   -3.9492    0.3648 H   0  0  0  0  0  0  0  0  0  0  0  0
  1  2  1  0
  2  3  1  0
  2  4  1  0
  4  5  1  0
  5  6  1  0
  6  7  2  0
  7  8  1  0
  8  9  1  0
  9 10  2  0
 10 11  1  0
 11 12  2  0
 12 13  1  0
 13 14  1  0
 14 15  1  0
 15 16  2  0
 16 17  1  0
 17 18  2  0
 12 19  1  0
 19 20  2  0
 10  6  1  0
 18 14  1  0
 20  9  1  0
  1 21  1  0
  1 22  1  0
  1 23  1  0
  3 24  1  0
  3 25  1  0
  3 26  1  0
  4 27  1  0
  4 28  1  0
  5 29  1  0
  5 30  1  0
  7 31  1  0
  8 32  1  0
 11 33  1  0
 13 34  1  0
 13 35  1  0
 15 36  1  0
 17 37  1  0
 19 38  1  0
 20 39  1  0
M  END
$$$$
