@<TRIPOS>MOLECULE
*****
 43 46 0 0 0
SMALL
GASTEIGER

@<TRIPOS>ATOM
      1 C          -5.2454    2.8838    0.4588 C.3     1  UNL1       -0.0046
      2 C          -4.9182    1.4375    0.4000 C.ar    1  UNL1        0.1280
      3 N          -5.7459    0.3978    0.4803 N.ar    1  UNL1       -0.1345
      4 N          -5.0309   -0.6969    0.3822 N.ar    1  UNL1       -0.1293
      5 C          -3.7132   -0.4181    0.2350 C.ar    1  UNL1        0.1642
      6 C          -2.6342   -1.4360    0.0388 C.ar    1  UNL1        0.0504
      7 C          -2.9543   -2.7504   -0.1280 C.ar    1  UNL1       -0.0309
      8 C          -4.3853   -3.2850   -0.0186 C.3     1  UNL1       -0.0385
      9 C          -1.9742   -3.6451   -0.3970 C.ar    1  UNL1       -0.0189
     10 S          -0.5030   -2.5955   -0.4196 S.2     1  UNL1       -0.0809
     11 C          -1.3488   -1.1043   -0.0711 C.ar    1  UNL1        0.0827
     12 N          -0.6010    0.1458    0.0593 N.am    1  UNL1       -0.2792
     13 C           0.7734    0.1892   -0.3225 C.2     1  UNL1        0.2219
     14 O           1.3105   -0.8468   -0.7620 O.2     1  UNL1       -0.2751
     15 C           1.5647    1.4569   -0.2001 C.3     1  UNL1        0.0500
     16 C           2.9560    1.2413   -0.6635 C.ar    1  UNL1       -0.0295
     17 C           3.3426    1.7178   -1.8862 C.ar    1  UNL1       -0.0574
     18 C           4.6523    1.5056   -2.3017 C.ar    1  UNL1       -0.0594
     19 C           5.5469    0.8358   -1.5146 C.ar    1  UNL1       -0.0357
     20 C           5.1375    0.3651   -0.2888 C.ar    1  UNL1        0.0712
     21 N           6.0451   -0.2850    0.4487 N.ar    1  UNL1       -0.2550
     22 C           5.7322   -0.7770    1.6545 C.ar    1  UNL1        0.0283
     23 C           4.4535   -0.5935    2.1083 C.ar    1  UNL1       -0.0430
     24 C           3.4946    0.0714    1.3738 C.ar    1  UNL1       -0.0509
     25 C           3.8390    0.5656    0.1433 C.ar    1  UNL1        0.0040
     26 N          -3.6591    0.8949    0.2468 N.ar    1  UNL1       -0.3253
     27 H          -6.2623    2.9840   -0.0192 H       1  UNL1        0.0308
     28 H          -4.5629    3.4656   -0.1637 H       1  UNL1        0.0308
     29 H          -5.2948    3.2607    1.5070 H       1  UNL1        0.0308
     30 H          -4.7832   -2.9662    0.9887 H       1  UNL1        0.0278
     31 H          -4.4030   -4.3668   -0.0235 H       1  UNL1        0.0278
     32 H          -4.9634   -2.7670   -0.7824 H       1  UNL1        0.0278
     33 H          -1.9796   -4.7266   -0.5697 H       1  UNL1        0.0697
     34 H          -0.9840    0.9824    0.4375 H       1  UNL1        0.1553
     35 H           1.0672    2.2445   -0.8100 H       1  UNL1        0.0407
     36 H           1.5001    1.7566    0.8644 H       1  UNL1        0.0407
     37 H           2.6692    2.2534   -2.5433 H       1  UNL1        0.0621
     38 H           4.9746    1.8779   -3.2697 H       1  UNL1        0.0618
     39 H           6.5554    0.6994   -1.8902 H       1  UNL1        0.0639
     40 H           6.4829   -1.3048    2.2446 H       1  UNL1        0.0830
     41 H           4.2063   -0.9959    3.0885 H       1  UNL1        0.0633
     42 H           2.4858    0.2098    1.7442 H       1  UNL1        0.0625
     43 H          -2.8433    1.5089    0.1407 H       1  UNL1        0.1685
@<TRIPOS>BOND
     1     1     2    1
     2     2     3   ar
     3     3     4   ar
     4     4     5   ar
     5     5     6    1
     6     6     7   ar
     7     7     8    1
     8     7     9   ar
     9     9    10   ar
    10    10    11   ar
    11    11    12    1
    12    12    13   am
    13    13    14    2
    14    13    15    1
    15    15    16    1
    16    16    17   ar
    17    17    18   ar
    18    18    19   ar
    19    19    20   ar
    20    20    21   ar
    21    21    22   ar
    22    22    23   ar
    23    23    24   ar
    24    24    25   ar
    25     5    26   ar
    26    26     2   ar
    27    11     6   ar
    28    25    16   ar
    29    25    20   ar
    30     1    27    1
    31     1    28    1
    32     1    29    1
    33     8    30    1
    34     8    31    1
    35     8    32    1
    36     9    33    1
    37    12    34    1
    38    15    35    1
    39    15    36    1
    40    17    37    1
    41    18    38    1
    42    19    39    1
    43    22    40    1
    44    23    41    1
    45    24    42    1
    46    26    43    1
