@<TRIPOS>MOLECULE
*****
 43 46 0 0 0
SMALL
GASTEIGER

@<TRIPOS>ATOM
      1 F          -7.3655   -1.0045   -1.2065 F       1  UNL1       -0.2054
      2 C          -6.4208   -1.0522   -0.2379 C.ar    1  UNL1        0.1269
      3 C          -6.8211   -0.8789    1.0752 C.ar    1  UNL1       -0.0262
      4 C          -5.8750   -0.9239    2.0772 C.ar    1  UNL1       -0.0556
      5 C          -4.5503   -1.1421    1.7328 C.ar    1  UNL1       -0.0191
      6 C          -4.1539   -1.3147    0.4203 C.ar    1  UNL1        0.1331
      7 O          -2.8174   -1.5281    0.1483 O.3     1  UNL1       -0.4378
      8 C          -1.9623   -0.4716   -0.0957 C.ar    1  UNL1        0.2254
      9 C          -2.4646    0.8118   -0.0640 C.ar    1  UNL1        0.0305
     10 C          -1.5867    1.8457   -0.3115 C.ar    1  UNL1        0.1522
     11 C          -2.0782    3.2519   -0.2892 C.3     1  UNL1        0.4345
     12 F          -3.2727    3.3448   -0.9557 F       1  UNL1       -0.1644
     13 F          -1.1719    4.0715   -0.9006 F       1  UNL1       -0.1644
     14 F          -2.2748    3.6174    1.0321 F       1  UNL1       -0.1644
     15 N          -0.2893    1.5904   -0.5727 N.ar    1  UNL1       -0.2101
     16 C           0.2082    0.3422   -0.6055 C.ar    1  UNL1        0.2216
     17 N           1.5673    0.0898   -0.8801 N.pl3   1  UNL1       -0.2939
     18 C           2.7065    0.9632   -1.1736 C.3     1  UNL1        0.0468
     19 C           3.5900   -0.1313   -0.5651 C.3     1  UNL1        0.1131
     20 C           4.8763   -0.2103   -1.3047 C.3     1  UNL1        0.0281
     21 N           5.9428   -0.8543   -0.6148 N.3     1  UNL1       -0.3110
     22 C           5.9856   -0.3823    0.7454 C.3     1  UNL1        0.0195
     23 C           4.6414   -0.7865    1.3662 C.3     1  UNL1        0.0610
     24 O           3.6881    0.0151    0.7864 O.3     1  UNL1       -0.3677
     25 C           2.4831   -1.0259   -1.0099 C.3     1  UNL1        0.0468
     26 N          -0.6453   -0.6680   -0.3646 N.ar    1  UNL1       -0.1789
     27 C          -5.1054   -1.2692   -0.5839 C.ar    1  UNL1        0.0160
     28 H          -7.8557   -0.7118    1.3075 H       1  UNL1        0.0646
     29 H          -6.1230   -0.7958    3.1244 H       1  UNL1        0.0620
     30 H          -3.7903   -1.1795    2.5230 H       1  UNL1        0.0654
     31 H          -3.5160    1.0079    0.1484 H       1  UNL1        0.0692
     32 H           2.8757    1.0298   -2.2535 H       1  UNL1        0.0494
     33 H           2.7146    1.8991   -0.5954 H       1  UNL1        0.0494
     34 H           5.1983    0.8253   -1.5701 H       1  UNL1        0.0453
     35 H           4.6935   -0.7265   -2.2684 H       1  UNL1        0.0453
     36 H           6.8540   -0.5480   -1.0684 H       1  UNL1        0.1221
     37 H           6.0126    0.7435    0.6841 H       1  UNL1        0.0446
     38 H           6.8351   -0.7669    1.3191 H       1  UNL1        0.0446
     39 H           4.5080   -1.8665    1.1850 H       1  UNL1        0.0573
     40 H           4.7265   -0.6001    2.4398 H       1  UNL1        0.0573
     41 H           2.5256   -1.3657   -2.0609 H       1  UNL1        0.0494
     42 H           2.3122   -1.8410   -0.2815 H       1  UNL1        0.0494
     43 H          -4.8053   -1.4036   -1.6191 H       1  UNL1        0.0683
@<TRIPOS>BOND
     1     1     2    1
     2     2     3   ar
     3     3     4   ar
     4     4     5   ar
     5     5     6   ar
     6     6     7    1
     7     7     8    1
     8     8     9   ar
     9     9    10   ar
    10    10    11    1
    11    11    12    1
    12    11    13    1
    13    11    14    1
    14    10    15   ar
    15    15    16   ar
    16    16    17    1
    17    17    18    1
    18    18    19    1
    19    19    20    1
    20    20    21    1
    21    21    22    1
    22    22    23    1
    23    23    24    1
    24    19    25    1
    25    16    26   ar
    26     6    27   ar
    27    27     2   ar
    28    26     8   ar
    29    25    17    1
    30    24    19    1
    31     3    28    1
    32     4    29    1
    33     5    30    1
    34     9    31    1
    35    18    32    1
    36    18    33    1
    37    20    34    1
    38    20    35    1
    39    21    36    1
    40    22    37    1
    41    22    38    1
    42    23    39    1
    43    23    40    1
    44    25    41    1
    45    25    42    1
    46    27    43    1
