
     RDKit          3D

 43 46  0  0  0  0  0  0  0  0999 V2000
   -7.3655   -1.0045   -1.2065 F   0  0  0  0  0  0  0  0  0  0  0  0
   -6.4208   -1.0522   -0.2379 C   0  0  0  0  0  0  0  0  0  0  0  0
   -6.8211   -0.8789    1.0752 C   0  0  0  0  0  0  0  0  0  0  0  0
   -5.8750   -0.9239    2.0772 C   0  0  0  0  0  0  0  0  0  0  0  0
   -4.5503   -1.1421    1.7328 C   0  0  0  0  0  0  0  0  0  0  0  0
   -4.1539   -1.3147    0.4203 C   0  0  0  0  0  0  0  0  0  0  0  0
   -2.8174   -1.5281    0.1483 O   0  0  0  0  0  0  0  0  0  0  0  0
   -1.9623   -0.4716   -0.0957 C   0  0  0  0  0  0  0  0  0  0  0  0
   -2.4646    0.8118   -0.0640 C   0  0  0  0  0  0  0  0  0  0  0  0
   -1.5867    1.8457   -0.3115 C   0  0  0  0  0  0  0  0  0  0  0  0
   -2.0782    3.2519   -0.2892 C   0  0  0  0  0  0  0  0  0  0  0  0
   -3.2727    3.3448   -0.9557 F   0  0  0  0  0  0  0  0  0  0  0  0
   -1.1719    4.0715   -0.9006 F   0  0  0  0  0  0  0  0  0  0  0  0
   -2.2748    3.6174    1.0321 F   0  0  0  0  0  0  0  0  0  0  0  0
   -0.2893    1.5904   -0.5727 N   0  0  0  0  0  0  0  0  0  0  0  0
    0.2082    0.3422   -0.6055 C   0  0  0  0  0  0  0  0  0  0  0  0
    1.5673    0.0898   -0.8801 N   0  0  0  0  0  0  0  0  0  0  0  0
    2.7065    0.9632   -1.1736 C   0  0  0  0  0  0  0  0  0  0  0  0
    3.5900   -0.1313   -0.5651 C   0  0  0  0  0  0  0  0  0  0  0  0
    4.8763   -0.2103   -1.3047 C   0  0  0  0  0  0  0  0  0  0  0  0
    5.9428   -0.8543   -0.6148 N   0  0  0  0  0  0  0  0  0  0  0  0
    5.9856   -0.3823    0.7454 C   0  0  0  0  0  0  0  0  0  0  0  0
    4.6414   -0.7865    1.3662 C   0  0  0  0  0  0  0  0  0  0  0  0
    3.6881    0.0151    0.7864 O   0  0  0  0  0  0  0  0  0  0  0  0
    2.4831   -1.0259   -1.0099 C   0  0  0  0  0  0  0  0  0  0  0  0
   -0.6453   -0.6680   -0.3646 N   0  0  0  0  0  0  0  0  0  0  0  0
   -5.1054   -1.2692   -0.5839 C   0  0  0  0  0  0  0  0  0  0  0  0
   -7.8557   -0.7118    1.3075 H   0  0  0  0  0  0  0  0  0  0  0  0
   -6.1230   -0.7958    3.1244 H   0  0  0  0  0  0  0  0  0  0  0  0
   -3.7903   -1.1795    2.5230 H   0  0  0  0  0  0  0  0  0  0  0  0
   -3.5160    1.0079    0.1484 H   0  0  0  0  0  0  0  0  0  0  0  0
    2.8757    1.0298   -2.2535 H   0  0  0  0  0  0  0  0  0  0  0  0
    2.7146    1.8991   -0.5954 H   0  0  0  0  0  0  0  0  0  0  0  0
    5.1983    0.8253   -1.5701 H   0  0  0  0  0  0  0  0  0  0  0  0
    4.6935   -0.7265   -2.2684 H   0  0  0  0  0  0  0  0  0  0  0  0
    6.8540   -0.5480   -1.0684 H   0  0  0  0  0  0  0  0  0  0  0  0
    6.0126    0.7435    0.6841 H   0  0  0  0  0  0  0  0  0  0  0  0
    6.8351   -0.7669    1.3191 H   0  0  0  0  0  0  0  0  0  0  0  0
    4.5080   -1.8665    1.1850 H   0  0  0  0  0  0  0  0  0  0  0  0
    4.7265   -0.6001    2.4398 H   0  0  0  0  0  0  0  0  0  0  0  0
    2.5256   -1.3657   -2.0609 H   0  0  0  0  0  0  0  0  0  0  0  0
    2.3122   -1.8410   -0.2815 H   0  0  0  0  0  0  0  0  0  0  0  0
   -4.8053   -1.4036   -1.6191 H   0  0  0  0  0  0  0  0  0  0  0  0
  1  2  1  0
  2  3  2  0
  3  4  1  0
  4  5  2  0
  5  6  1  0
  6  7  1  0
  7  8  1  0
  8  9  2  0
  9 10  1  0
 10 11  1  0
 11 12  1  0
 11 13  1  0
 11 14  1  0
 10 15  2  0
 15 16  1  0
 16 17  1  0
 17 18  1  0
 18 19  1  0
 19 20  1  0
 20 21  1  0
 21 22  1  0
 22 23  1  0
 23 24  1  0
 19 25  1  0
 16 26  2  0
  6 27  2  0
 27  2  1  0
 26  8  1  0
 25 17  1  0
 24 19  1  0
  3 28  1  0
  4 29  1  0
  5 30  1  0
  9 31  1  0
 18 32  1  0
 18 33  1  0
 20 34  1  0
 20 35  1  0
 21 36  1  0
 22 37  1  0
 22 38  1  0
 23 39  1  0
 23 40  1  0
 25 41  1  0
 25 42  1  0
 27 43  1  0
M  END
$$$$
