@<TRIPOS>MOLECULE
*****
 42 43 0 0 0
SMALL
GASTEIGER

@<TRIPOS>ATOM
      1 C          -6.2015   -0.1390   -0.3123 C.3     1  UNL1       -0.0393
      2 C          -4.7242    0.0159   -0.2474 C.ar    1  UNL1       -0.0387
      3 C          -3.8808   -0.2032   -1.3175 C.ar    1  UNL1        0.0080
      4 C          -2.5021   -0.0532   -1.2371 C.ar    1  UNL1        0.1813
      5 C          -1.7398   -0.3249   -2.4695 C.3     1  UNL1        0.0208
      6 N          -1.9405    0.3285   -0.0504 N.ar    1  UNL1       -0.1987
      7 C          -0.5086    0.4746   -0.0055 C.3     1  UNL1        0.1549
      8 C           0.2364   -0.7634    0.3723 C.3     1  UNL1        0.0321
      9 C           1.7038   -0.4266    0.3677 C.ar    1  UNL1       -0.0413
     10 C           2.3354   -0.6206   -0.8308 C.ar    1  UNL1       -0.0565
     11 C           3.6922   -0.3375   -0.9349 C.ar    1  UNL1       -0.0351
     12 C           4.3822    0.1352    0.1730 C.ar    1  UNL1        0.1050
     13 C           3.6897    0.3082    1.3472 C.ar    1  UNL1       -0.0351
     14 C           2.3413    0.0407    1.4991 C.ar    1  UNL1       -0.0565
     15 S           6.0996    0.4926    0.0386 S.O2    1  UNL1        0.0559
     16 N           6.9874   -0.9133    0.4265 N.3     1  UNL1       -0.2035
     17 O           6.4697    1.5702    1.0137 O.2     1  UNL1       -0.1533
     18 O           6.3971    1.0065   -1.3372 O.2     1  UNL1       -0.1533
     19 C          -2.7086    0.5625    1.0482 C.ar    1  UNL1        0.1813
     20 C          -2.1118    0.9739    2.3285 C.3     1  UNL1        0.0208
     21 C          -4.0946    0.3983    0.9196 C.ar    1  UNL1        0.0080
     22 H          -6.6689    0.7867    0.1327 H       1  UNL1        0.0278
     23 H          -6.5510   -0.2109   -1.3383 H       1  UNL1        0.0278
     24 H          -6.4780   -0.9728    0.3615 H       1  UNL1        0.0278
     25 H          -4.3644   -0.5090   -2.2571 H       1  UNL1        0.0682
     26 H          -1.7546    0.5415   -3.1794 H       1  UNL1        0.0336
     27 H          -0.6917   -0.5661   -2.3108 H       1  UNL1        0.0336
     28 H          -2.2361   -1.2023   -2.9804 H       1  UNL1        0.0336
     29 H          -0.0789    0.8485   -0.9811 H       1  UNL1        0.1034
     30 H          -0.1662    1.2755    0.7145 H       1  UNL1        0.1034
     31 H          -0.0632   -1.0774    1.3891 H       1  UNL1        0.0375
     32 H           0.0295   -1.6257   -0.2832 H       1  UNL1        0.0375
     33 H           1.8394   -0.9873   -1.7222 H       1  UNL1        0.0621
     34 H           4.1857   -0.4941   -1.8889 H       1  UNL1        0.0637
     35 H           4.2380    0.6780    2.2069 H       1  UNL1        0.0637
     36 H           1.7957    0.1769    2.4236 H       1  UNL1        0.0621
     37 H           6.3994   -1.5212    1.0272 H       1  UNL1        0.1442
     38 H           7.2817   -1.3895   -0.4553 H       1  UNL1        0.1442
     39 H          -1.3830    1.8041    2.2594 H       1  UNL1        0.0336
     40 H          -2.9427    1.2343    3.0281 H       1  UNL1        0.0336
     41 H          -1.6155    0.0932    2.7916 H       1  UNL1        0.0336
     42 H          -4.6971    0.5921    1.8183 H       1  UNL1        0.0682
@<TRIPOS>UNITY_ATOM_ATTR
6 1
charge 1
@<TRIPOS>BOND
     1     1     2    1
     2     2     3   ar
     3     3     4   ar
     4     4     5    1
     5     4     6   ar
     6     6     7    1
     7     7     8    1
     8     8     9    1
     9     9    10   ar
    10    10    11   ar
    11    11    12   ar
    12    12    13   ar
    13    13    14   ar
    14    12    15    1
    15    15    16    1
    16    15    17    2
    17    15    18    2
    18     6    19   ar
    19    19    20    1
    20    19    21   ar
    21    21     2   ar
    22    14     9   ar
    23     1    22    1
    24     1    23    1
    25     1    24    1
    26     3    25    1
    27     5    26    1
    28     5    27    1
    29     5    28    1
    30     7    29    1
    31     7    30    1
    32     8    31    1
    33     8    32    1
    34    10    33    1
    35    11    34    1
    36    13    35    1
    37    14    36    1
    38    16    37    1
    39    16    38    1
    40    20    39    1
    41    20    40    1
    42    20    41    1
    43    21    42    1
