
     RDKit          3D

 42 43  0  0  0  0  0  0  0  0999 V2000
   -6.2015   -0.1390   -0.3123 C   0  0  0  0  0  0  0  0  0  0  0  0
   -4.7242    0.0159   -0.2474 C   0  0  0  0  0  0  0  0  0  0  0  0
   -3.8808   -0.2032   -1.3175 C   0  0  0  0  0  0  0  0  0  0  0  0
   -2.5021   -0.0532   -1.2371 C   0  0  0  0  0  0  0  0  0  0  0  0
   -1.7398   -0.3249   -2.4695 C   0  0  0  0  0  0  0  0  0  0  0  0
   -1.9405    0.3285   -0.0504 N   0  0  0  0  0  4  0  0  0  0  0  0
   -0.5086    0.4746   -0.0055 C   0  0  0  0  0  0  0  0  0  0  0  0
    0.2364   -0.7634    0.3723 C   0  0  0  0  0  0  0  0  0  0  0  0
    1.7038   -0.4266    0.3677 C   0  0  0  0  0  0  0  0  0  0  0  0
    2.3354   -0.6206   -0.8308 C   0  0  0  0  0  0  0  0  0  0  0  0
    3.6922   -0.3375   -0.9349 C   0  0  0  0  0  0  0  0  0  0  0  0
    4.3822    0.1352    0.1730 C   0  0  0  0  0  0  0  0  0  0  0  0
    3.6897    0.3082    1.3472 C   0  0  0  0  0  0  0  0  0  0  0  0
    2.3413    0.0407    1.4991 C   0  0  0  0  0  0  0  0  0  0  0  0
    6.0996    0.4926    0.0386 S   0  0  0  0  0  0  0  0  0  0  0  0
    6.9874   -0.9133    0.4265 N   0  0  0  0  0  0  0  0  0  0  0  0
    6.4697    1.5702    1.0137 O   0  0  0  0  0  0  0  0  0  0  0  0
    6.3971    1.0065   -1.3372 O   0  0  0  0  0  0  0  0  0  0  0  0
   -2.7086    0.5625    1.0482 C   0  0  0  0  0  0  0  0  0  0  0  0
   -2.1118    0.9739    2.3285 C   0  0  0  0  0  0  0  0  0  0  0  0
   -4.0946    0.3983    0.9196 C   0  0  0  0  0  0  0  0  0  0  0  0
   -6.6689    0.7867    0.1327 H   0  0  0  0  0  0  0  0  0  0  0  0
   -6.5510   -0.2109   -1.3383 H   0  0  0  0  0  0  0  0  0  0  0  0
   -6.4780   -0.9728    0.3615 H   0  0  0  0  0  0  0  0  0  0  0  0
   -4.3644   -0.5090   -2.2571 H   0  0  0  0  0  0  0  0  0  0  0  0
   -1.7546    0.5415   -3.1794 H   0  0  0  0  0  0  0  0  0  0  0  0
   -0.6917   -0.5661   -2.3108 H   0  0  0  0  0  0  0  0  0  0  0  0
   -2.2361   -1.2023   -2.9804 H   0  0  0  0  0  0  0  0  0  0  0  0
   -0.0789    0.8485   -0.9811 H   0  0  0  0  0  0  0  0  0  0  0  0
   -0.1662    1.2755    0.7145 H   0  0  0  0  0  0  0  0  0  0  0  0
   -0.0632   -1.0774    1.3891 H   0  0  0  0  0  0  0  0  0  0  0  0
    0.0295   -1.6257   -0.2832 H   0  0  0  0  0  0  0  0  0  0  0  0
    1.8394   -0.9873   -1.7222 H   0  0  0  0  0  0  0  0  0  0  0  0
    4.1857   -0.4941   -1.8889 H   0  0  0  0  0  0  0  0  0  0  0  0
    4.2380    0.6780    2.2069 H   0  0  0  0  0  0  0  0  0  0  0  0
    1.7957    0.1769    2.4236 H   0  0  0  0  0  0  0  0  0  0  0  0
    6.3994   -1.5212    1.0272 H   0  0  0  0  0  0  0  0  0  0  0  0
    7.2817   -1.3895   -0.4553 H   0  0  0  0  0  0  0  0  0  0  0  0
   -1.3830    1.8041    2.2594 H   0  0  0  0  0  0  0  0  0  0  0  0
   -2.9427    1.2343    3.0281 H   0  0  0  0  0  0  0  0  0  0  0  0
   -1.6155    0.0932    2.7916 H   0  0  0  0  0  0  0  0  0  0  0  0
   -4.6971    0.5921    1.8183 H   0  0  0  0  0  0  0  0  0  0  0  0
  1  2  1  0
  2  3  2  0
  3  4  1  0
  4  5  1  0
  4  6  2  0
  6  7  1  0
  7  8  1  0
  8  9  1  0
  9 10  2  0
 10 11  1  0
 11 12  2  0
 12 13  1  0
 13 14  2  0
 12 15  1  0
 15 16  1  0
 15 17  2  0
 15 18  2  0
  6 19  1  0
 19 20  1  0
 19 21  2  0
 21  2  1  0
 14  9  1  0
  1 22  1  0
  1 23  1  0
  1 24  1  0
  3 25  1  0
  5 26  1  0
  5 27  1  0
  5 28  1  0
  7 29  1  0
  7 30  1  0
  8 31  1  0
  8 32  1  0
 10 33  1  0
 11 34  1  0
 13 35  1  0
 14 36  1  0
 16 37  1  0
 16 38  1  0
 20 39  1  0
 20 40  1  0
 20 41  1  0
 21 42  1  0
M  CHG  1   6   1
M  END
$$$$
