@<TRIPOS>MOLECULE
*****
 51 53 0 0 0
SMALL
GASTEIGER

@<TRIPOS>ATOM
      1 C           7.4218   -1.5530   -1.2155 C.3     1  UNL1        0.0365
      2 O           6.5687   -0.4555   -1.2273 O.3     1  UNL1       -0.3814
      3 C           5.3389   -0.7419   -0.6331 C.3     1  UNL1        0.0645
      4 C           4.4980    0.4910   -0.6942 C.3     1  UNL1        0.0552
      5 C           5.1109    1.5389    0.2427 C.3     1  UNL1       -0.0323
      6 C           3.9857    2.5500    0.2902 C.3     1  UNL1       -0.0370
      7 C           2.7555    1.7160    0.1458 C.3     1  UNL1        0.0209
      8 N           3.1955    0.3434   -0.1158 N.3     1  UNL1       -0.1713
      9 S           2.0545   -0.3335   -1.2180 S.O2    1  UNL1        0.0612
     10 O           2.4520   -1.7711   -1.4806 O.2     1  UNL1       -0.1528
     11 O           2.0448    0.3917   -2.5135 O.2     1  UNL1       -0.1528
     12 C           0.4502   -0.3751   -0.5195 C.ar    1  UNL1        0.1073
     13 C          -0.4063    0.6863   -0.6783 C.ar    1  UNL1       -0.0204
     14 C          -1.6817    0.7087   -0.1505 C.ar    1  UNL1        0.0373
     15 I          -2.9052    2.3859   -0.3939 I       1  UNL1       -0.0418
     16 C          -2.1190   -0.3981    0.5755 C.ar    1  UNL1        0.0608
     17 C          -1.2312   -1.4704    0.7277 C.ar    1  UNL1        0.0512
     18 C           0.0429   -1.4791    0.1943 C.ar    1  UNL1       -0.0225
     19 C          -1.9150   -2.5022    1.5358 C.2     1  UNL1        0.2496
     20 O          -1.3949   -3.6113    1.8659 O.2     1  UNL1       -0.2817
     21 C          -3.2202   -2.0055    1.8481 C.2     1  UNL1        0.2913
     22 O          -4.1400   -2.5324    2.5062 O.2     1  UNL1       -0.2661
     23 N          -3.3389   -0.6835    1.2389 N.am    1  UNL1       -0.2631
     24 C          -4.5546    0.1005    1.3772 C.3     1  UNL1        0.0203
     25 C          -5.5018   -0.2918    0.2404 C.3     1  UNL1       -0.0347
     26 C          -6.8246    0.3853    0.3118 C.3     1  UNL1       -0.0283
     27 C          -6.8526    1.8579    0.2127 C.3     1  UNL1        0.0443
     28 O          -6.3791    2.3511   -0.9947 O.3     1  UNL1       -0.3950
     29 H           6.9982   -2.4193   -1.7621 H       1  UNL1        0.0523
     30 H           7.7030   -1.8215   -0.1761 H       1  UNL1        0.0523
     31 H           8.3536   -1.2350   -1.7279 H       1  UNL1        0.0523
     32 H           5.4299   -1.0906    0.3952 H       1  UNL1        0.0576
     33 H           4.8107   -1.5517   -1.2109 H       1  UNL1        0.0576
     34 H           4.4384    0.9128   -1.7170 H       1  UNL1        0.0502
     35 H           6.0479    1.9353   -0.1387 H       1  UNL1        0.0282
     36 H           5.1718    1.0684    1.2430 H       1  UNL1        0.0282
     37 H           4.1384    3.2222   -0.6040 H       1  UNL1        0.0279
     38 H           4.0117    3.1701    1.2054 H       1  UNL1        0.0279
     39 H           2.1391    1.7641    1.0518 H       1  UNL1        0.0444
     40 H           2.1967    2.0868   -0.7582 H       1  UNL1        0.0444
     41 H          -0.0932    1.5484   -1.2334 H       1  UNL1        0.0648
     42 H           0.6729   -2.3418    0.3519 H       1  UNL1        0.0645
     43 H          -5.0860   -0.1896    2.3332 H       1  UNL1        0.0469
     44 H          -4.4227    1.1777    1.3347 H       1  UNL1        0.0469
     45 H          -5.6805   -1.3956    0.2588 H       1  UNL1        0.0281
     46 H          -5.0223   -0.0345   -0.7217 H       1  UNL1        0.0281
     47 H          -7.4195   -0.0186   -0.5648 H       1  UNL1        0.0288
     48 H          -7.3278    0.0948    1.2681 H       1  UNL1        0.0288
     49 H          -7.9343    2.1779    0.2888 H       1  UNL1        0.0557
     50 H          -6.3642    2.3833    1.0618 H       1  UNL1        0.0557
     51 H          -6.2163    1.6560   -1.6565 H       1  UNL1        0.2094
@<TRIPOS>BOND
     1     1     2    1
     2     2     3    1
     3     3     4    1
     4     4     5    1
     5     5     6    1
     6     6     7    1
     7     7     8    1
     8     8     9    1
     9     9    10    2
    10     9    11    2
    11     9    12    1
    12    12    13   ar
    13    13    14   ar
    14    14    15    1
    15    14    16   ar
    16    16    17   ar
    17    17    18   ar
    18    17    19    1
    19    19    20    2
    20    19    21    1
    21    21    22    2
    22    21    23   am
    23    23    24    1
    24    24    25    1
    25    25    26    1
    26    26    27    1
    27    27    28    1
    28     8     4    1
    29    18    12   ar
    30    23    16    1
    31     1    29    1
    32     1    30    1
    33     1    31    1
    34     3    32    1
    35     3    33    1
    36     4    34    1
    37     5    35    1
    38     5    36    1
    39     6    37    1
    40     6    38    1
    41     7    39    1
    42     7    40    1
    43    13    41    1
    44    18    42    1
    45    24    43    1
    46    24    44    1
    47    25    45    1
    48    25    46    1
    49    26    47    1
    50    26    48    1
    51    27    49    1
    52    27    50    1
    53    28    51    1
