@<TRIPOS>MOLECULE
*****
 93 97 0 0 0
SMALL
GASTEIGER

@<TRIPOS>ATOM
      1 C          -4.7707   -2.5762   -2.1371 C.3     1  UNL1        0.0534
      2 C          -3.3497   -3.1031   -2.0110 C.3     1  UNL1       -0.0523
      3 C          -5.7550   -3.4410   -1.4023 C.3     1  UNL1       -0.0432
      4 C          -7.1499   -2.8779   -1.5579 C.3     1  UNL1       -0.0645
      5 C          -4.8552   -1.1994   -1.5218 C.2     1  UNL1        0.3102
      6 O          -5.1987   -0.1860   -2.1996 O.2     1  UNL1       -0.2505
      7 O          -4.5508   -1.0251   -0.1779 O.3     1  UNL1       -0.4605
      8 C          -4.6273    0.2612    0.3975 C.3     1  UNL1        0.1106
      9 C          -5.8063    0.2731    1.3634 C.3     1  UNL1       -0.0090
     10 C          -5.9859    1.7469    1.7321 C.3     1  UNL1       -0.0218
     11 C          -7.3029    2.0115    2.4028 C.3     1  UNL1       -0.0588
     12 C          -4.8136    2.0666    2.6221 C.2     1  UNL1       -0.0775
     13 C          -3.6737    1.5612    2.1868 C.2     1  UNL1       -0.0444
     14 C          -2.5027    1.8615    3.0486 C.2     1  UNL1       -0.0621
     15 C          -1.5692    0.9150    3.2894 C.2     1  UNL1       -0.0806
     16 C          -1.8818   -0.3622    2.6117 C.3     1  UNL1       -0.0219
     17 C          -0.7288   -1.2930    2.8748 C.3     1  UNL1       -0.0587
     18 C          -2.3068   -0.2804    1.2027 C.3     1  UNL1       -0.0248
     19 C          -1.1925   -0.1861    0.1894 C.3     1  UNL1       -0.0473
     20 C          -0.2934    0.9899    0.3305 C.3     1  UNL1       -0.0339
     21 C           0.7785    0.9800   -0.7243 C.3     1  UNL1        0.0287
     22 C           0.2960    1.0226   -2.1277 C.3     1  UNL1       -0.0077
     23 C          -0.0059    2.4118   -2.6335 C.3     1  UNL1        0.0652
     24 O          -0.7033    3.2049   -1.7564 O.3     1  UNL1       -0.3913
     25 C           1.3549    3.0967   -2.8283 C.3     1  UNL1        0.0502
     26 C           1.9316    3.1154   -1.4345 C.2     1  UNL1        0.2185
     27 O           2.5876    4.1670   -1.1462 O.2     1  UNL1       -0.2755
     28 N           1.7550    2.0292   -0.5000 N.am    1  UNL1       -0.2940
     29 C           2.6517    2.0974    0.6410 C.3     1  UNL1        0.0400
     30 C           3.8916    1.3382    0.4074 C.ar    1  UNL1       -0.0295
     31 C           5.0986    1.7383   -0.1752 C.ar    1  UNL1       -0.0493
     32 C           6.1687    0.8821   -0.3181 C.ar    1  UNL1       -0.0170
     33 C           6.0858   -0.4271    0.1181 C.ar    1  UNL1       -0.0090
     34 C           4.9241   -0.8826    0.7012 C.ar    1  UNL1       -0.0533
     35 C           3.8789    0.0023    0.8250 C.ar    1  UNL1       -0.0565
     36 C           7.2103   -1.2074   -0.0768 C.ar    1  UNL1        0.0271
     37 C           7.0385   -2.6058    0.4373 C.3     1  UNL1        0.0732
     38 O           6.2486   -3.2924   -0.4477 O.3     1  UNL1       -0.3903
     39 C           8.3901   -0.7507   -0.6769 C.ar    1  UNL1        0.1260
     40 O           9.2946   -1.6607   -0.7471 O.3     1  UNL1       -0.4947
     41 C          10.4859   -2.1578   -1.0608 C.3     1  UNL1        0.0788
     42 C           8.3693    0.5725   -1.0778 C.ar    1  UNL1       -0.0190
     43 C           7.2852    1.4442   -0.9255 C.ar    1  UNL1       -0.0505
     44 C          -3.3524    0.7508    0.9700 C.3     1  UNL1        0.0243
     45 H          -4.9719   -2.4979   -3.2121 H       1  UNL1        0.0410
     46 H          -2.6344   -2.4016   -2.4461 H       1  UNL1        0.0238
     47 H          -3.3292   -4.0553   -2.5962 H       1  UNL1        0.0238
     48 H          -3.1166   -3.3205   -0.9590 H       1  UNL1        0.0238
     49 H          -5.6990   -4.4764   -1.7904 H       1  UNL1        0.0270
     50 H          -5.5089   -3.3988   -0.3109 H       1  UNL1        0.0270
     51 H          -7.6600   -2.7761   -0.5639 H       1  UNL1        0.0230
     52 H          -7.8070   -3.6169   -2.1046 H       1  UNL1        0.0230
     53 H          -7.1852   -1.8862   -2.0142 H       1  UNL1        0.0230
     54 H          -4.9445    0.9831   -0.4020 H       1  UNL1        0.0740
     55 H          -6.7049    0.0121    0.7716 H       1  UNL1        0.0307
     56 H          -5.6428   -0.3246    2.2637 H       1  UNL1        0.0307
     57 H          -5.9210    2.3773    0.8318 H       1  UNL1        0.0342
     58 H          -7.3442    3.0708    2.6613 H       1  UNL1        0.0235
     59 H          -8.0872    1.7783    1.6639 H       1  UNL1        0.0235
     60 H          -7.4246    1.3272    3.2731 H       1  UNL1        0.0235
     61 H          -4.9375    2.6476    3.5009 H       1  UNL1        0.0578
     62 H          -2.4218    2.8570    3.4845 H       1  UNL1        0.0617
     63 H          -0.7134    1.1291    3.9150 H       1  UNL1        0.0575
     64 H          -2.7420   -0.8134    3.1944 H       1  UNL1        0.0343
     65 H           0.2566   -0.8014    2.8851 H       1  UNL1        0.0235
     66 H          -0.8388   -1.8120    3.8588 H       1  UNL1        0.0235
     67 H          -0.6871   -2.1004    2.1101 H       1  UNL1        0.0235
     68 H          -2.8070   -1.2718    0.9462 H       1  UNL1        0.0313
     69 H          -1.7326   -0.0523   -0.7963 H       1  UNL1        0.0269
     70 H          -0.6571   -1.1466    0.0528 H       1  UNL1        0.0269
     71 H          -0.8633    1.9412    0.2037 H       1  UNL1        0.0283
     72 H           0.1930    1.0808    1.3240 H       1  UNL1        0.0283
     73 H           1.3695    0.0227   -0.5835 H       1  UNL1        0.0501
     74 H           1.1545    0.6678   -2.7745 H       1  UNL1        0.0308
     75 H          -0.5450    0.3814   -2.3612 H       1  UNL1        0.0308
     76 H          -0.5757    2.3221   -3.5586 H       1  UNL1        0.0598
     77 H          -1.6363    3.2774   -2.0311 H       1  UNL1        0.2098
     78 H           1.1956    4.1120   -3.2049 H       1  UNL1        0.0384
     79 H           1.9362    2.4412   -3.4898 H       1  UNL1        0.0384
     80 H           2.1681    1.6862    1.5577 H       1  UNL1        0.0514
     81 H           2.8634    3.1603    0.8960 H       1  UNL1        0.0514
     82 H           5.0597    2.7945   -0.4863 H       1  UNL1        0.0627
     83 H           4.8635   -1.8932    1.0349 H       1  UNL1        0.0624
     84 H           2.9781   -0.4104    1.2958 H       1  UNL1        0.0621
     85 H           8.0605   -3.0501    0.4354 H       1  UNL1        0.0608
     86 H           6.6912   -2.6342    1.4844 H       1  UNL1        0.0608
     87 H           6.5398   -4.2519   -0.4397 H       1  UNL1        0.2098
     88 H          10.5992   -3.2797   -0.9840 H       1  UNL1        0.0660
     89 H          11.3644   -1.7522   -0.4923 H       1  UNL1        0.0660
     90 H          10.7357   -1.9079   -2.1383 H       1  UNL1        0.0660
     91 H           9.2989    0.8935   -1.5387 H       1  UNL1        0.0654
     92 H           7.3685    2.4615   -1.2718 H       1  UNL1        0.0625
     93 H          -2.9068    1.4810    0.2177 H       1  UNL1        0.0388
@<TRIPOS>BOND
     1     1     2    1
     2     1     3    1
     3     3     4    1
     4     1     5    1
     5     5     6    2
     6     5     7    1
     7     7     8    1
     8     8     9    1
     9     9    10    1
    10    10    11    1
    11    10    12    1
    12    12    13    2
    13    13    14    1
    14    14    15    2
    15    15    16    1
    16    16    17    1
    17    16    18    1
    18    18    19    1
    19    19    20    1
    20    20    21    1
    21    21    22    1
    22    22    23    1
    23    23    24    1
    24    23    25    1
    25    25    26    1
    26    26    27    2
    27    26    28   am
    28    28    29    1
    29    29    30    1
    30    30    31   ar
    31    31    32   ar
    32    32    33   ar
    33    33    34   ar
    34    34    35   ar
    35    33    36   ar
    36    36    37    1
    37    37    38    1
    38    36    39   ar
    39    39    40    1
    40    40    41    1
    41    39    42   ar
    42    42    43   ar
    43    18    44    1
    44    44     8    1
    45    44    13    1
    46    28    21    1
    47    35    30   ar
    48    43    32   ar
    49     1    45    1
    50     2    46    1
    51     2    47    1
    52     2    48    1
    53     3    49    1
    54     3    50    1
    55     4    51    1
    56     4    52    1
    57     4    53    1
    58     8    54    1
    59     9    55    1
    60     9    56    1
    61    10    57    1
    62    11    58    1
    63    11    59    1
    64    11    60    1
    65    12    61    1
    66    14    62    1
    67    15    63    1
    68    16    64    1
    69    17    65    1
    70    17    66    1
    71    17    67    1
    72    18    68    1
    73    19    69    1
    74    19    70    1
    75    20    71    1
    76    20    72    1
    77    21    73    1
    78    22    74    1
    79    22    75    1
    80    23    76    1
    81    24    77    1
    82    25    78    1
    83    25    79    1
    84    29    80    1
    85    29    81    1
    86    31    82    1
    87    34    83    1
    88    35    84    1
    89    37    85    1
    90    37    86    1
    91    38    87    1
    92    41    88    1
    93    41    89    1
    94    41    90    1
    95    42    91    1
    96    43    92    1
    97    44    93    1
