@<TRIPOS>MOLECULE
*****
 44 47 0 0 0
SMALL
GASTEIGER

@<TRIPOS>ATOM
      1 N          -0.9036    1.5925    5.2875 N.1     1  UNL1       -0.1891
      2 C          -0.4519    1.2820    4.2326 C.1     1  UNL1        0.1246
      3 C           0.0830    0.8841    2.9550 C.ar    1  UNL1        0.2019
      4 N           1.4166    0.5886    2.8738 N.ar    1  UNL1       -0.2364
      5 C           1.9617    0.1972    1.7192 C.ar    1  UNL1        0.0693
      6 C           1.1476    0.0992    0.6117 C.ar    1  UNL1        0.1461
      7 N           1.7799   -0.2937   -0.6010 N.pl3   1  UNL1       -0.2830
      8 C           2.9639    0.3600   -1.0231 C.ar    1  UNL1        0.1261
      9 C           3.6394    0.0972   -2.1812 C.ar    1  UNL1        0.0059
     10 C           4.7912    0.7759   -2.5482 C.ar    1  UNL1        0.0935
     11 N           5.6462    0.7443   -3.5938 N.ar    1  UNL1       -0.2358
     12 C           6.6070    1.6808   -3.3760 C.ar    1  UNL1        0.0945
     13 N           6.3970    2.3133   -2.2246 N.ar    1  UNL1       -0.3432
     14 C           5.2907    1.7709   -1.7063 C.ar    1  UNL1        0.0845
     15 C           4.5860    2.0095   -0.5463 C.ar    1  UNL1        0.0551
     16 N           3.4741    1.3336   -0.2218 N.ar    1  UNL1       -0.2380
     17 N          -0.1535    0.3943    0.7200 N.ar    1  UNL1       -0.1938
     18 C          -0.7579    0.7955    1.8631 C.ar    1  UNL1        0.2536
     19 O          -2.0837    1.0907    1.9059 O.3     1  UNL1       -0.4741
     20 C          -3.0912    1.0615    0.9980 C.3     1  UNL1        0.0942
     21 C          -3.5905   -0.1903    0.4183 C.3     1  UNL1       -0.0044
     22 C          -4.1845   -1.1664    1.4687 C.3     1  UNL1       -0.0345
     23 C          -5.0105   -2.1568    0.6625 C.3     1  UNL1       -0.0037
     24 N          -4.1047   -2.9554   -0.1247 N.3     1  UNL1       -0.3159
     25 C          -3.4421   -2.1016   -1.0988 C.3     1  UNL1       -0.0037
     26 C          -2.6392   -1.0119   -0.3793 C.3     1  UNL1       -0.0345
     27 H           3.0375   -0.0420    1.6554 H       1  UNL1        0.0865
     28 H           1.3710   -1.0556   -1.1662 H       1  UNL1        0.1550
     29 H           3.2667   -0.6626   -2.8393 H       1  UNL1        0.0674
     30 H           7.4619    1.9245   -4.0263 H       1  UNL1        0.1027
     31 H           6.9252    3.0764   -1.7431 H       1  UNL1        0.1668
     32 H           4.8922    2.7714    0.1878 H       1  UNL1        0.0852
     33 H          -3.9984    1.5466    1.5110 H       1  UNL1        0.0700
     34 H          -2.8237    1.7300    0.1178 H       1  UNL1        0.0700
     35 H          -4.4859   -0.0189   -0.2668 H       1  UNL1        0.0334
     36 H          -3.3276   -1.6948    1.9136 H       1  UNL1        0.0281
     37 H          -4.7911   -0.5927    2.1923 H       1  UNL1        0.0281
     38 H          -5.7170   -1.5721    0.0121 H       1  UNL1        0.0424
     39 H          -5.5926   -2.7938    1.3580 H       1  UNL1        0.0424
     40 H          -4.7084   -3.6081   -0.7018 H       1  UNL1        0.1219
     41 H          -4.1451   -1.6873   -1.8109 H       1  UNL1        0.0424
     42 H          -2.7031   -2.7311   -1.6306 H       1  UNL1        0.0424
     43 H          -1.8981   -1.5232    0.2714 H       1  UNL1        0.0281
     44 H          -2.1346   -0.4099   -1.1256 H       1  UNL1        0.0281
@<TRIPOS>BOND
     1     1     2    3
     2     2     3    1
     3     3     4   ar
     4     4     5   ar
     5     5     6   ar
     6     6     7    1
     7     7     8    1
     8     8     9   ar
     9     9    10   ar
    10    10    11   ar
    11    11    12   ar
    12    12    13   ar
    13    13    14   ar
    14    14    15   ar
    15    15    16   ar
    16     6    17   ar
    17    17    18   ar
    18    18    19    1
    19    19    20    1
    20    20    21    1
    21    21    22    1
    22    22    23    1
    23    23    24    1
    24    24    25    1
    25    25    26    1
    26    18     3   ar
    27    26    21    1
    28    16     8   ar
    29    14    10   ar
    30     5    27    1
    31     7    28    1
    32     9    29    1
    33    12    30    1
    34    13    31    1
    35    15    32    1
    36    20    33    1
    37    20    34    1
    38    21    35    1
    39    22    36    1
    40    22    37    1
    41    23    38    1
    42    23    39    1
    43    24    40    1
    44    25    41    1
    45    25    42    1
    46    26    43    1
    47    26    44    1
