@<TRIPOS>MOLECULE
*****
 43 45 0 0 0
SMALL
GASTEIGER

@<TRIPOS>ATOM
      1 C          -1.1390   -3.1466    0.5181 C.3     1  UNL1       -0.0606
      2 C          -1.1636   -1.7004    0.1600 C.3     1  UNL1       -0.0224
      3 C          -1.3127   -1.4100   -1.2964 C.3     1  UNL1       -0.0328
      4 C          -2.0342   -0.0542   -1.3944 C.3     1  UNL1        0.0151
      5 N          -1.7248    0.6832   -0.1766 N.am    1  UNL1       -0.2989
      6 C          -2.6960    1.5038    0.4416 C.2     1  UNL1        0.2295
      7 O          -2.4378    2.1357    1.4813 O.2     1  UNL1       -0.2745
      8 C          -4.0557    1.6107   -0.1689 C.3     1  UNL1        0.1112
      9 C          -4.9036    2.4966    0.6107 C.1     1  UNL1        0.0719
     10 N          -5.5707    3.2113    1.2336 N.1     1  UNL1       -0.1961
     11 C          -0.4016    0.5764    0.4137 C.3     1  UNL1        0.0335
     12 C          -0.0248   -0.8800    0.7204 C.3     1  UNL1        0.0429
     13 N           1.2481   -1.1678    0.1303 N.pl3   1  UNL1       -0.3128
     14 C           1.8298   -2.5070    0.1123 C.3     1  UNL1        0.0024
     15 C           2.0624   -0.1778   -0.4708 C.ar    1  UNL1        0.1338
     16 N           2.3414   -0.1778   -1.7852 N.ar    1  UNL1       -0.2200
     17 C           3.1150    0.7730   -2.3356 C.ar    1  UNL1        0.1204
     18 N           3.6505    1.7685   -1.6184 N.ar    1  UNL1       -0.2178
     19 C           3.4022    1.8157   -0.2945 C.ar    1  UNL1        0.1432
     20 N           3.7783    2.6585    0.6836 N.ar    1  UNL1       -0.3457
     21 C           3.2709    2.2873    1.8710 C.ar    1  UNL1        0.0042
     22 C           2.5345    1.1500    1.6351 C.ar    1  UNL1       -0.0318
     23 C           2.6068    0.8433    0.2884 C.ar    1  UNL1        0.0585
     24 H          -2.2025   -3.5362    0.4995 H       1  UNL1        0.0233
     25 H          -0.5934   -3.8007   -0.1687 H       1  UNL1        0.0233
     26 H          -0.8468   -3.2335    1.5837 H       1  UNL1        0.0233
     27 H          -2.0859   -1.2820    0.6710 H       1  UNL1        0.0317
     28 H          -1.9242   -2.1829   -1.8264 H       1  UNL1        0.0284
     29 H          -0.3204   -1.2760   -1.7836 H       1  UNL1        0.0284
     30 H          -3.1165   -0.2957   -1.3504 H       1  UNL1        0.0465
     31 H          -1.7630    0.4771   -2.3058 H       1  UNL1        0.0465
     32 H          -4.5372    0.6100   -0.1980 H       1  UNL1        0.0513
     33 H          -3.9277    2.0442   -1.1693 H       1  UNL1        0.0513
     34 H          -0.3371    1.1822    1.3137 H       1  UNL1        0.0483
     35 H           0.2763    1.0250   -0.3524 H       1  UNL1        0.0483
     36 H          -0.0415   -1.0510    1.8312 H       1  UNL1        0.0518
     37 H           2.9479   -2.4676    0.0996 H       1  UNL1        0.0428
     38 H           1.5410   -2.9619   -0.8577 H       1  UNL1        0.0428
     39 H           1.4458   -3.1550    0.9085 H       1  UNL1        0.0428
     40 H           3.3051    0.7239   -3.3915 H       1  UNL1        0.1048
     41 H           4.3946    3.4986    0.5155 H       1  UNL1        0.1668
     42 H           3.4217    2.8003    2.8365 H       1  UNL1        0.0807
     43 H           1.9880    0.5885    2.3849 H       1  UNL1        0.0640
@<TRIPOS>BOND
     1     1     2    1
     2     2     3    1
     3     3     4    1
     4     4     5    1
     5     5     6   am
     6     6     7    2
     7     6     8    1
     8     8     9    1
     9     9    10    3
    10     5    11    1
    11    11    12    1
    12    12    13    1
    13    13    14    1
    14    13    15    1
    15    15    16   ar
    16    16    17   ar
    17    17    18   ar
    18    18    19   ar
    19    19    20   ar
    20    20    21   ar
    21    21    22   ar
    22    22    23   ar
    23    12     2    1
    24    23    15   ar
    25    23    19   ar
    26     1    24    1
    27     1    25    1
    28     1    26    1
    29     2    27    1
    30     3    28    1
    31     3    29    1
    32     4    30    1
    33     4    31    1
    34     8    32    1
    35     8    33    1
    36    11    34    1
    37    11    35    1
    38    12    36    1
    39    14    37    1
    40    14    38    1
    41    14    39    1
    42    17    40    1
    43    20    41    1
    44    21    42    1
    45    22    43    1
