@<TRIPOS>MOLECULE
*****
 71 74 0 0 0
SMALL
GASTEIGER

@<TRIPOS>ATOM
      1 C           7.5240   -2.0228   -0.4310 C.3     1  UNL1       -0.0612
      2 C           6.8297   -3.0554   -1.2274 C.3     1  UNL1       -0.0311
      3 C           7.7968   -4.2528   -1.3544 C.3     1  UNL1       -0.0612
      4 C           5.4901   -3.5270   -0.8245 C.3     1  UNL1        0.0142
      5 N           4.4317   -2.5858   -0.7520 N.am    1  UNL1       -0.3111
      6 C           4.2813   -1.5100    0.1366 C.2     1  UNL1        0.2441
      7 O           5.1435   -1.3295    1.0124 O.2     1  UNL1       -0.2702
      8 C           3.1409   -0.5592    0.0953 C.ar    1  UNL1        0.0375
      9 C           2.2876   -0.4890   -0.9629 C.ar    1  UNL1       -0.0490
     10 C           1.2423    0.4419   -0.9655 C.ar    1  UNL1       -0.0525
     11 C           1.0443    1.3093    0.0930 C.ar    1  UNL1       -0.0032
     12 C          -0.0079    2.3043    0.1308 C.ar    1  UNL1       -0.0050
     13 C           0.2560    3.6380   -0.2154 C.ar    1  UNL1       -0.0527
     14 C          -0.7509    4.5771   -0.1485 C.ar    1  UNL1       -0.0534
     15 C          -2.0283    4.2490    0.2515 C.ar    1  UNL1       -0.0163
     16 C          -3.1013    5.3044    0.3247 C.ar    1  UNL1       -0.0055
     17 C          -2.9537    6.3761    1.2433 C.ar    1  UNL1       -0.0163
     18 S          -4.4133    7.3182    1.0237 S.2     1  UNL1       -0.1041
     19 C          -5.1408    6.3016   -0.2276 C.ar    1  UNL1       -0.0184
     20 C          -4.2265    5.2981   -0.4082 C.ar    1  UNL1       -0.0075
     21 C          -4.5160    4.2373   -1.4726 C.3     1  UNL1        0.0703
     22 O          -3.7592    4.5696   -2.5916 O.3     1  UNL1       -0.3904
     23 C          -2.2733    2.9502    0.5854 C.ar    1  UNL1       -0.0413
     24 C          -1.2693    1.9713    0.5272 C.ar    1  UNL1        0.0453
     25 C          -1.6346    0.6005    0.8620 C.2     1  UNL1        0.2489
     26 O          -1.0792   -0.1025    1.6889 O.2     1  UNL1       -0.2698
     27 N          -2.7529    0.0654    0.1269 N.am    1  UNL1       -0.2815
     28 C          -3.2833   -1.2257    0.2733 C.ar    1  UNL1        0.0337
     29 C          -2.8070   -2.2676   -0.5009 C.ar    1  UNL1       -0.0397
     30 C          -3.3158   -3.5329   -0.4065 C.ar    1  UNL1       -0.0451
     31 C          -4.3415   -3.7373    0.5076 C.ar    1  UNL1        0.0648
     32 C          -4.9022   -5.0809    0.6069 C.2     1  UNL1        0.3081
     33 N          -6.1271   -5.2303    0.9975 N.2     1  UNL1       -0.0994
     34 N          -4.0812   -6.1956    0.2605 N.pl3   1  UNL1       -0.2466
     35 C          -4.8297   -2.7248    1.2854 C.ar    1  UNL1       -0.0451
     36 C          -4.3033   -1.4596    1.1735 C.ar    1  UNL1       -0.0397
     37 C           1.9180    1.2159    1.1506 C.ar    1  UNL1        0.0672
     38 C           1.8113    2.0668    2.3123 C.2     1  UNL1        0.3374
     39 O           2.5926    1.9770    3.2642 O.2     1  UNL1       -0.2451
     40 O           0.7980    3.0203    2.3631 O.3     1  UNL1       -0.4771
     41 C           2.9488    0.2947    1.1470 C.ar    1  UNL1       -0.0351
     42 H           8.6305   -2.0186   -0.7535 H       1  UNL1        0.0233
     43 H           7.2133   -0.9640   -0.6419 H       1  UNL1        0.0233
     44 H           7.6068   -2.2372    0.6515 H       1  UNL1        0.0233
     45 H           6.8029   -2.6560   -2.3012 H       1  UNL1        0.0311
     46 H           7.4977   -4.9379   -2.1610 H       1  UNL1        0.0233
     47 H           7.7652   -4.8128   -0.4027 H       1  UNL1        0.0233
     48 H           8.8419   -3.8640   -1.4496 H       1  UNL1        0.0233
     49 H           5.6221   -4.0947    0.1404 H       1  UNL1        0.0465
     50 H           5.2034   -4.3553   -1.5489 H       1  UNL1        0.0465
     51 H           3.6306   -2.6949   -1.4628 H       1  UNL1        0.1490
     52 H           2.4087   -1.1458   -1.7976 H       1  UNL1        0.0625
     53 H           0.5469    0.5194   -1.7913 H       1  UNL1        0.0624
     54 H           1.2651    3.8603   -0.5221 H       1  UNL1        0.0624
     55 H          -0.5440    5.6099   -0.4201 H       1  UNL1        0.0624
     56 H          -2.1091    6.5330    1.9062 H       1  UNL1        0.0699
     57 H          -6.0916    6.4677   -0.7156 H       1  UNL1        0.0697
     58 H          -5.5729    4.2689   -1.7394 H       1  UNL1        0.0607
     59 H          -4.1875    3.2465   -1.1580 H       1  UNL1        0.0607
     60 H          -4.2839    4.6715   -3.4150 H       1  UNL1        0.2098
     61 H          -3.2471    2.6513    0.9108 H       1  UNL1        0.0631
     62 H          -3.2417    0.6782   -0.5990 H       1  UNL1        0.1551
     63 H          -1.9899   -2.0382   -1.2033 H       1  UNL1        0.0636
     64 H          -2.9102   -4.3043   -1.0355 H       1  UNL1        0.0627
     65 H          -6.7205   -4.4381    1.2399 H       1  UNL1        0.3633
     66 H          -4.1411   -7.0490    0.8572 H       1  UNL1        0.2884
     67 H          -3.4285   -6.2092   -0.5478 H       1  UNL1        0.2884
     68 H          -5.6433   -2.9068    2.0044 H       1  UNL1        0.0627
     69 H          -4.6614   -0.6440    1.7692 H       1  UNL1        0.0636
     70 H           0.4617    3.4330    3.2329 H       1  UNL1        0.2954
     71 H           3.6373    0.2325    1.9989 H       1  UNL1        0.0633
@<TRIPOS>BOND
     1     1     2    1
     2     2     3    1
     3     2     4    1
     4     4     5    1
     5     5     6   am
     6     6     7    2
     7     6     8    1
     8     8     9   ar
     9     9    10   ar
    10    10    11   ar
    11    11    12    1
    12    12    13   ar
    13    13    14   ar
    14    14    15   ar
    15    15    16    1
    16    16    17   ar
    17    17    18   ar
    18    18    19   ar
    19    19    20   ar
    20    20    21    1
    21    21    22    1
    22    15    23   ar
    23    23    24   ar
    24    24    25    1
    25    25    26    2
    26    25    27   am
    27    27    28    1
    28    28    29   ar
    29    29    30   ar
    30    30    31   ar
    31    31    32    1
    32    32    33    2
    33    32    34    1
    34    31    35   ar
    35    35    36   ar
    36    11    37   ar
    37    37    38    1
    38    38    39    2
    39    38    40    1
    40    37    41   ar
    41    41     8   ar
    42    24    12   ar
    43    36    28   ar
    44    20    16   ar
    45     1    42    1
    46     1    43    1
    47     1    44    1
    48     2    45    1
    49     3    46    1
    50     3    47    1
    51     3    48    1
    52     4    49    1
    53     4    50    1
    54     5    51    1
    55     9    52    1
    56    10    53    1
    57    13    54    1
    58    14    55    1
    59    17    56    1
    60    19    57    1
    61    21    58    1
    62    21    59    1
    63    22    60    1
    64    23    61    1
    65    27    62    1
    66    29    63    1
    67    30    64    1
    68    33    65    1
    69    34    66    1
    70    34    67    1
    71    35    68    1
    72    36    69    1
    73    40    70    1
    74    41    71    1
