@<TRIPOS>MOLECULE
*****
 28 29 0 0 0
SMALL
GASTEIGER

@<TRIPOS>ATOM
      1 C          -4.9043    0.8362    1.2758 C.3     1  UNL1       -0.0036
      2 C          -3.5839    0.9134    0.5955 C.ar    1  UNL1        0.1361
      3 C          -3.2505   -0.1026   -0.3010 C.ar    1  UNL1        0.0232
      4 C          -1.9973    0.1860   -0.7961 C.ar    1  UNL1        0.1807
      5 N          -1.2529   -0.5489   -1.7244 N.pl3   1  UNL1       -0.1968
      6 S           0.2893   -0.0292   -2.2185 S.O2    1  UNL1        0.0736
      7 O           0.8462   -0.8299   -3.3512 O.2     1  UNL1       -0.1499
      8 O           0.1031    1.3803   -2.7647 O.2     1  UNL1       -0.1499
      9 C           1.4659    0.0702   -0.9570 C.ar    1  UNL1        0.1087
     10 C           1.7563    1.1575   -0.1467 C.ar    1  UNL1       -0.0333
     11 C           2.7313    1.0718    0.8198 C.ar    1  UNL1       -0.0392
     12 C           3.4606   -0.0843    1.0299 C.ar    1  UNL1        0.0247
     13 N           4.4697   -0.1767    2.0284 N.pl3   1  UNL1       -0.3580
     14 C           3.1778   -1.1766    0.2251 C.ar    1  UNL1       -0.0392
     15 C           2.1989   -1.0883   -0.7441 C.ar    1  UNL1       -0.0333
     16 N          -1.6408    1.3277   -0.1952 N.ar    1  UNL1       -0.0617
     17 O          -2.5510    1.7462    0.6039 O.2     1  UNL1       -0.3581
     18 H          -5.0059    1.6707    2.0002 H       1  UNL1        0.0309
     19 H          -4.8979   -0.1103    1.8594 H       1  UNL1        0.0309
     20 H          -5.7236    0.7819    0.5304 H       1  UNL1        0.0309
     21 H          -3.7970   -0.9832   -0.6135 H       1  UNL1        0.0688
     22 H          -1.6450   -1.4399   -2.1300 H       1  UNL1        0.1753
     23 H           1.1619    2.0299   -0.3509 H       1  UNL1        0.0638
     24 H           2.9232    1.9551    1.4326 H       1  UNL1        0.0636
     25 H           5.3550   -0.7040    1.8041 H       1  UNL1        0.1423
     26 H           4.4871    0.2088    2.9999 H       1  UNL1        0.1423
     27 H           3.7592   -2.0893    0.3969 H       1  UNL1        0.0636
     28 H           2.0646   -1.9951   -1.3085 H       1  UNL1        0.0638
@<TRIPOS>BOND
     1     1     2    1
     2     2     3   ar
     3     3     4   ar
     4     4     5    1
     5     5     6    1
     6     6     7    2
     7     6     8    2
     8     6     9    1
     9     9    10   ar
    10    10    11   ar
    11    11    12   ar
    12    12    13    1
    13    12    14   ar
    14    14    15   ar
    15     4    16   ar
    16    16    17   ar
    17    17     2   ar
    18    15     9   ar
    19     1    18    1
    20     1    19    1
    21     1    20    1
    22     3    21    1
    23     5    22    1
    24    10    23    1
    25    11    24    1
    26    13    25    1
    27    13    26    1
    28    14    27    1
    29    15    28    1
