
     RDKit          3D

 37 39  0  0  0  0  0  0  0  0999 V2000
   -3.6556    3.2243    1.4570 O   0  0  0  0  0  0  0  0  0  0  0  0
   -2.7411    2.1969    1.1912 C   0  0  0  0  0  0  0  0  0  0  0  0
   -1.9631    1.8371    2.1314 O   0  0  0  0  0  0  0  0  0  0  0  0
   -2.8112    1.6628   -0.1779 C   0  0  0  0  0  0  0  0  0  0  0  0
   -1.8673    0.6010   -0.4479 N   0  0  0  0  0  0  0  0  0  0  0  0
   -0.6716    0.9095   -0.9379 C   0  0  0  0  0  0  0  0  0  0  0  0
   -0.4240    2.1278   -1.1449 O   0  0  0  0  0  0  0  0  0  0  0  0
    0.3513    0.1028   -1.2609 N   0  0  0  0  0  0  0  0  0  0  0  0
    1.6610    0.3576   -1.7719 C   0  0  0  0  0  0  0  0  0  0  0  0
    2.7332    0.5136   -0.7927 C   0  0  0  0  0  0  0  0  0  0  0  0
    3.0577    1.5782    0.0125 C   0  0  0  0  0  0  0  0  0  0  0  0
    2.3000    2.6828   -0.0935 F   0  0  0  0  0  0  0  0  0  0  0  0
    4.1132    1.5550    0.8982 C   0  0  0  0  0  0  0  0  0  0  0  0
    4.9247    0.4471    1.0355 C   0  0  0  0  0  0  0  0  0  0  0  0
    6.3514    0.5388    2.2926 Br  0  0  0  0  0  0  0  0  0  0  0  0
    4.6132   -0.6293    0.2340 C   0  0  0  0  0  0  0  0  0  0  0  0
    3.5589   -0.6033   -0.6485 C   0  0  0  0  0  0  0  0  0  0  0  0
    0.1023   -1.2258   -1.0465 C   0  0  0  0  0  0  0  0  0  0  0  0
    0.8684   -2.2020   -1.2566 O   0  0  0  0  0  0  0  0  0  0  0  0
   -1.1262   -1.6390   -0.5341 C   0  0  0  0  0  0  0  0  0  0  0  0
   -2.0982   -0.7076   -0.2411 C   0  0  0  0  0  0  0  0  0  0  0  0
   -3.3089   -1.0903    0.2661 C   0  0  0  0  0  0  0  0  0  0  0  0
   -3.6163   -2.4115    0.5063 C   0  0  0  0  0  0  0  0  0  0  0  0
   -5.1570   -2.9727    1.1593 Cl  0  0  0  0  0  0  0  0  0  0  0  0
   -2.6625   -3.3631    0.2214 C   0  0  0  0  0  0  0  0  0  0  0  0
   -1.4444   -2.9688   -0.2890 C   0  0  0  0  0  0  0  0  0  0  0  0
   -3.5869    3.8424    2.2507 H   0  0  0  0  0  0  0  0  0  0  0  0
   -3.8364    1.3117   -0.3736 H   0  0  0  0  0  0  0  0  0  0  0  0
   -2.5670    2.5445   -0.8580 H   0  0  0  0  0  0  0  0  0  0  0  0
    1.5570    1.3140   -2.3770 H   0  0  0  0  0  0  0  0  0  0  0  0
    1.8946   -0.4048   -2.5552 H   0  0  0  0  0  0  0  0  0  0  0  0
    4.2889    2.4404    1.4891 H   0  0  0  0  0  0  0  0  0  0  0  0
    5.2992   -1.4679    0.3984 H   0  0  0  0  0  0  0  0  0  0  0  0
    3.5115   -1.5630   -1.1718 H   0  0  0  0  0  0  0  0  0  0  0  0
   -4.1010   -0.4026    0.5174 H   0  0  0  0  0  0  0  0  0  0  0  0
   -2.8386   -4.4154    0.3848 H   0  0  0  0  0  0  0  0  0  0  0  0
   -0.7091   -3.7209   -0.5069 H   0  0  0  0  0  0  0  0  0  0  0  0
  1  2  1  0
  2  3  2  0
  2  4  1  0
  4  5  1  0
  5  6  1  0
  6  7  2  0
  6  8  1  0
  8  9  1  0
  9 10  1  0
 10 11  2  0
 11 12  1  0
 11 13  1  0
 13 14  2  0
 14 15  1  0
 14 16  1  0
 16 17  2  0
  8 18  1  0
 18 19  2  0
 18 20  1  0
 20 21  2  0
 21 22  1  0
 22 23  2  0
 23 24  1  0
 23 25  1  0
 25 26  2  0
 21  5  1  0
 17 10  1  0
 26 20  1  0
  1 27  1  0
  4 28  1  0
  4 29  1  0
  9 30  1  0
  9 31  1  0
 13 32  1  0
 16 33  1  0
 17 34  1  0
 22 35  1  0
 25 36  1  0
 26 37  1  0
M  END
$$$$
