@<TRIPOS>MOLECULE
*****
 37 39 0 0 0
SMALL
GASTEIGER

@<TRIPOS>ATOM
      1 O          -3.6556    3.2243    1.4570 O.3     1  UNL1       -0.4794
      2 C          -2.7411    2.1969    1.1912 C.2     1  UNL1        0.3249
      3 O          -1.9631    1.8371    2.1314 O.2     1  UNL1       -0.2490
      4 C          -2.8112    1.6628   -0.1779 C.3     1  UNL1        0.1249
      5 N          -1.8673    0.6010   -0.4479 N.ar    1  UNL1       -0.2824
      6 C          -0.6716    0.9095   -0.9379 C.ar    1  UNL1        0.3332
      7 O          -0.4240    2.1278   -1.1449 O.2     1  UNL1       -0.2462
      8 N           0.3513    0.1028   -1.2609 N.ar    1  UNL1       -0.2559
      9 C           1.6610    0.3576   -1.7719 C.3     1  UNL1        0.0587
     10 C           2.7332    0.5136   -0.7927 C.ar    1  UNL1        0.0077
     11 C           3.0577    1.5782    0.0125 C.ar    1  UNL1        0.1293
     12 F           2.3000    2.6828   -0.0935 F       1  UNL1       -0.2051
     13 C           4.1132    1.5550    0.8982 C.ar    1  UNL1       -0.0121
     14 C           4.9247    0.4471    1.0355 C.ar    1  UNL1        0.0206
     15 BR          6.3514    0.5388    2.2926 Br      1  UNL1       -0.0502
     16 C           4.6132   -0.6293    0.2340 C.ar    1  UNL1       -0.0473
     17 C           3.5589   -0.6033   -0.6485 C.ar    1  UNL1       -0.0531
     18 C           0.1023   -1.2258   -1.0465 C.ar    1  UNL1        0.2646
     19 O           0.8684   -2.2020   -1.2566 O.2     1  UNL1       -0.2668
     20 C          -1.1262   -1.6390   -0.5341 C.ar    1  UNL1        0.0633
     21 C          -2.0982   -0.7076   -0.2411 C.ar    1  UNL1        0.0606
     22 C          -3.3089   -1.0903    0.2661 C.ar    1  UNL1       -0.0189
     23 C          -3.6163   -2.4115    0.5063 C.ar    1  UNL1        0.0430
     24 CL         -5.1570   -2.9727    1.1593 Cl      1  UNL1       -0.0835
     25 C          -2.6625   -3.3631    0.2214 C.ar    1  UNL1       -0.0425
     26 C          -1.4444   -2.9688   -0.2890 C.ar    1  UNL1       -0.0460
     27 H          -3.5869    3.8424    2.2507 H       1  UNL1        0.2951
     28 H          -3.8364    1.3117   -0.3736 H       1  UNL1        0.0609
     29 H          -2.5670    2.5445   -0.8580 H       1  UNL1        0.0609
     30 H           1.5570    1.3140   -2.3770 H       1  UNL1        0.0545
     31 H           1.8946   -0.4048   -2.5552 H       1  UNL1        0.0545
     32 H           4.2889    2.4404    1.4891 H       1  UNL1        0.0657
     33 H           5.2992   -1.4679    0.3984 H       1  UNL1        0.0629
     34 H           3.5115   -1.5630   -1.1718 H       1  UNL1        0.0622
     35 H          -4.1010   -0.4026    0.5174 H       1  UNL1        0.0653
     36 H          -2.8386   -4.4154    0.3848 H       1  UNL1        0.0632
     37 H          -0.7091   -3.7209   -0.5069 H       1  UNL1        0.0626
@<TRIPOS>BOND
     1     1     2    1
     2     2     3    2
     3     2     4    1
     4     4     5    1
     5     5     6   ar
     6     6     7    2
     7     6     8   ar
     8     8     9    1
     9     9    10    1
    10    10    11   ar
    11    11    12    1
    12    11    13   ar
    13    13    14   ar
    14    14    15    1
    15    14    16   ar
    16    16    17   ar
    17     8    18   ar
    18    18    19    2
    19    18    20   ar
    20    20    21   ar
    21    21    22   ar
    22    22    23   ar
    23    23    24    1
    24    23    25   ar
    25    25    26   ar
    26    21     5   ar
    27    17    10   ar
    28    26    20   ar
    29     1    27    1
    30     4    28    1
    31     4    29    1
    32     9    30    1
    33     9    31    1
    34    13    32    1
    35    16    33    1
    36    17    34    1
    37    22    35    1
    38    25    36    1
    39    26    37    1
