@<TRIPOS>MOLECULE
*****
 63 66 0 0 0
SMALL
GASTEIGER

@<TRIPOS>ATOM
      1 C          -0.0614    1.4640   -2.9145 C.3     1  UNL1       -0.0421
      2 C           0.0845    0.1085   -2.2646 C.3     1  UNL1        0.0515
      3 C           1.4048    0.0377   -1.5601 C.ar    1  UNL1       -0.0271
      4 C           2.3782    1.0003   -1.7337 C.ar    1  UNL1       -0.0562
      5 C           3.5965    0.9310   -1.0808 C.ar    1  UNL1       -0.0537
      6 C           3.9003   -0.1077   -0.2204 C.ar    1  UNL1       -0.0165
      7 C           5.1779   -0.1936    0.4723 C.ar    1  UNL1       -0.0015
      8 C           5.7940   -1.3741    0.8161 C.ar    1  UNL1       -0.0475
      9 C           7.0023   -1.4256    1.4703 C.ar    1  UNL1        0.0036
     10 C           7.6276   -0.2497    1.7980 C.ar    1  UNL1        0.2511
     11 O           8.7556   -0.2486    2.4081 O.2     1  UNL1       -0.2677
     12 N           7.0335    0.9102    1.4661 N.ar    1  UNL1       -0.3177
     13 C           7.7299    2.1330    1.8313 C.3     1  UNL1        0.0147
     14 C           5.8337    0.9663    0.8166 C.ar    1  UNL1        0.0153
     15 C           2.9183   -1.0702   -0.0512 C.ar    1  UNL1       -0.0537
     16 C           1.7057   -1.0004   -0.7015 C.ar    1  UNL1       -0.0562
     17 N          -0.9561   -0.1953   -1.3418 N.am    1  UNL1       -0.2605
     18 C          -1.8253   -1.3140   -1.5843 C.3     1  UNL1        0.0224
     19 C          -2.6776   -1.6590   -0.3850 C.3     1  UNL1        0.0075
     20 C          -3.3291   -0.4612    0.2224 C.3     1  UNL1        0.1415
     21 C          -3.9085   -0.6890    1.5912 C.3     1  UNL1       -0.0064
     22 C          -2.8208   -1.1090    2.5563 C.3     1  UNL1       -0.0258
     23 C          -3.4503   -1.3161    3.9368 C.3     1  UNL1        0.0443
     24 O          -4.4186   -2.3094    3.8281 O.3     1  UNL1       -0.3950
     25 C          -4.4156    0.0104   -0.6920 C.ar    1  UNL1       -0.0040
     26 C          -5.7063   -0.4671   -0.6530 C.ar    1  UNL1       -0.0521
     27 C          -6.6987   -0.0185   -1.4985 C.ar    1  UNL1       -0.0261
     28 C          -6.4204    0.9522   -2.4383 C.ar    1  UNL1        0.1234
     29 F          -7.3527    1.4346   -3.2976 F       1  UNL1       -0.2055
     30 C          -5.1358    1.4568   -2.5087 C.ar    1  UNL1       -0.0261
     31 C          -4.1590    0.9929   -1.6524 C.ar    1  UNL1       -0.0521
     32 O          -2.4112    0.6163    0.3826 O.3     1  UNL1       -0.4388
     33 C          -1.1644    0.5834   -0.1767 C.2     1  UNL1        0.4042
     34 O          -0.2254    1.2375    0.3429 O.2     1  UNL1       -0.2262
     35 H          -1.0661    1.5567   -3.3719 H       1  UNL1        0.0251
     36 H           0.1857    2.3079   -2.2476 H       1  UNL1        0.0251
     37 H           0.6610    1.4962   -3.7556 H       1  UNL1        0.0251
     38 H           0.0604   -0.6281   -3.0922 H       1  UNL1        0.0549
     39 H           2.1537    1.8357   -2.4160 H       1  UNL1        0.0621
     40 H           4.3393    1.7040   -1.2397 H       1  UNL1        0.0624
     41 H           5.3182   -2.3109    0.5668 H       1  UNL1        0.0626
     42 H           7.4630   -2.3569    1.7279 H       1  UNL1        0.0672
     43 H           8.8060    2.0721    1.5067 H       1  UNL1        0.0457
     44 H           7.2656    2.9564    1.2760 H       1  UNL1        0.0457
     45 H           7.7443    2.2719    2.9229 H       1  UNL1        0.0457
     46 H           5.4615    1.9566    0.6061 H       1  UNL1        0.0816
     47 H           3.1636   -1.8884    0.6298 H       1  UNL1        0.0624
     48 H           0.9486   -1.7673   -0.5538 H       1  UNL1        0.0621
     49 H          -1.2911   -2.1983   -1.9825 H       1  UNL1        0.0467
     50 H          -2.5353   -1.0115   -2.4023 H       1  UNL1        0.0467
     51 H          -3.4323   -2.4340   -0.6216 H       1  UNL1        0.0322
     52 H          -1.9827   -2.1006    0.3552 H       1  UNL1        0.0322
     53 H          -4.2556    0.3091    1.9494 H       1  UNL1        0.0308
     54 H          -4.7296   -1.4367    1.6065 H       1  UNL1        0.0308
     55 H          -2.0348   -0.3424    2.6178 H       1  UNL1        0.0289
     56 H          -2.3686   -2.0922    2.3063 H       1  UNL1        0.0289
     57 H          -3.9078   -0.3812    4.3117 H       1  UNL1        0.0557
     58 H          -2.6877   -1.6493    4.6567 H       1  UNL1        0.0557
     59 H          -5.3075   -1.8844    3.8772 H       1  UNL1        0.2094
     60 H          -5.9895   -1.2288    0.0569 H       1  UNL1        0.0622
     61 H          -7.7139   -0.3977   -1.4638 H       1  UNL1        0.0646
     62 H          -4.8946    2.2277   -3.2476 H       1  UNL1        0.0646
     63 H          -3.1790    1.4326   -1.7633 H       1  UNL1        0.0622
@<TRIPOS>BOND
     1     1     2    1
     2     2     3    1
     3     3     4   ar
     4     4     5   ar
     5     5     6   ar
     6     6     7    1
     7     7     8   ar
     8     8     9   ar
     9     9    10   ar
    10    10    11    2
    11    10    12   ar
    12    12    13    1
    13    12    14   ar
    14     6    15   ar
    15    15    16   ar
    16     2    17    1
    17    17    18    1
    18    18    19    1
    19    19    20    1
    20    20    21    1
    21    21    22    1
    22    22    23    1
    23    23    24    1
    24    20    25    1
    25    25    26   ar
    26    26    27   ar
    27    27    28   ar
    28    28    29    1
    29    28    30   ar
    30    30    31   ar
    31    20    32    1
    32    32    33    1
    33    33    34    2
    34    16     3   ar
    35    33    17   am
    36    14     7   ar
    37    31    25   ar
    38     1    35    1
    39     1    36    1
    40     1    37    1
    41     2    38    1
    42     4    39    1
    43     5    40    1
    44     8    41    1
    45     9    42    1
    46    13    43    1
    47    13    44    1
    48    13    45    1
    49    14    46    1
    50    15    47    1
    51    16    48    1
    52    18    49    1
    53    18    50    1
    54    19    51    1
    55    19    52    1
    56    21    53    1
    57    21    54    1
    58    22    55    1
    59    22    56    1
    60    23    57    1
    61    23    58    1
    62    24    59    1
    63    26    60    1
    64    27    61    1
    65    30    62    1
    66    31    63    1
