
     RDKit          3D

 63 66  0  0  0  0  0  0  0  0999 V2000
   -0.0614    1.4640   -2.9145 C   0  0  0  0  0  0  0  0  0  0  0  0
    0.0845    0.1085   -2.2646 C   0  0  1  0  0  0  0  0  0  0  0  0
    1.4048    0.0377   -1.5601 C   0  0  0  0  0  0  0  0  0  0  0  0
    2.3782    1.0003   -1.7337 C   0  0  0  0  0  0  0  0  0  0  0  0
    3.5965    0.9310   -1.0808 C   0  0  0  0  0  0  0  0  0  0  0  0
    3.9003   -0.1077   -0.2204 C   0  0  0  0  0  0  0  0  0  0  0  0
    5.1779   -0.1936    0.4723 C   0  0  0  0  0  0  0  0  0  0  0  0
    5.7940   -1.3741    0.8161 C   0  0  0  0  0  0  0  0  0  0  0  0
    7.0023   -1.4256    1.4703 C   0  0  0  0  0  0  0  0  0  0  0  0
    7.6276   -0.2497    1.7980 C   0  0  0  0  0  0  0  0  0  0  0  0
    8.7556   -0.2486    2.4081 O   0  0  0  0  0  0  0  0  0  0  0  0
    7.0335    0.9102    1.4661 N   0  0  0  0  0  0  0  0  0  0  0  0
    7.7299    2.1330    1.8313 C   0  0  0  0  0  0  0  0  0  0  0  0
    5.8337    0.9663    0.8166 C   0  0  0  0  0  0  0  0  0  0  0  0
    2.9183   -1.0702   -0.0512 C   0  0  0  0  0  0  0  0  0  0  0  0
    1.7057   -1.0004   -0.7015 C   0  0  0  0  0  0  0  0  0  0  0  0
   -0.9561   -0.1953   -1.3418 N   0  0  0  0  0  0  0  0  0  0  0  0
   -1.8253   -1.3140   -1.5843 C   0  0  0  0  0  0  0  0  0  0  0  0
   -2.6776   -1.6590   -0.3850 C   0  0  0  0  0  0  0  0  0  0  0  0
   -3.3291   -0.4612    0.2224 C   0  0  2  0  0  0  0  0  0  0  0  0
   -3.9085   -0.6890    1.5912 C   0  0  0  0  0  0  0  0  0  0  0  0
   -2.8208   -1.1090    2.5563 C   0  0  0  0  0  0  0  0  0  0  0  0
   -3.4503   -1.3161    3.9368 C   0  0  0  0  0  0  0  0  0  0  0  0
   -4.4186   -2.3094    3.8281 O   0  0  0  0  0  0  0  0  0  0  0  0
   -4.4156    0.0104   -0.6920 C   0  0  0  0  0  0  0  0  0  0  0  0
   -5.7063   -0.4671   -0.6530 C   0  0  0  0  0  0  0  0  0  0  0  0
   -6.6987   -0.0185   -1.4985 C   0  0  0  0  0  0  0  0  0  0  0  0
   -6.4204    0.9522   -2.4383 C   0  0  0  0  0  0  0  0  0  0  0  0
   -7.3527    1.4346   -3.2976 F   0  0  0  0  0  0  0  0  0  0  0  0
   -5.1358    1.4568   -2.5087 C   0  0  0  0  0  0  0  0  0  0  0  0
   -4.1590    0.9929   -1.6524 C   0  0  0  0  0  0  0  0  0  0  0  0
   -2.4112    0.6163    0.3826 O   0  0  0  0  0  0  0  0  0  0  0  0
   -1.1644    0.5834   -0.1767 C   0  0  0  0  0  0  0  0  0  0  0  0
   -0.2254    1.2375    0.3429 O   0  0  0  0  0  0  0  0  0  0  0  0
   -1.0661    1.5567   -3.3719 H   0  0  0  0  0  0  0  0  0  0  0  0
    0.1857    2.3079   -2.2476 H   0  0  0  0  0  0  0  0  0  0  0  0
    0.6610    1.4962   -3.7556 H   0  0  0  0  0  0  0  0  0  0  0  0
    0.0604   -0.6281   -3.0922 H   0  0  0  0  0  0  0  0  0  0  0  0
    2.1537    1.8357   -2.4160 H   0  0  0  0  0  0  0  0  0  0  0  0
    4.3393    1.7040   -1.2397 H   0  0  0  0  0  0  0  0  0  0  0  0
    5.3182   -2.3109    0.5668 H   0  0  0  0  0  0  0  0  0  0  0  0
    7.4630   -2.3569    1.7279 H   0  0  0  0  0  0  0  0  0  0  0  0
    8.8060    2.0721    1.5067 H   0  0  0  0  0  0  0  0  0  0  0  0
    7.2656    2.9564    1.2760 H   0  0  0  0  0  0  0  0  0  0  0  0
    7.7443    2.2719    2.9229 H   0  0  0  0  0  0  0  0  0  0  0  0
    5.4615    1.9566    0.6061 H   0  0  0  0  0  0  0  0  0  0  0  0
    3.1636   -1.8884    0.6298 H   0  0  0  0  0  0  0  0  0  0  0  0
    0.9486   -1.7673   -0.5538 H   0  0  0  0  0  0  0  0  0  0  0  0
   -1.2911   -2.1983   -1.9825 H   0  0  0  0  0  0  0  0  0  0  0  0
   -2.5353   -1.0115   -2.4023 H   0  0  0  0  0  0  0  0  0  0  0  0
   -3.4323   -2.4340   -0.6216 H   0  0  0  0  0  0  0  0  0  0  0  0
   -1.9827   -2.1006    0.3552 H   0  0  0  0  0  0  0  0  0  0  0  0
   -4.2556    0.3091    1.9494 H   0  0  0  0  0  0  0  0  0  0  0  0
   -4.7296   -1.4367    1.6065 H   0  0  0  0  0  0  0  0  0  0  0  0
   -2.0348   -0.3424    2.6178 H   0  0  0  0  0  0  0  0  0  0  0  0
   -2.3686   -2.0922    2.3063 H   0  0  0  0  0  0  0  0  0  0  0  0
   -3.9078   -0.3812    4.3117 H   0  0  0  0  0  0  0  0  0  0  0  0
   -2.6877   -1.6493    4.6567 H   0  0  0  0  0  0  0  0  0  0  0  0
   -5.3075   -1.8844    3.8772 H   0  0  0  0  0  0  0  0  0  0  0  0
   -5.9895   -1.2288    0.0569 H   0  0  0  0  0  0  0  0  0  0  0  0
   -7.7139   -0.3977   -1.4638 H   0  0  0  0  0  0  0  0  0  0  0  0
   -4.8946    2.2277   -3.2476 H   0  0  0  0  0  0  0  0  0  0  0  0
   -3.1790    1.4326   -1.7633 H   0  0  0  0  0  0  0  0  0  0  0  0
  1  2  1  0
  2  3  1  0
  3  4  2  0
  4  5  1  0
  5  6  2  0
  6  7  1  0
  7  8  1  0
  8  9  2  0
  9 10  1  0
 10 11  2  0
 10 12  1  0
 12 13  1  0
 12 14  1  0
  6 15  1  0
 15 16  2  0
  2 17  1  0
 17 18  1  0
 18 19  1  0
 19 20  1  0
 20 21  1  1
 21 22  1  0
 22 23  1  0
 23 24  1  0
 20 25  1  0
 25 26  2  0
 26 27  1  0
 27 28  2  0
 28 29  1  0
 28 30  1  0
 30 31  2  0
 20 32  1  0
 32 33  1  0
 33 34  2  0
 16  3  1  0
 33 17  1  0
 14  7  2  0
 31 25  1  0
  1 35  1  0
  1 36  1  0
  1 37  1  0
  2 38  1  6
  4 39  1  0
  5 40  1  0
  8 41  1  0
  9 42  1  0
 13 43  1  0
 13 44  1  0
 13 45  1  0
 14 46  1  0
 15 47  1  0
 16 48  1  0
 18 49  1  0
 18 50  1  0
 19 51  1  0
 19 52  1  0
 21 53  1  0
 21 54  1  0
 22 55  1  0
 22 56  1  0
 23 57  1  0
 23 58  1  0
 24 59  1  0
 26 60  1  0
 27 61  1  0
 30 62  1  0
 31 63  1  0
M  END
$$$$
