@<TRIPOS>MOLECULE
*****
 38 41 0 0 0
SMALL
GASTEIGER

@<TRIPOS>ATOM
      1 C          -6.5574    2.2178   -0.3396 C.3     1  UNL1        0.0788
      2 O          -5.7896    1.5338    0.5992 O.3     1  UNL1       -0.4951
      3 C          -4.7856    0.6477    0.3561 C.ar    1  UNL1        0.1216
      4 C          -4.4186    0.3303   -0.9242 C.ar    1  UNL1       -0.0181
      5 C          -3.3986   -0.5701   -1.1257 C.ar    1  UNL1       -0.0356
      6 C          -2.7129   -1.1818   -0.0666 C.ar    1  UNL1        0.0512
      7 N          -1.6713   -2.1079   -0.3365 N.pl3   1  UNL1       -0.2982
      8 C          -0.3599   -1.8060    0.1355 C.ar    1  UNL1        0.1249
      9 C           0.4368   -1.0049   -0.6931 C.ar    1  UNL1        0.0023
     10 C           1.7064   -0.7185   -0.2463 C.ar    1  UNL1        0.0516
     11 N           2.7007    0.0205   -0.8153 N.ar    1  UNL1       -0.3539
     12 C           3.7898    0.0393   -0.0273 C.ar    1  UNL1        0.0505
     13 C           5.0604    0.7230   -0.2896 C.ar    1  UNL1        0.0355
     14 C           5.3756    1.4763   -1.3967 C.ar    1  UNL1        0.0582
     15 N           6.6491    1.9146   -1.2191 N.ar    1  UNL1       -0.1817
     16 N           7.1467    1.4872   -0.0811 N.ar    1  UNL1       -0.2841
     17 C           6.1844    0.7530    0.5042 C.ar    1  UNL1        0.0314
     18 C           3.4574   -0.7212    1.0793 C.ar    1  UNL1       -0.0271
     19 C           2.1706   -1.1974    0.9585 C.ar    1  UNL1        0.0185
     20 C           1.3359   -1.9805    1.7265 C.ar    1  UNL1        0.0389
     21 N           0.0931   -2.2732    1.3111 N.ar    1  UNL1       -0.2395
     22 C          -3.0987   -0.8482    1.2139 C.ar    1  UNL1        0.0655
     23 CL         -2.3290   -1.5474    2.6201 Cl      1  UNL1       -0.0815
     24 C          -4.1249    0.0579    1.4041 C.ar    1  UNL1        0.0002
     25 H          -6.0337    3.1464   -0.6665 H       1  UNL1        0.0660
     26 H          -7.5336    2.4792    0.1621 H       1  UNL1        0.0660
     27 H          -6.7762    1.6306   -1.2554 H       1  UNL1        0.0660
     28 H          -4.9088    0.7682   -1.7979 H       1  UNL1        0.0655
     29 H          -3.0709   -0.8543   -2.1154 H       1  UNL1        0.0638
     30 H          -1.8296   -2.9941   -0.8633 H       1  UNL1        0.1536
     31 H           0.0529   -0.6399   -1.6341 H       1  UNL1        0.0673
     32 H           2.6373    0.5162   -1.7478 H       1  UNL1        0.1659
     33 H           4.7529    1.6887   -2.2453 H       1  UNL1        0.0854
     34 H           8.1184    1.6950    0.2806 H       1  UNL1        0.1882
     35 H           6.2700    0.2589    1.4508 H       1  UNL1        0.0830
     36 H           4.1306   -0.9001    1.9063 H       1  UNL1        0.0645
     37 H           1.7362   -2.3395    2.6691 H       1  UNL1        0.0837
     38 H          -4.4056    0.3005    2.4081 H       1  UNL1        0.0669
@<TRIPOS>BOND
     1     1     2    1
     2     2     3    1
     3     3     4   ar
     4     4     5   ar
     5     5     6   ar
     6     6     7    1
     7     7     8    1
     8     8     9   ar
     9     9    10   ar
    10    10    11   ar
    11    11    12   ar
    12    12    13    1
    13    13    14   ar
    14    14    15   ar
    15    15    16   ar
    16    16    17   ar
    17    12    18   ar
    18    18    19   ar
    19    19    20   ar
    20    20    21   ar
    21     6    22   ar
    22    22    23    1
    23    22    24   ar
    24    24     3   ar
    25    21     8   ar
    26    19    10   ar
    27    17    13   ar
    28     1    25    1
    29     1    26    1
    30     1    27    1
    31     4    28    1
    32     5    29    1
    33     7    30    1
    34     9    31    1
    35    11    32    1
    36    14    33    1
    37    16    34    1
    38    17    35    1
    39    18    36    1
    40    20    37    1
    41    24    38    1
