@<TRIPOS>MOLECULE
*****
 124 127 0 0 0
SMALL
GASTEIGER

@<TRIPOS>ATOM
      1 C           5.8096    0.5460    0.8034 C.3     1  UNL1       -0.0201
      2 C           6.0880    2.0377    0.4857 C.3     1  UNL1       -0.0453
      3 C           7.0468    2.5936    1.5084 C.3     1  UNL1       -0.0337
      4 C           7.9322    1.4812    2.0435 C.3     1  UNL1        0.0601
      5 CL          9.4726    2.2308    2.5701 Cl      1  UNL1       -0.1191
      6 C           8.2897    0.5005    0.9668 C.3     1  UNL1        0.0750
      7 C           7.0338   -0.2335    0.4556 C.3     1  UNL1       -0.0189
      8 O           8.9885    1.0981   -0.0819 O.3     1  UNL1       -0.3783
      9 C          10.2537    0.4997   -0.1328 C.3     1  UNL1        0.0369
     10 C           4.5566    0.2194    0.1787 C.2     1  UNL1       -0.0784
     11 C           3.9019   -0.5388   -0.6674 C.2     1  UNL1       -0.0360
     12 C           4.8538   -1.5270   -1.2826 C.3     1  UNL1       -0.0403
     13 C           2.4709   -0.6001   -1.0620 C.3     1  UNL1        0.1288
     14 O           1.9682   -1.7901   -0.4683 O.3     1  UNL1       -0.4553
     15 C           1.5233   -2.9110   -1.0969 C.2     1  UNL1        0.3284
     16 O           1.5976   -2.8002   -2.3577 O.2     1  UNL1       -0.2487
     17 C           1.0130   -4.1213   -0.3867 C.3     1  UNL1        0.1233
     18 C           1.8327   -5.2602   -0.8852 C.3     1  UNL1       -0.0238
     19 C           1.5360   -5.7774   -2.2385 C.3     1  UNL1       -0.0494
     20 C           0.0497   -5.6702   -2.4739 C.3     1  UNL1       -0.0370
     21 C          -0.6087   -5.6134   -1.1462 C.3     1  UNL1        0.0159
     22 N          -0.4094   -4.3138   -0.4530 N.am    1  UNL1       -0.2815
     23 C          -0.9499   -3.1627    0.1827 C.2     1  UNL1        0.2883
     24 O          -1.8772   -3.8516   -0.1863 O.2     1  UNL1       -0.2666
     25 C          -2.1773   -2.4856    0.5686 C.2     1  UNL1        0.2760
     26 O          -1.7426   -1.4551    1.2021 O.2     1  UNL1       -0.2814
     27 C          -3.6264   -2.2316    0.6927 C.3     1  UNL1        0.2402
     28 O          -4.3742   -3.2124    0.0109 O.3     1  UNL1       -0.3583
     29 O          -4.0127   -1.0063    0.1245 O.3     1  UNL1       -0.3336
     30 C          -5.3840   -0.9761   -0.0183 C.3     1  UNL1        0.1144
     31 C          -5.9990   -0.7939    1.3296 C.3     1  UNL1        0.0874
     32 C          -5.5976   -2.0831    2.1122 C.3     1  UNL1       -0.0162
     33 C          -4.1021   -2.1866    2.1327 C.3     1  UNL1        0.0206
     34 C          -3.7309   -3.4701    2.8393 C.3     1  UNL1       -0.0570
     35 O          -7.3884   -0.7100    1.3343 O.3     1  UNL1       -0.3771
     36 C          -7.7680    0.3472    2.1412 C.3     1  UNL1        0.0369
     37 C          -5.7023    0.0588   -1.0554 C.3     1  UNL1        0.0872
     38 C          -5.3919    1.4666   -0.7403 C.3     1  UNL1       -0.0212
     39 C          -3.9468    1.7804   -0.4385 C.3     1  UNL1       -0.0378
     40 C          -3.0776    1.4161   -1.6461 C.3     1  UNL1       -0.0620
     41 C          -3.7603    3.2763   -0.2868 C.3     1  UNL1       -0.0293
     42 C          -2.4278    3.6533    0.2606 C.2     1  UNL1       -0.0756
     43 C          -2.2354    3.1546    1.6746 C.3     1  UNL1       -0.0438
     44 C          -1.4256    4.3415   -0.3052 C.2     1  UNL1       -0.0749
     45 C          -0.0652    4.8778   -0.0943 C.3     1  UNL1        0.0356
     46 C           0.3653    5.0828    1.3111 C.3     1  UNL1       -0.0429
     47 C          -0.5629    6.0682    1.9622 C.3     1  UNL1       -0.0644
     48 C           0.9692    4.2228   -0.9728 C.2     1  UNL1        0.1425
     49 O           1.6845    4.7335   -1.8249 O.2     1  UNL1       -0.2967
     50 C           0.9027    2.8374   -0.5510 C.3     1  UNL1        0.0328
     51 C           1.8782    1.8756   -1.2134 C.3     1  UNL1        0.0681
     52 O           1.7089    1.8572   -2.5931 O.3     1  UNL1       -0.3910
     53 C           1.6124    0.5052   -0.6101 C.3     1  UNL1        0.0236
     54 C           0.1665    0.1599   -0.9669 C.3     1  UNL1       -0.0564
     55 O          -7.0395   -0.0843   -1.5041 O.3     1  UNL1       -0.3771
     56 C          -6.9686   -0.5293   -2.8369 C.3     1  UNL1        0.0369
     57 H           5.7754    0.5493    1.9316 H       1  UNL1        0.0344
     58 H           5.1113    2.5446    0.6320 H       1  UNL1        0.0271
     59 H           6.4956    2.1209   -0.5361 H       1  UNL1        0.0271
     60 H           7.6660    3.3660    1.0139 H       1  UNL1        0.0280
     61 H           6.4707    3.0765    2.3460 H       1  UNL1        0.0280
     62 H           7.5142    0.9627    2.9061 H       1  UNL1        0.0491
     63 H           8.9796   -0.2475    1.3958 H       1  UNL1        0.0610
     64 H           7.0493   -1.2003    1.0246 H       1  UNL1        0.0296
     65 H           7.2258   -0.3762   -0.6200 H       1  UNL1        0.0296
     66 H          10.8044    0.6440    0.8098 H       1  UNL1        0.0524
     67 H          10.1744   -0.6054   -0.2937 H       1  UNL1        0.0524
     68 H          10.7603    0.9306   -1.0201 H       1  UNL1        0.0524
     69 H           3.8321    0.9171    0.6580 H       1  UNL1        0.0575
     70 H           5.5069   -1.0726   -2.0548 H       1  UNL1        0.0276
     71 H           4.2779   -2.2965   -1.8527 H       1  UNL1        0.0276
     72 H           5.5131   -2.0041   -0.5327 H       1  UNL1        0.0276
     73 H           2.4233   -0.7659   -2.1759 H       1  UNL1        0.0785
     74 H           1.3201   -3.9762    0.6932 H       1  UNL1        0.0616
     75 H           1.7753   -6.0899   -0.1452 H       1  UNL1        0.0288
     76 H           2.9039   -4.8994   -0.8738 H       1  UNL1        0.0288
     77 H           2.1220   -5.1852   -2.9707 H       1  UNL1        0.0266
     78 H           1.8256   -6.8566   -2.2567 H       1  UNL1        0.0266
     79 H          -0.1277   -4.7769   -3.1065 H       1  UNL1        0.0280
     80 H          -0.2935   -6.6039   -2.9681 H       1  UNL1        0.0280
     81 H          -0.1696   -6.3696   -0.4775 H       1  UNL1        0.0465
     82 H          -1.6944   -5.8519   -1.1724 H       1  UNL1        0.0465
     83 H          -4.4203   -4.0182    0.5811 H       1  UNL1        0.2132
     84 H          -5.7708   -1.9836   -0.3745 H       1  UNL1        0.0649
     85 H          -5.5197    0.0185    1.8945 H       1  UNL1        0.0623
     86 H          -6.0462   -2.0638    3.1043 H       1  UNL1        0.0295
     87 H          -6.0129   -2.9572    1.5628 H       1  UNL1        0.0295
     88 H          -3.6938   -1.3085    2.6351 H       1  UNL1        0.0355
     89 H          -3.7731   -3.3284    3.9499 H       1  UNL1        0.0234
     90 H          -4.4099   -4.3039    2.6046 H       1  UNL1        0.0234
     91 H          -2.6819   -3.7439    2.5545 H       1  UNL1        0.0234
     92 H          -8.8748    0.4678    2.1809 H       1  UNL1        0.0524
     93 H          -7.4948    0.0588    3.2038 H       1  UNL1        0.0524
     94 H          -7.2684    1.2994    1.9638 H       1  UNL1        0.0524
     95 H          -5.0849   -0.2469   -1.9601 H       1  UNL1        0.0623
     96 H          -5.7556    2.0997   -1.6093 H       1  UNL1        0.0294
     97 H          -5.9721    1.8469    0.1207 H       1  UNL1        0.0294
     98 H          -3.5613    1.2648    0.4250 H       1  UNL1        0.0302
     99 H          -3.6641    1.5440   -2.5880 H       1  UNL1        0.0233
    100 H          -2.5987    0.4350   -1.5767 H       1  UNL1        0.0233
    101 H          -2.2629    2.1568   -1.7197 H       1  UNL1        0.0233
    102 H          -3.9630    3.8084   -1.2539 H       1  UNL1        0.0312
    103 H          -4.5471    3.6396    0.4029 H       1  UNL1        0.0312
    104 H          -2.9815    2.3858    1.9608 H       1  UNL1        0.0274
    105 H          -2.4290    3.9774    2.4244 H       1  UNL1        0.0274
    106 H          -1.2591    2.6610    1.8164 H       1  UNL1        0.0274
    107 H          -1.7851    4.5838   -1.3293 H       1  UNL1        0.0578
    108 H          -0.0766    5.9506   -0.5185 H       1  UNL1        0.0420
    109 H           0.5409    4.1855    1.9166 H       1  UNL1        0.0272
    110 H           1.3826    5.5842    1.2557 H       1  UNL1        0.0272
    111 H          -1.5521    6.0700    1.4325 H       1  UNL1        0.0230
    112 H          -0.1630    7.0880    1.8088 H       1  UNL1        0.0230
    113 H          -0.7746    5.8375    3.0146 H       1  UNL1        0.0230
    114 H           1.0483    2.7787    0.5713 H       1  UNL1        0.0367
    115 H          -0.1198    2.4219   -0.7381 H       1  UNL1        0.0367
    116 H           2.8813    2.2036   -0.9695 H       1  UNL1        0.0601
    117 H           1.9937    1.0342   -3.0274 H       1  UNL1        0.2098
    118 H           1.6547    0.6093    0.4969 H       1  UNL1        0.0362
    119 H          -0.1431    0.7388   -1.8900 H       1  UNL1        0.0234
    120 H          -0.5320    0.5276   -0.1897 H       1  UNL1        0.0234
    121 H           0.0277   -0.8915   -1.2580 H       1  UNL1        0.0234
    122 H          -6.4311   -1.4937   -2.8550 H       1  UNL1        0.0524
    123 H          -7.9653   -0.5930   -3.2818 H       1  UNL1        0.0524
    124 H          -6.3366    0.1955   -3.4101 H       1  UNL1        0.0524
@<TRIPOS>BOND
     1     1     2    1
     2     2     3    1
     3     3     4    1
     4     4     5    1
     5     4     6    1
     6     6     7    1
     7     6     8    1
     8     8     9    1
     9     1    10    1
    10    10    11    2
    11    11    12    1
    12    11    13    1
    13    13    14    1
    14    14    15    1
    15    15    16    2
    16    15    17    1
    17    17    18    1
    18    18    19    1
    19    19    20    1
    20    20    21    1
    21    21    22    1
    22    22    23   am
    23    23    24    2
    24    23    25    1
    25    25    26    2
    26    25    27    1
    27    27    28    1
    28    27    29    1
    29    29    30    1
    30    30    31    1
    31    31    32    1
    32    32    33    1
    33    33    34    1
    34    31    35    1
    35    35    36    1
    36    30    37    1
    37    37    38    1
    38    38    39    1
    39    39    40    1
    40    39    41    1
    41    41    42    1
    42    42    43    1
    43    42    44    2
    44    44    45    1
    45    45    46    1
    46    46    47    1
    47    45    48    1
    48    48    49    2
    49    48    50    1
    50    50    51    1
    51    51    52    1
    52    51    53    1
    53    53    54    1
    54    37    55    1
    55    55    56    1
    56     7     1    1
    57    53    13    1
    58    22    17    1
    59    33    27    1
    60     1    57    1
    61     2    58    1
    62     2    59    1
    63     3    60    1
    64     3    61    1
    65     4    62    1
    66     6    63    1
    67     7    64    1
    68     7    65    1
    69     9    66    1
    70     9    67    1
    71     9    68    1
    72    10    69    1
    73    12    70    1
    74    12    71    1
    75    12    72    1
    76    13    73    1
    77    17    74    1
    78    18    75    1
    79    18    76    1
    80    19    77    1
    81    19    78    1
    82    20    79    1
    83    20    80    1
    84    21    81    1
    85    21    82    1
    86    28    83    1
    87    30    84    1
    88    31    85    1
    89    32    86    1
    90    32    87    1
    91    33    88    1
    92    34    89    1
    93    34    90    1
    94    34    91    1
    95    36    92    1
    96    36    93    1
    97    36    94    1
    98    37    95    1
    99    38    96    1
   100    38    97    1
   101    39    98    1
   102    40    99    1
   103    40   100    1
   104    40   101    1
   105    41   102    1
   106    41   103    1
   107    43   104    1
   108    43   105    1
   109    43   106    1
   110    44   107    1
   111    45   108    1
   112    46   109    1
   113    46   110    1
   114    47   111    1
   115    47   112    1
   116    47   113    1
   117    50   114    1
   118    50   115    1
   119    51   116    1
   120    52   117    1
   121    53   118    1
   122    54   119    1
   123    54   120    1
   124    54   121    1
   125    56   122    1
   126    56   123    1
   127    56   124    1
