
     RDKit          3D

124127  0  0  0  0  0  0  0  0999 V2000
    5.8096    0.5460    0.8034 C   0  0  2  0  0  0  0  0  0  0  0  0
    6.0880    2.0377    0.4857 C   0  0  0  0  0  0  0  0  0  0  0  0
    7.0468    2.5936    1.5084 C   0  0  0  0  0  0  0  0  0  0  0  0
    7.9322    1.4812    2.0435 C   0  0  2  0  0  0  0  0  0  0  0  0
    9.4726    2.2308    2.5701 Cl  0  0  0  0  0  0  0  0  0  0  0  0
    8.2897    0.5005    0.9668 C   0  0  1  0  0  0  0  0  0  0  0  0
    7.0338   -0.2335    0.4556 C   0  0  0  0  0  0  0  0  0  0  0  0
    8.9885    1.0981   -0.0819 O   0  0  0  0  0  0  0  0  0  0  0  0
   10.2537    0.4997   -0.1328 C   0  0  0  0  0  0  0  0  0  0  0  0
    4.5566    0.2194    0.1787 C   0  0  0  0  0  0  0  0  0  0  0  0
    3.9019   -0.5388   -0.6674 C   0  0  0  0  0  0  0  0  0  0  0  0
    4.8538   -1.5270   -1.2826 C   0  0  0  0  0  0  0  0  0  0  0  0
    2.4709   -0.6001   -1.0620 C   0  0  1  0  0  0  0  0  0  0  0  0
    1.9682   -1.7901   -0.4683 O   0  0  0  0  0  0  0  0  0  0  0  0
    1.5233   -2.9110   -1.0969 C   0  0  0  0  0  0  0  0  0  0  0  0
    1.5976   -2.8002   -2.3577 O   0  0  0  0  0  0  0  0  0  0  0  0
    1.0130   -4.1213   -0.3867 C   0  0  2  0  0  0  0  0  0  0  0  0
    1.8327   -5.2602   -0.8852 C   0  0  0  0  0  0  0  0  0  0  0  0
    1.5360   -5.7774   -2.2385 C   0  0  0  0  0  0  0  0  0  0  0  0
    0.0497   -5.6702   -2.4739 C   0  0  0  0  0  0  0  0  0  0  0  0
   -0.6087   -5.6134   -1.1462 C   0  0  0  0  0  0  0  0  0  0  0  0
   -0.4094   -4.3138   -0.4530 N   0  0  0  0  0  0  0  0  0  0  0  0
   -0.9499   -3.1627    0.1827 C   0  0  0  0  0  0  0  0  0  0  0  0
   -1.8772   -3.8516   -0.1863 O   0  0  0  0  0  0  0  0  0  0  0  0
   -2.1773   -2.4856    0.5686 C   0  0  0  0  0  0  0  0  0  0  0  0
   -1.7426   -1.4551    1.2021 O   0  0  0  0  0  0  0  0  0  0  0  0
   -3.6264   -2.2316    0.6927 C   0  0  2  0  0  0  0  0  0  0  0  0
   -4.3742   -3.2124    0.0109 O   0  0  0  0  0  0  0  0  0  0  0  0
   -4.0127   -1.0063    0.1245 O   0  0  0  0  0  0  0  0  0  0  0  0
   -5.3840   -0.9761   -0.0183 C   0  0  1  0  0  0  0  0  0  0  0  0
   -5.9990   -0.7939    1.3296 C   0  0  2  0  0  0  0  0  0  0  0  0
   -5.5976   -2.0831    2.1122 C   0  0  0  0  0  0  0  0  0  0  0  0
   -4.1021   -2.1866    2.1327 C   0  0  1  0  0  0  0  0  0  0  0  0
   -3.7309   -3.4701    2.8393 C   0  0  0  0  0  0  0  0  0  0  0  0
   -7.3884   -0.7100    1.3343 O   0  0  0  0  0  0  0  0  0  0  0  0
   -7.7680    0.3472    2.1412 C   0  0  0  0  0  0  0  0  0  0  0  0
   -5.7023    0.0588   -1.0554 C   0  0  2  0  0  0  0  0  0  0  0  0
   -5.3919    1.4666   -0.7403 C   0  0  0  0  0  0  0  0  0  0  0  0
   -3.9468    1.7804   -0.4385 C   0  0  1  0  0  0  0  0  0  0  0  0
   -3.0776    1.4161   -1.6461 C   0  0  0  0  0  0  0  0  0  0  0  0
   -3.7603    3.2763   -0.2868 C   0  0  0  0  0  0  0  0  0  0  0  0
   -2.4278    3.6533    0.2606 C   0  0  0  0  0  0  0  0  0  0  0  0
   -2.2354    3.1546    1.6746 C   0  0  0  0  0  0  0  0  0  0  0  0
   -1.4256    4.3415   -0.3052 C   0  0  0  0  0  0  0  0  0  0  0  0
   -0.0652    4.8778   -0.0943 C   0  0  1  0  0  0  0  0  0  0  0  0
    0.3653    5.0828    1.3111 C   0  0  0  0  0  0  0  0  0  0  0  0
   -0.5629    6.0682    1.9622 C   0  0  0  0  0  0  0  0  0  0  0  0
    0.9692    4.2228   -0.9728 C   0  0  0  0  0  0  0  0  0  0  0  0
    1.6845    4.7335   -1.8249 O   0  0  0  0  0  0  0  0  0  0  0  0
    0.9027    2.8374   -0.5510 C   0  0  0  0  0  0  0  0  0  0  0  0
    1.8782    1.8756   -1.2134 C   0  0  2  0  0  0  0  0  0  0  0  0
    1.7089    1.8572   -2.5931 O   0  0  0  0  0  0  0  0  0  0  0  0
    1.6124    0.5052   -0.6101 C   0  0  1  0  0  0  0  0  0  0  0  0
    0.1665    0.1599   -0.9669 C   0  0  0  0  0  0  0  0  0  0  0  0
   -7.0395   -0.0843   -1.5041 O   0  0  0  0  0  0  0  0  0  0  0  0
   -6.9686   -0.5293   -2.8369 C   0  0  0  0  0  0  0  0  0  0  0  0
    5.7754    0.5493    1.9316 H   0  0  0  0  0  0  0  0  0  0  0  0
    5.1113    2.5446    0.6320 H   0  0  0  0  0  0  0  0  0  0  0  0
    6.4956    2.1209   -0.5361 H   0  0  0  0  0  0  0  0  0  0  0  0
    7.6660    3.3660    1.0139 H   0  0  0  0  0  0  0  0  0  0  0  0
    6.4707    3.0765    2.3460 H   0  0  0  0  0  0  0  0  0  0  0  0
    7.5142    0.9627    2.9061 H   0  0  0  0  0  0  0  0  0  0  0  0
    8.9796   -0.2475    1.3958 H   0  0  0  0  0  0  0  0  0  0  0  0
    7.0493   -1.2003    1.0246 H   0  0  0  0  0  0  0  0  0  0  0  0
    7.2258   -0.3762   -0.6200 H   0  0  0  0  0  0  0  0  0  0  0  0
   10.8044    0.6440    0.8098 H   0  0  0  0  0  0  0  0  0  0  0  0
   10.1744   -0.6054   -0.2937 H   0  0  0  0  0  0  0  0  0  0  0  0
   10.7603    0.9306   -1.0201 H   0  0  0  0  0  0  0  0  0  0  0  0
    3.8321    0.9171    0.6580 H   0  0  0  0  0  0  0  0  0  0  0  0
    5.5069   -1.0726   -2.0548 H   0  0  0  0  0  0  0  0  0  0  0  0
    4.2779   -2.2965   -1.8527 H   0  0  0  0  0  0  0  0  0  0  0  0
    5.5131   -2.0041   -0.5327 H   0  0  0  0  0  0  0  0  0  0  0  0
    2.4233   -0.7659   -2.1759 H   0  0  0  0  0  0  0  0  0  0  0  0
    1.3201   -3.9762    0.6932 H   0  0  0  0  0  0  0  0  0  0  0  0
    1.7753   -6.0899   -0.1452 H   0  0  0  0  0  0  0  0  0  0  0  0
    2.9039   -4.8994   -0.8738 H   0  0  0  0  0  0  0  0  0  0  0  0
    2.1220   -5.1852   -2.9707 H   0  0  0  0  0  0  0  0  0  0  0  0
    1.8256   -6.8566   -2.2567 H   0  0  0  0  0  0  0  0  0  0  0  0
   -0.1277   -4.7769   -3.1065 H   0  0  0  0  0  0  0  0  0  0  0  0
   -0.2935   -6.6039   -2.9681 H   0  0  0  0  0  0  0  0  0  0  0  0
   -0.1696   -6.3696   -0.4775 H   0  0  0  0  0  0  0  0  0  0  0  0
   -1.6944   -5.8519   -1.1724 H   0  0  0  0  0  0  0  0  0  0  0  0
   -4.4203   -4.0182    0.5811 H   0  0  0  0  0  0  0  0  0  0  0  0
   -5.7708   -1.9836   -0.3745 H   0  0  0  0  0  0  0  0  0  0  0  0
   -5.5197    0.0185    1.8945 H   0  0  0  0  0  0  0  0  0  0  0  0
   -6.0462   -2.0638    3.1043 H   0  0  0  0  0  0  0  0  0  0  0  0
   -6.0129   -2.9572    1.5628 H   0  0  0  0  0  0  0  0  0  0  0  0
   -3.6938   -1.3085    2.6351 H   0  0  0  0  0  0  0  0  0  0  0  0
   -3.7731   -3.3284    3.9499 H   0  0  0  0  0  0  0  0  0  0  0  0
   -4.4099   -4.3039    2.6046 H   0  0  0  0  0  0  0  0  0  0  0  0
   -2.6819   -3.7439    2.5545 H   0  0  0  0  0  0  0  0  0  0  0  0
   -8.8748    0.4678    2.1809 H   0  0  0  0  0  0  0  0  0  0  0  0
   -7.4948    0.0588    3.2038 H   0  0  0  0  0  0  0  0  0  0  0  0
   -7.2684    1.2994    1.9638 H   0  0  0  0  0  0  0  0  0  0  0  0
   -5.0849   -0.2469   -1.9601 H   0  0  0  0  0  0  0  0  0  0  0  0
   -5.7556    2.0997   -1.6093 H   0  0  0  0  0  0  0  0  0  0  0  0
   -5.9721    1.8469    0.1207 H   0  0  0  0  0  0  0  0  0  0  0  0
   -3.5613    1.2648    0.4250 H   0  0  0  0  0  0  0  0  0  0  0  0
   -3.6641    1.5440   -2.5880 H   0  0  0  0  0  0  0  0  0  0  0  0
   -2.5987    0.4350   -1.5767 H   0  0  0  0  0  0  0  0  0  0  0  0
   -2.2629    2.1568   -1.7197 H   0  0  0  0  0  0  0  0  0  0  0  0
   -3.9630    3.8084   -1.2539 H   0  0  0  0  0  0  0  0  0  0  0  0
   -4.5471    3.6396    0.4029 H   0  0  0  0  0  0  0  0  0  0  0  0
   -2.9815    2.3858    1.9608 H   0  0  0  0  0  0  0  0  0  0  0  0
   -2.4290    3.9774    2.4244 H   0  0  0  0  0  0  0  0  0  0  0  0
   -1.2591    2.6610    1.8164 H   0  0  0  0  0  0  0  0  0  0  0  0
   -1.7851    4.5838   -1.3293 H   0  0  0  0  0  0  0  0  0  0  0  0
   -0.0766    5.9506   -0.5185 H   0  0  0  0  0  0  0  0  0  0  0  0
    0.5409    4.1855    1.9166 H   0  0  0  0  0  0  0  0  0  0  0  0
    1.3826    5.5842    1.2557 H   0  0  0  0  0  0  0  0  0  0  0  0
   -1.5521    6.0700    1.4325 H   0  0  0  0  0  0  0  0  0  0  0  0
   -0.1630    7.0880    1.8088 H   0  0  0  0  0  0  0  0  0  0  0  0
   -0.7746    5.8375    3.0146 H   0  0  0  0  0  0  0  0  0  0  0  0
    1.0483    2.7787    0.5713 H   0  0  0  0  0  0  0  0  0  0  0  0
   -0.1198    2.4219   -0.7381 H   0  0  0  0  0  0  0  0  0  0  0  0
    2.8813    2.2036   -0.9695 H   0  0  0  0  0  0  0  0  0  0  0  0
    1.9937    1.0342   -3.0274 H   0  0  0  0  0  0  0  0  0  0  0  0
    1.6547    0.6093    0.4969 H   0  0  0  0  0  0  0  0  0  0  0  0
   -0.1431    0.7388   -1.8900 H   0  0  0  0  0  0  0  0  0  0  0  0
   -0.5320    0.5276   -0.1897 H   0  0  0  0  0  0  0  0  0  0  0  0
    0.0277   -0.8915   -1.2580 H   0  0  0  0  0  0  0  0  0  0  0  0
   -6.4311   -1.4937   -2.8550 H   0  0  0  0  0  0  0  0  0  0  0  0
   -7.9653   -0.5930   -3.2818 H   0  0  0  0  0  0  0  0  0  0  0  0
   -6.3366    0.1955   -3.4101 H   0  0  0  0  0  0  0  0  0  0  0  0
  1  2  1  0
  2  3  1  0
  3  4  1  0
  4  5  1  0
  4  6  1  0
  6  7  1  0
  6  8  1  0
  8  9  1  0
  1 10  1  0
 10 11  2  0
 11 12  1  0
 11 13  1  0
 13 14  1  0
 14 15  1  0
 15 16  2  0
 15 17  1  0
 17 18  1  0
 18 19  1  0
 19 20  1  0
 20 21  1  0
 21 22  1  0
 22 23  1  0
 23 24  2  0
 23 25  1  0
 25 26  2  0
 25 27  1  0
 27 28  1  6
 27 29  1  0
 29 30  1  0
 30 31  1  0
 31 32  1  0
 32 33  1  0
 33 34  1  0
 31 35  1  0
 35 36  1  0
 30 37  1  0
 37 38  1  0
 38 39  1  0
 39 40  1  0
 39 41  1  0
 41 42  1  0
 42 43  1  0
 42 44  2  0
 44 45  1  0
 45 46  1  0
 46 47  1  0
 45 48  1  0
 48 49  2  0
 48 50  1  0
 50 51  1  0
 51 52  1  0
 51 53  1  0
 53 54  1  0
 37 55  1  0
 55 56  1  0
  7  1  1  0
 53 13  1  0
 22 17  1  0
 33 27  1  0
  1 57  1  1
  2 58  1  0
  2 59  1  0
  3 60  1  0
  3 61  1  0
  4 62  1  1
  6 63  1  1
  7 64  1  0
  7 65  1  0
  9 66  1  0
  9 67  1  0
  9 68  1  0
 10 69  1  0
 12 70  1  0
 12 71  1  0
 12 72  1  0
 13 73  1  6
 17 74  1  1
 18 75  1  0
 18 76  1  0
 19 77  1  0
 19 78  1  0
 20 79  1  0
 20 80  1  0
 21 81  1  0
 21 82  1  0
 28 83  1  0
 30 84  1  6
 31 85  1  1
 32 86  1  0
 32 87  1  0
 33 88  1  1
 34 89  1  0
 34 90  1  0
 34 91  1  0
 36 92  1  0
 36 93  1  0
 36 94  1  0
 37 95  1  6
 38 96  1  0
 38 97  1  0
 39 98  1  1
 40 99  1  0
 40100  1  0
 40101  1  0
 41102  1  0
 41103  1  0
 43104  1  0
 43105  1  0
 43106  1  0
 44107  1  0
 45108  1  6
 46109  1  0
 46110  1  0
 47111  1  0
 47112  1  0
 47113  1  0
 50114  1  0
 50115  1  0
 51116  1  6
 52117  1  0
 53118  1  1
 54119  1  0
 54120  1  0
 54121  1  0
 56122  1  0
 56123  1  0
 56124  1  0
M  END
$$$$
