@<TRIPOS>MOLECULE
*****
 41 43 0 0 0
SMALL
GASTEIGER

@<TRIPOS>ATOM
      1 C          -5.4369   -2.6796   -0.9144 C.3     1  UNL1        0.0788
      2 O          -4.8421   -1.4151   -0.8099 O.3     1  UNL1       -0.4951
      3 C          -3.4679   -1.2581   -0.7464 C.ar    1  UNL1        0.1208
      4 C          -2.6180   -2.3331   -0.7823 C.ar    1  UNL1       -0.0180
      5 C          -1.2427   -2.1090   -0.7144 C.ar    1  UNL1       -0.0337
      6 C          -0.7546   -0.8242   -0.6131 C.ar    1  UNL1        0.0574
      7 C          -1.6166    0.2397   -0.5783 C.ar    1  UNL1        0.0077
      8 C          -2.9683    0.0255   -0.6446 C.ar    1  UNL1       -0.0105
      9 C          -0.8971    1.3835   -0.4762 C.ar    1  UNL1       -0.0080
     10 C          -1.3478    2.7914   -0.3948 C.3     1  UNL1        0.0721
     11 C          -1.8698    3.1521    0.9286 C.2     1  UNL1        0.3091
     12 O          -1.8750    2.2492    1.8230 O.2     1  UNL1       -0.2507
     13 O          -2.3453    4.3902    1.2490 O.3     1  UNL1       -0.4804
     14 C           0.4214    0.9833   -0.4513 C.ar    1  UNL1        0.0284
     15 C           1.5591    1.9543   -0.4291 C.3     1  UNL1       -0.0235
     16 N           0.5409   -0.3655   -0.5308 N.ar    1  UNL1       -0.2801
     17 C           1.6832   -1.1910   -0.4437 C.2     1  UNL1        0.2631
     18 O           1.5108   -2.4254   -0.7921 O.2     1  UNL1       -0.2667
     19 C           3.0223   -0.8481   -0.0165 C.ar    1  UNL1        0.0399
     20 C           4.1282   -1.3710   -0.6553 C.ar    1  UNL1       -0.0480
     21 C           5.3738   -1.1028   -0.1728 C.ar    1  UNL1       -0.0427
     22 C           5.5686   -0.3152    0.9489 C.ar    1  UNL1        0.0410
     23 CL          7.1540    0.0474    1.5905 Cl      1  UNL1       -0.0835
     24 C           4.4715    0.2179    1.6042 C.ar    1  UNL1       -0.0427
     25 C           3.2269   -0.0744    1.0888 C.ar    1  UNL1       -0.0480
     26 H          -5.0180   -3.4120   -0.1800 H       1  UNL1        0.0660
     27 H          -5.3500   -3.0802   -1.9286 H       1  UNL1        0.0660
     28 H          -6.5186   -2.5728   -0.6443 H       1  UNL1        0.0660
     29 H          -2.9965   -3.3458   -0.8623 H       1  UNL1        0.0655
     30 H          -0.5968   -2.9799   -0.7427 H       1  UNL1        0.0640
     31 H          -3.6594    0.8539   -0.6180 H       1  UNL1        0.0661
     32 H          -2.2237    2.8583   -1.1083 H       1  UNL1        0.0427
     33 H          -0.6315    3.5324   -0.7823 H       1  UNL1        0.0427
     34 H          -3.0635    4.4667    1.9563 H       1  UNL1        0.2951
     35 H           2.4241    1.5985   -0.9778 H       1  UNL1        0.0292
     36 H           1.2354    2.8912   -1.0009 H       1  UNL1        0.0292
     37 H           1.7643    2.3362    0.5785 H       1  UNL1        0.0292
     38 H           3.9954   -1.9763   -1.5152 H       1  UNL1        0.0626
     39 H           6.2776   -1.4881   -0.6366 H       1  UNL1        0.0632
     40 H           4.5877    0.8424    2.4900 H       1  UNL1        0.0632
     41 H           2.3949    0.3534    1.6789 H       1  UNL1        0.0626
@<TRIPOS>BOND
     1     1     2    1
     2     2     3    1
     3     3     4   ar
     4     4     5   ar
     5     5     6   ar
     6     6     7   ar
     7     7     8   ar
     8     7     9   ar
     9     9    10    1
    10    10    11    1
    11    11    12    2
    12    11    13    1
    13     9    14   ar
    14    14    15    1
    15    14    16   ar
    16    16    17   am
    17    17    18    2
    18    17    19    1
    19    19    20   ar
    20    20    21   ar
    21    21    22   ar
    22    22    23    1
    23    22    24   ar
    24    24    25   ar
    25     8     3   ar
    26    25    19   ar
    27    16     6   ar
    28     1    26    1
    29     1    27    1
    30     1    28    1
    31     4    29    1
    32     5    30    1
    33     8    31    1
    34    10    32    1
    35    10    33    1
    36    13    34    1
    37    15    35    1
    38    15    36    1
    39    15    37    1
    40    20    38    1
    41    21    39    1
    42    24    40    1
    43    25    41    1
