@<TRIPOS>MOLECULE
*****
 45 48 0 0 0
SMALL
GASTEIGER

@<TRIPOS>ATOM
      1 O          -3.4387   -1.2461    2.2832 O.2     1  UNL1       -0.1528
      2 S          -3.1622   -1.3040    0.7868 S.O2    1  UNL1        0.0611
      3 O          -3.1271   -2.7905    0.4567 O.2     1  UNL1       -0.1528
      4 C          -1.6218   -0.6264    0.3975 C.ar    1  UNL1        0.1076
      5 C          -1.1202    0.4423    1.1111 C.ar    1  UNL1       -0.0332
      6 C           0.1020    1.0115    0.8389 C.ar    1  UNL1       -0.0324
      7 C           0.8694    0.4892   -0.2014 C.ar    1  UNL1        0.0901
      8 N           2.0701    0.8019   -0.7109 N.ar    1  UNL1       -0.2220
      9 C           2.4008   -0.0039   -1.7324 C.ar    1  UNL1        0.1676
     10 S           3.8609   -0.0167   -2.7566 S.3     1  UNL1       -0.0832
     11 C           5.0293    1.2393   -2.2456 C.3     1  UNL1        0.0262
     12 C           5.5760    0.8735   -0.9073 C.ar    1  UNL1       -0.0358
     13 C           5.0913    1.3582    0.2849 C.ar    1  UNL1       -0.0577
     14 C           5.6390    0.9619    1.5086 C.ar    1  UNL1       -0.0601
     15 C           6.6866    0.0704    1.5647 C.ar    1  UNL1       -0.0434
     16 C           7.1859   -0.4255    0.3798 C.ar    1  UNL1        0.0413
     17 CL          8.5151   -1.5559    0.4527 Cl      1  UNL1       -0.0835
     18 C           6.6430   -0.0326   -0.8205 C.ar    1  UNL1       -0.0394
     19 N           1.3394   -0.8538   -1.8485 N.ar    1  UNL1       -0.3328
     20 C           0.4009   -0.5737   -0.9318 C.ar    1  UNL1        0.0687
     21 C          -0.8380   -1.1181   -0.6238 C.ar    1  UNL1       -0.0099
     22 N          -4.4796   -0.6269   -0.0260 N.3     1  UNL1       -0.1722
     23 C          -4.7243    0.7440    0.1957 C.3     1  UNL1        0.0440
     24 C          -5.9992    1.0896    0.8881 C.3     1  UNL1        0.0621
     25 O          -7.0718    0.3344    0.4539 O.3     1  UNL1       -0.3771
     26 C          -6.8155   -1.0232    0.6260 C.3     1  UNL1        0.0621
     27 C          -5.6116   -1.4734   -0.1654 C.3     1  UNL1        0.0440
     28 H          -1.6910    0.8644    1.9173 H       1  UNL1        0.0638
     29 H           0.4640    1.8377    1.4080 H       1  UNL1        0.0640
     30 H           4.5561    2.2396   -2.1169 H       1  UNL1        0.0429
     31 H           5.8573    1.3563   -2.9664 H       1  UNL1        0.0429
     32 H           4.2871    2.0611    0.2604 H       1  UNL1        0.0621
     33 H           5.2323    1.3630    2.4317 H       1  UNL1        0.0618
     34 H           7.1052   -0.2300    2.5329 H       1  UNL1        0.0632
     35 H           7.0215   -0.4111   -1.7630 H       1  UNL1        0.0635
     36 H           1.3049   -1.6036   -2.5653 H       1  UNL1        0.1679
     37 H          -1.1671   -1.9571   -1.2282 H       1  UNL1        0.0658
     38 H          -3.8671    1.1839    0.7483 H       1  UNL1        0.0466
     39 H          -4.7274    1.2664   -0.7965 H       1  UNL1        0.0466
     40 H          -6.2446    2.1577    0.6152 H       1  UNL1        0.0573
     41 H          -5.9133    1.1066    2.0006 H       1  UNL1        0.0573
     42 H          -6.7037   -1.2652    1.6915 H       1  UNL1        0.0573
     43 H          -7.6985   -1.5742    0.2426 H       1  UNL1        0.0573
     44 H          -5.8755   -1.6533   -1.2274 H       1  UNL1        0.0466
     45 H          -5.3395   -2.4877    0.2374 H       1  UNL1        0.0466
@<TRIPOS>BOND
     1     1     2    2
     2     2     3    2
     3     2     4    1
     4     4     5   ar
     5     5     6   ar
     6     6     7   ar
     7     7     8   ar
     8     8     9   ar
     9     9    10    1
    10    10    11    1
    11    11    12    1
    12    12    13   ar
    13    13    14   ar
    14    14    15   ar
    15    15    16   ar
    16    16    17    1
    17    16    18   ar
    18     9    19   ar
    19    19    20   ar
    20    20    21   ar
    21     2    22    1
    22    22    23    1
    23    23    24    1
    24    24    25    1
    25    25    26    1
    26    26    27    1
    27    21     4   ar
    28    27    22    1
    29    20     7   ar
    30    18    12   ar
    31     5    28    1
    32     6    29    1
    33    11    30    1
    34    11    31    1
    35    13    32    1
    36    14    33    1
    37    15    34    1
    38    18    35    1
    39    19    36    1
    40    21    37    1
    41    23    38    1
    42    23    39    1
    43    24    40    1
    44    24    41    1
    45    26    42    1
    46    26    43    1
    47    27    44    1
    48    27    45    1
