
     RDKit          3D

 45 48  0  0  0  0  0  0  0  0999 V2000
   -3.4387   -1.2461    2.2832 O   0  0  0  0  0  0  0  0  0  0  0  0
   -3.1622   -1.3040    0.7868 S   0  0  0  0  0  6  0  0  0  0  0  0
   -3.1271   -2.7905    0.4567 O   0  0  0  0  0  0  0  0  0  0  0  0
   -1.6218   -0.6264    0.3975 C   0  0  0  0  0  0  0  0  0  0  0  0
   -1.1202    0.4423    1.1111 C   0  0  0  0  0  0  0  0  0  0  0  0
    0.1020    1.0115    0.8389 C   0  0  0  0  0  0  0  0  0  0  0  0
    0.8694    0.4892   -0.2014 C   0  0  0  0  0  0  0  0  0  0  0  0
    2.0701    0.8019   -0.7109 N   0  0  0  0  0  0  0  0  0  0  0  0
    2.4008   -0.0039   -1.7324 C   0  0  0  0  0  0  0  0  0  0  0  0
    3.8609   -0.0167   -2.7566 S   0  0  0  0  0  0  0  0  0  0  0  0
    5.0293    1.2393   -2.2456 C   0  0  0  0  0  0  0  0  0  0  0  0
    5.5760    0.8735   -0.9073 C   0  0  0  0  0  0  0  0  0  0  0  0
    5.0913    1.3582    0.2849 C   0  0  0  0  0  0  0  0  0  0  0  0
    5.6390    0.9619    1.5086 C   0  0  0  0  0  0  0  0  0  0  0  0
    6.6866    0.0704    1.5647 C   0  0  0  0  0  0  0  0  0  0  0  0
    7.1859   -0.4255    0.3798 C   0  0  0  0  0  0  0  0  0  0  0  0
    8.5151   -1.5559    0.4527 Cl  0  0  0  0  0  0  0  0  0  0  0  0
    6.6430   -0.0326   -0.8205 C   0  0  0  0  0  0  0  0  0  0  0  0
    1.3394   -0.8538   -1.8485 N   0  0  0  0  0  0  0  0  0  0  0  0
    0.4009   -0.5737   -0.9318 C   0  0  0  0  0  0  0  0  0  0  0  0
   -0.8380   -1.1181   -0.6238 C   0  0  0  0  0  0  0  0  0  0  0  0
   -4.4796   -0.6269   -0.0260 N   0  0  0  0  0  0  0  0  0  0  0  0
   -4.7243    0.7440    0.1957 C   0  0  0  0  0  0  0  0  0  0  0  0
   -5.9992    1.0896    0.8881 C   0  0  0  0  0  0  0  0  0  0  0  0
   -7.0718    0.3344    0.4539 O   0  0  0  0  0  0  0  0  0  0  0  0
   -6.8155   -1.0232    0.6260 C   0  0  0  0  0  0  0  0  0  0  0  0
   -5.6116   -1.4734   -0.1654 C   0  0  0  0  0  0  0  0  0  0  0  0
   -1.6910    0.8644    1.9173 H   0  0  0  0  0  0  0  0  0  0  0  0
    0.4640    1.8377    1.4080 H   0  0  0  0  0  0  0  0  0  0  0  0
    4.5561    2.2396   -2.1169 H   0  0  0  0  0  0  0  0  0  0  0  0
    5.8573    1.3563   -2.9664 H   0  0  0  0  0  0  0  0  0  0  0  0
    4.2871    2.0611    0.2604 H   0  0  0  0  0  0  0  0  0  0  0  0
    5.2323    1.3630    2.4317 H   0  0  0  0  0  0  0  0  0  0  0  0
    7.1052   -0.2300    2.5329 H   0  0  0  0  0  0  0  0  0  0  0  0
    7.0215   -0.4111   -1.7630 H   0  0  0  0  0  0  0  0  0  0  0  0
    1.3049   -1.6036   -2.5653 H   0  0  0  0  0  0  0  0  0  0  0  0
   -1.1671   -1.9571   -1.2282 H   0  0  0  0  0  0  0  0  0  0  0  0
   -3.8671    1.1839    0.7483 H   0  0  0  0  0  0  0  0  0  0  0  0
   -4.7274    1.2664   -0.7965 H   0  0  0  0  0  0  0  0  0  0  0  0
   -6.2446    2.1577    0.6152 H   0  0  0  0  0  0  0  0  0  0  0  0
   -5.9133    1.1066    2.0006 H   0  0  0  0  0  0  0  0  0  0  0  0
   -6.7037   -1.2652    1.6915 H   0  0  0  0  0  0  0  0  0  0  0  0
   -7.6985   -1.5742    0.2426 H   0  0  0  0  0  0  0  0  0  0  0  0
   -5.8755   -1.6533   -1.2274 H   0  0  0  0  0  0  0  0  0  0  0  0
   -5.3395   -2.4877    0.2374 H   0  0  0  0  0  0  0  0  0  0  0  0
  1  2  2  0
  2  3  2  0
  2  4  1  0
  4  5  2  0
  5  6  1  0
  6  7  2  0
  7  8  1  0
  8  9  2  0
  9 10  1  0
 10 11  1  0
 11 12  1  0
 12 13  2  0
 13 14  1  0
 14 15  2  0
 15 16  1  0
 16 17  1  0
 16 18  2  0
  9 19  1  0
 19 20  1  0
 20 21  2  0
  2 22  1  0
 22 23  1  0
 23 24  1  0
 24 25  1  0
 25 26  1  0
 26 27  1  0
 21  4  1  0
 27 22  1  0
 20  7  1  0
 18 12  1  0
  5 28  1  0
  6 29  1  0
 11 30  1  0
 11 31  1  0
 13 32  1  0
 14 33  1  0
 15 34  1  0
 18 35  1  0
 19 36  1  0
 21 37  1  0
 23 38  1  0
 23 39  1  0
 24 40  1  0
 24 41  1  0
 26 42  1  0
 26 43  1  0
 27 44  1  0
 27 45  1  0
M  END
$$$$
