@<TRIPOS>MOLECULE
*****
 54 56 0 0 0
SMALL
GASTEIGER

@<TRIPOS>ATOM
      1 C          -5.8927   -1.9382    0.4214 C.3     1  UNL1       -0.0530
      2 C          -5.7183   -0.5531    1.0272 C.3     1  UNL1        0.0253
      3 C          -6.5843    0.4583    0.3302 C.3     1  UNL1       -0.0530
      4 C          -6.0277   -0.5803    2.5074 C.3     1  UNL1       -0.0530
      5 C          -4.2841   -0.1546    0.8788 C.ar    1  UNL1        0.1771
      6 N          -3.2571   -0.3482    1.6953 N.ar    1  UNL1       -0.0607
      7 O          -2.1958    0.1715    1.1511 O.2     1  UNL1       -0.3361
      8 C          -2.4952    0.7009    0.0012 C.ar    1  UNL1        0.2479
      9 C          -1.5798    1.4043   -0.9601 C.3     1  UNL1        0.1048
     10 C          -2.2153    1.3389   -2.3486 C.3     1  UNL1       -0.0241
     11 C          -1.4694    0.2501   -3.0695 C.3     1  UNL1       -0.0350
     12 C          -0.6971   -0.4583   -1.9768 C.3     1  UNL1        0.0155
     13 N          -0.3689    0.6151   -1.0801 N.am    1  UNL1       -0.2897
     14 C           0.8803    0.8329   -0.4589 C.2     1  UNL1        0.2177
     15 O           1.0676    1.8065    0.3112 O.2     1  UNL1       -0.2755
     16 C           1.9902   -0.1069   -0.7220 C.3     1  UNL1        0.0396
     17 C           3.2542    0.2875    0.0185 C.3     1  UNL1        0.0172
     18 N           3.6756    1.6027   -0.3983 N.3     1  UNL1       -0.3265
     19 C           4.2746   -0.7818   -0.2518 C.3     1  UNL1       -0.0092
     20 C           5.5721   -0.5469    0.4003 C.ar    1  UNL1       -0.0078
     21 C           6.6491   -0.1088   -0.3037 C.ar    1  UNL1       -0.0176
     22 C           7.8498    0.0985    0.3466 C.ar    1  UNL1        0.1588
     23 F           8.9322    0.5363   -0.3492 F       1  UNL1       -0.2025
     24 C           7.9651   -0.1343    1.6997 C.ar    1  UNL1        0.1611
     25 F           9.1617    0.0838    2.2893 F       1  UNL1       -0.2024
     26 C           6.8922   -0.5739    2.4169 C.ar    1  UNL1        0.0119
     27 C           5.6921   -0.7784    1.7531 C.ar    1  UNL1        0.1295
     28 F           4.6320   -1.2161    2.4796 F       1  UNL1       -0.2051
     29 N          -3.7956    0.5087   -0.1891 N.ar    1  UNL1       -0.1940
     30 H          -6.8846   -2.3338    0.6588 H       1  UNL1        0.0239
     31 H          -5.1041   -2.6033    0.8066 H       1  UNL1        0.0239
     32 H          -5.7979   -1.8263   -0.6899 H       1  UNL1        0.0239
     33 H          -7.3606   -0.0444   -0.2952 H       1  UNL1        0.0239
     34 H          -7.0664    1.1189    1.0656 H       1  UNL1        0.0239
     35 H          -5.9840    1.0861   -0.3866 H       1  UNL1        0.0239
     36 H          -5.5751   -1.4876    2.9492 H       1  UNL1        0.0239
     37 H          -5.5835    0.3244    2.9657 H       1  UNL1        0.0239
     38 H          -7.1441   -0.5880    2.5933 H       1  UNL1        0.0239
     39 H          -1.4066    2.4360   -0.6262 H       1  UNL1        0.0599
     40 H          -3.2767    1.0357   -2.2717 H       1  UNL1        0.0288
     41 H          -2.1073    2.3230   -2.8525 H       1  UNL1        0.0288
     42 H          -0.7586    0.7156   -3.7877 H       1  UNL1        0.0281
     43 H          -2.1521   -0.4695   -3.5685 H       1  UNL1        0.0281
     44 H           0.1845   -1.0016   -2.3479 H       1  UNL1        0.0465
     45 H          -1.3811   -1.1786   -1.4526 H       1  UNL1        0.0465
     46 H           1.6602   -1.1166   -0.4176 H       1  UNL1        0.0374
     47 H           2.2310   -0.1147   -1.8115 H       1  UNL1        0.0374
     48 H           3.0604    0.3382    1.1216 H       1  UNL1        0.0466
     49 H           3.0788    1.9215   -1.1808 H       1  UNL1        0.1185
     50 H           3.6377    2.2908    0.3693 H       1  UNL1        0.1185
     51 H           4.4405   -0.8173   -1.3616 H       1  UNL1        0.0329
     52 H           3.8278   -1.7475    0.0568 H       1  UNL1        0.0329
     53 H           6.6176    0.0921   -1.3738 H       1  UNL1        0.0651
     54 H           6.9370   -0.7692    3.4773 H       1  UNL1        0.0676
@<TRIPOS>BOND
     1     1     2    1
     2     2     3    1
     3     2     4    1
     4     2     5    1
     5     5     6   ar
     6     6     7   ar
     7     7     8   ar
     8     8     9    1
     9     9    10    1
    10    10    11    1
    11    11    12    1
    12    12    13    1
    13    13    14   am
    14    14    15    2
    15    14    16    1
    16    16    17    1
    17    17    18    1
    18    17    19    1
    19    19    20    1
    20    20    21   ar
    21    21    22   ar
    22    22    23    1
    23    22    24   ar
    24    24    25    1
    25    24    26   ar
    26    26    27   ar
    27    27    28    1
    28     8    29   ar
    29    29     5   ar
    30    13     9    1
    31    27    20   ar
    32     1    30    1
    33     1    31    1
    34     1    32    1
    35     3    33    1
    36     3    34    1
    37     3    35    1
    38     4    36    1
    39     4    37    1
    40     4    38    1
    41     9    39    1
    42    10    40    1
    43    10    41    1
    44    11    42    1
    45    11    43    1
    46    12    44    1
    47    12    45    1
    48    16    46    1
    49    16    47    1
    50    17    48    1
    51    18    49    1
    52    18    50    1
    53    19    51    1
    54    19    52    1
    55    21    53    1
    56    26    54    1
