
     RDKit          3D

 54 56  0  0  0  0  0  0  0  0999 V2000
   -5.8927   -1.9382    0.4214 C   0  0  0  0  0  0  0  0  0  0  0  0
   -5.7183   -0.5531    1.0272 C   0  0  0  0  0  0  0  0  0  0  0  0
   -6.5843    0.4583    0.3302 C   0  0  0  0  0  0  0  0  0  0  0  0
   -6.0277   -0.5803    2.5074 C   0  0  0  0  0  0  0  0  0  0  0  0
   -4.2841   -0.1546    0.8788 C   0  0  0  0  0  0  0  0  0  0  0  0
   -3.2571   -0.3482    1.6953 N   0  0  0  0  0  0  0  0  0  0  0  0
   -2.1958    0.1715    1.1511 O   0  0  0  0  0  0  0  0  0  0  0  0
   -2.4952    0.7009    0.0012 C   0  0  0  0  0  0  0  0  0  0  0  0
   -1.5798    1.4043   -0.9601 C   0  0  2  0  0  0  0  0  0  0  0  0
   -2.2153    1.3389   -2.3486 C   0  0  0  0  0  0  0  0  0  0  0  0
   -1.4694    0.2501   -3.0695 C   0  0  0  0  0  0  0  0  0  0  0  0
   -0.6971   -0.4583   -1.9768 C   0  0  0  0  0  0  0  0  0  0  0  0
   -0.3689    0.6151   -1.0801 N   0  0  0  0  0  0  0  0  0  0  0  0
    0.8803    0.8329   -0.4589 C   0  0  0  0  0  0  0  0  0  0  0  0
    1.0676    1.8065    0.3112 O   0  0  0  0  0  0  0  0  0  0  0  0
    1.9902   -0.1069   -0.7220 C   0  0  0  0  0  0  0  0  0  0  0  0
    3.2542    0.2875    0.0185 C   0  0  2  0  0  0  0  0  0  0  0  0
    3.6756    1.6027   -0.3983 N   0  0  0  0  0  0  0  0  0  0  0  0
    4.2746   -0.7818   -0.2518 C   0  0  0  0  0  0  0  0  0  0  0  0
    5.5721   -0.5469    0.4003 C   0  0  0  0  0  0  0  0  0  0  0  0
    6.6491   -0.1088   -0.3037 C   0  0  0  0  0  0  0  0  0  0  0  0
    7.8498    0.0985    0.3466 C   0  0  0  0  0  0  0  0  0  0  0  0
    8.9322    0.5363   -0.3492 F   0  0  0  0  0  0  0  0  0  0  0  0
    7.9651   -0.1343    1.6997 C   0  0  0  0  0  0  0  0  0  0  0  0
    9.1617    0.0838    2.2893 F   0  0  0  0  0  0  0  0  0  0  0  0
    6.8922   -0.5739    2.4169 C   0  0  0  0  0  0  0  0  0  0  0  0
    5.6921   -0.7784    1.7531 C   0  0  0  0  0  0  0  0  0  0  0  0
    4.6320   -1.2161    2.4796 F   0  0  0  0  0  0  0  0  0  0  0  0
   -3.7956    0.5087   -0.1891 N   0  0  0  0  0  0  0  0  0  0  0  0
   -6.8846   -2.3338    0.6588 H   0  0  0  0  0  0  0  0  0  0  0  0
   -5.1041   -2.6033    0.8066 H   0  0  0  0  0  0  0  0  0  0  0  0
   -5.7979   -1.8263   -0.6899 H   0  0  0  0  0  0  0  0  0  0  0  0
   -7.3606   -0.0444   -0.2952 H   0  0  0  0  0  0  0  0  0  0  0  0
   -7.0664    1.1189    1.0656 H   0  0  0  0  0  0  0  0  0  0  0  0
   -5.9840    1.0861   -0.3866 H   0  0  0  0  0  0  0  0  0  0  0  0
   -5.5751   -1.4876    2.9492 H   0  0  0  0  0  0  0  0  0  0  0  0
   -5.5835    0.3244    2.9657 H   0  0  0  0  0  0  0  0  0  0  0  0
   -7.1441   -0.5880    2.5933 H   0  0  0  0  0  0  0  0  0  0  0  0
   -1.4066    2.4360   -0.6262 H   0  0  0  0  0  0  0  0  0  0  0  0
   -3.2767    1.0357   -2.2717 H   0  0  0  0  0  0  0  0  0  0  0  0
   -2.1073    2.3230   -2.8525 H   0  0  0  0  0  0  0  0  0  0  0  0
   -0.7586    0.7156   -3.7877 H   0  0  0  0  0  0  0  0  0  0  0  0
   -2.1521   -0.4695   -3.5685 H   0  0  0  0  0  0  0  0  0  0  0  0
    0.1845   -1.0016   -2.3479 H   0  0  0  0  0  0  0  0  0  0  0  0
   -1.3811   -1.1786   -1.4526 H   0  0  0  0  0  0  0  0  0  0  0  0
    1.6602   -1.1166   -0.4176 H   0  0  0  0  0  0  0  0  0  0  0  0
    2.2310   -0.1147   -1.8115 H   0  0  0  0  0  0  0  0  0  0  0  0
    3.0604    0.3382    1.1216 H   0  0  0  0  0  0  0  0  0  0  0  0
    3.0788    1.9215   -1.1808 H   0  0  0  0  0  0  0  0  0  0  0  0
    3.6377    2.2908    0.3693 H   0  0  0  0  0  0  0  0  0  0  0  0
    4.4405   -0.8173   -1.3616 H   0  0  0  0  0  0  0  0  0  0  0  0
    3.8278   -1.7475    0.0568 H   0  0  0  0  0  0  0  0  0  0  0  0
    6.6176    0.0921   -1.3738 H   0  0  0  0  0  0  0  0  0  0  0  0
    6.9370   -0.7692    3.4773 H   0  0  0  0  0  0  0  0  0  0  0  0
  1  2  1  0
  2  3  1  0
  2  4  1  0
  2  5  1  0
  5  6  2  0
  6  7  1  0
  7  8  1  0
  8  9  1  0
  9 10  1  0
 10 11  1  0
 11 12  1  0
 12 13  1  0
 13 14  1  0
 14 15  2  0
 14 16  1  0
 16 17  1  0
 17 18  1  0
 17 19  1  0
 19 20  1  0
 20 21  2  0
 21 22  1  0
 22 23  1  0
 22 24  2  0
 24 25  1  0
 24 26  1  0
 26 27  2  0
 27 28  1  0
  8 29  2  0
 29  5  1  0
 13  9  1  0
 27 20  1  0
  1 30  1  0
  1 31  1  0
  1 32  1  0
  3 33  1  0
  3 34  1  0
  3 35  1  0
  4 36  1  0
  4 37  1  0
  4 38  1  0
  9 39  1  1
 10 40  1  0
 10 41  1  0
 11 42  1  0
 11 43  1  0
 12 44  1  0
 12 45  1  0
 16 46  1  0
 16 47  1  0
 17 48  1  1
 18 49  1  0
 18 50  1  0
 19 51  1  0
 19 52  1  0
 21 53  1  0
 26 54  1  0
M  END
$$$$
