
     RDKit          3D

 40 42  0  0  0  0  0  0  0  0999 V2000
   -4.4719   -0.2136    0.1965 N   0  0  0  0  0  0  0  0  0  0  0  0
   -3.9330   -1.5330    0.4473 C   0  0  0  0  0  0  0  0  0  0  0  0
   -2.5605   -1.4780    1.0675 C   0  0  0  0  0  0  0  0  0  0  0  0
   -1.6066   -0.7662    0.1597 C   0  0  1  0  0  0  0  0  0  0  0  0
   -1.9964    0.6357   -0.1394 C   0  0  0  0  0  0  0  0  0  0  0  0
   -0.8439    1.5260   -0.4232 C   0  0  0  0  0  0  0  0  0  0  0  0
   -1.1075    2.8802   -0.5010 C   0  0  0  0  0  0  0  0  0  0  0  0
   -0.1115    3.8000   -0.7604 C   0  0  0  0  0  0  0  0  0  0  0  0
    1.1695    3.3422   -0.9435 C   0  0  0  0  0  0  0  0  0  0  0  0
    1.4290    1.9860   -0.8648 C   0  0  0  0  0  0  0  0  0  0  0  0
    0.4413    1.0614   -0.6065 C   0  0  0  0  0  0  0  0  0  0  0  0
    0.6911   -0.3717   -0.5185 C   0  0  1  0  0  0  0  0  0  0  0  0
    2.0767   -0.7560   -0.2779 C   0  0  0  0  0  0  0  0  0  0  0  0
    2.8906   -0.9661   -1.3734 C   0  0  0  0  0  0  0  0  0  0  0  0
    4.2186   -1.3328   -1.2669 C   0  0  0  0  0  0  0  0  0  0  0  0
    4.7548   -1.4960   -0.0170 C   0  0  0  0  0  0  0  0  0  0  0  0
    6.4418   -1.9616    0.1018 Cl  0  0  0  0  0  0  0  0  0  0  0  0
    3.9560   -1.2901    1.0857 C   0  0  0  0  0  0  0  0  0  0  0  0
    4.6646   -1.5052    2.6735 Cl  0  0  0  0  0  0  0  0  0  0  0  0
    2.6359   -0.9255    0.9678 C   0  0  0  0  0  0  0  0  0  0  0  0
   -0.1635   -0.9040    0.6386 C   0  0  0  0  0  0  0  0  0  0  0  0
   -5.0845    0.1172    0.9795 H   0  0  0  0  0  0  0  0  0  0  0  0
   -4.9860   -0.1667   -0.7132 H   0  0  0  0  0  0  0  0  0  0  0  0
   -4.6220   -2.1291    1.1114 H   0  0  0  0  0  0  0  0  0  0  0  0
   -3.9014   -2.0901   -0.5060 H   0  0  0  0  0  0  0  0  0  0  0  0
   -2.5792   -0.9845    2.0637 H   0  0  0  0  0  0  0  0  0  0  0  0
   -2.1896   -2.5052    1.2493 H   0  0  0  0  0  0  0  0  0  0  0  0
   -1.6289   -1.3282   -0.8210 H   0  0  0  0  0  0  0  0  0  0  0  0
   -2.6695    0.7072   -1.0432 H   0  0  0  0  0  0  0  0  0  0  0  0
   -2.5489    1.0846    0.7092 H   0  0  0  0  0  0  0  0  0  0  0  0
   -2.1144    3.2529   -0.3582 H   0  0  0  0  0  0  0  0  0  0  0  0
   -0.3641    4.8553   -0.8127 H   0  0  0  0  0  0  0  0  0  0  0  0
    1.9349    4.0787   -1.1456 H   0  0  0  0  0  0  0  0  0  0  0  0
    2.4545    1.6638   -1.0155 H   0  0  0  0  0  0  0  0  0  0  0  0
    0.2903   -0.8609   -1.4368 H   0  0  0  0  0  0  0  0  0  0  0  0
    2.5232   -0.8521   -2.4044 H   0  0  0  0  0  0  0  0  0  0  0  0
    4.8479   -1.4948   -2.1462 H   0  0  0  0  0  0  0  0  0  0  0  0
    2.0147   -0.7655    1.8319 H   0  0  0  0  0  0  0  0  0  0  0  0
    0.0208   -0.3311    1.5586 H   0  0  0  0  0  0  0  0  0  0  0  0
    0.0272   -1.9833    0.7620 H   0  0  0  0  0  0  0  0  0  0  0  0
  1  2  1  0
  2  3  1  0
  3  4  1  0
  4  5  1  0
  5  6  1  0
  6  7  2  0
  7  8  1  0
  8  9  2  0
  9 10  1  0
 10 11  2  0
 11 12  1  0
 12 13  1  0
 13 14  2  0
 14 15  1  0
 15 16  2  0
 16 17  1  0
 16 18  1  0
 18 19  1  0
 18 20  2  0
 12 21  1  0
 21  4  1  0
 11  6  1  0
 20 13  1  0
  1 22  1  0
  1 23  1  0
  2 24  1  0
  2 25  1  0
  3 26  1  0
  3 27  1  0
  4 28  1  6
  5 29  1  0
  5 30  1  0
  7 31  1  0
  8 32  1  0
  9 33  1  0
 10 34  1  0
 12 35  1  6
 14 36  1  0
 15 37  1  0
 20 38  1  0
 21 39  1  0
 21 40  1  0
M  END
$$$$
