@<TRIPOS>MOLECULE
*****
 40 42 0 0 0
SMALL
GASTEIGER

@<TRIPOS>ATOM
      1 N          -4.4719   -0.2136    0.1965 N.3     1  UNL1       -0.3300
      2 C          -3.9330   -1.5330    0.4473 C.3     1  UNL1       -0.0066
      3 C          -2.5605   -1.4780    1.0675 C.3     1  UNL1       -0.0375
      4 C          -1.6066   -0.7662    0.1597 C.3     1  UNL1       -0.0351
      5 C          -1.9964    0.6357   -0.1394 C.3     1  UNL1       -0.0245
      6 C          -0.8439    1.5260   -0.4232 C.ar    1  UNL1       -0.0433
      7 C          -1.1075    2.8802   -0.5010 C.ar    1  UNL1       -0.0583
      8 C          -0.1115    3.8000   -0.7604 C.ar    1  UNL1       -0.0615
      9 C           1.1695    3.3422   -0.9435 C.ar    1  UNL1       -0.0615
     10 C           1.4290    1.9860   -0.8648 C.ar    1  UNL1       -0.0577
     11 C           0.4413    1.0614   -0.6065 C.ar    1  UNL1       -0.0368
     12 C           0.6911   -0.3717   -0.5185 C.3     1  UNL1        0.0098
     13 C           2.0767   -0.7560   -0.2779 C.ar    1  UNL1       -0.0385
     14 C           2.8906   -0.9661   -1.3734 C.ar    1  UNL1       -0.0565
     15 C           4.2186   -1.3328   -1.2669 C.ar    1  UNL1       -0.0417
     16 C           4.7548   -1.4960   -0.0170 C.ar    1  UNL1        0.0593
     17 CL          6.4418   -1.9616    0.1018 Cl      1  UNL1       -0.0820
     18 C           3.9560   -1.2901    1.0857 C.ar    1  UNL1        0.0595
     19 CL          4.6646   -1.5052    2.6735 Cl      1  UNL1       -0.0820
     20 C           2.6359   -0.9255    0.9678 C.ar    1  UNL1       -0.0382
     21 C          -0.1635   -0.9040    0.6386 C.3     1  UNL1       -0.0390
     22 H          -5.0845    0.1172    0.9795 H       1  UNL1        0.1182
     23 H          -4.9860   -0.1667   -0.7132 H       1  UNL1        0.1182
     24 H          -4.6220   -2.1291    1.1114 H       1  UNL1        0.0422
     25 H          -3.9014   -2.0901   -0.5060 H       1  UNL1        0.0422
     26 H          -2.5792   -0.9845    2.0637 H       1  UNL1        0.0280
     27 H          -2.1896   -2.5052    1.2493 H       1  UNL1        0.0280
     28 H          -1.6289   -1.3282   -0.8210 H       1  UNL1        0.0305
     29 H          -2.6695    0.7072   -1.0432 H       1  UNL1        0.0316
     30 H          -2.5489    1.0846    0.7092 H       1  UNL1        0.0316
     31 H          -2.1144    3.2529   -0.3582 H       1  UNL1        0.0620
     32 H          -0.3641    4.8553   -0.8127 H       1  UNL1        0.0618
     33 H           1.9349    4.0787   -1.1456 H       1  UNL1        0.0618
     34 H           2.4545    1.6638   -1.0155 H       1  UNL1        0.0621
     35 H           0.2903   -0.8609   -1.4368 H       1  UNL1        0.0397
     36 H           2.5232   -0.8521   -2.4044 H       1  UNL1        0.0621
     37 H           4.8479   -1.4948   -2.1462 H       1  UNL1        0.0633
     38 H           2.0147   -0.7655    1.8319 H       1  UNL1        0.0635
     39 H           0.0208   -0.3311    1.5586 H       1  UNL1        0.0277
     40 H           0.0272   -1.9833    0.7620 H       1  UNL1        0.0277
@<TRIPOS>BOND
     1     1     2    1
     2     2     3    1
     3     3     4    1
     4     4     5    1
     5     5     6    1
     6     6     7   ar
     7     7     8   ar
     8     8     9   ar
     9     9    10   ar
    10    10    11   ar
    11    11    12    1
    12    12    13    1
    13    13    14   ar
    14    14    15   ar
    15    15    16   ar
    16    16    17    1
    17    16    18   ar
    18    18    19    1
    19    18    20   ar
    20    12    21    1
    21    21     4    1
    22    11     6   ar
    23    20    13   ar
    24     1    22    1
    25     1    23    1
    26     2    24    1
    27     2    25    1
    28     3    26    1
    29     3    27    1
    30     4    28    1
    31     5    29    1
    32     5    30    1
    33     7    31    1
    34     8    32    1
    35     9    33    1
    36    10    34    1
    37    12    35    1
    38    14    36    1
    39    15    37    1
    40    20    38    1
    41    21    39    1
    42    21    40    1
