@<TRIPOS>MOLECULE
*****
 52 54 0 0 0
SMALL
GASTEIGER

@<TRIPOS>ATOM
      1 N          -9.1638    0.9025   -1.8431 N.1     1  UNL1       -0.1909
      2 C          -8.0544    1.0666   -2.1279 C.1     1  UNL1        0.0992
      3 C          -6.6906    1.2559   -2.4928 C.ar    1  UNL1        0.0518
      4 C          -6.0656    1.1779   -3.6420 C.ar    1  UNL1       -0.0436
      5 C          -4.7568    1.3521   -3.9323 C.ar    1  UNL1       -0.0484
      6 C          -3.9216    1.6802   -2.7979 C.ar    1  UNL1        0.0370
      7 C          -2.5193    1.8376   -3.0584 C.2     1  UNL1        0.2466
      8 O          -2.1442    2.9282   -3.6748 O.2     1  UNL1       -0.2700
      9 N          -1.4676    0.9747   -2.7385 N.am    1  UNL1       -0.2975
     10 C          -1.7988   -0.2618   -2.0659 C.3     1  UNL1        0.0155
     11 C          -1.0661   -0.3062   -0.6909 C.3     1  UNL1       -0.0302
     12 C           0.3611   -0.2612   -1.0046 C.3     1  UNL1       -0.0125
     13 C           1.4121   -0.5750   -0.0821 C.ar    1  UNL1       -0.0325
     14 C           2.4256   -1.3975   -0.6290 C.ar    1  UNL1       -0.0570
     15 C           3.5236   -1.7995    0.0940 C.ar    1  UNL1       -0.0479
     16 C           3.6210   -1.3750    1.3884 C.ar    1  UNL1        0.0536
     17 C           4.7935   -1.8426    2.1497 C.2     1  UNL1        0.3066
     18 O           5.7153   -2.4386    1.5664 O.2     1  UNL1       -0.2516
     19 N           4.8684   -1.6163    3.5354 N.am    1  UNL1       -0.1709
     20 C           5.9622   -2.0204    4.3850 C.2     1  UNL1        0.3751
     21 N           7.0124   -2.5762    3.8762 N.pl3   1  UNL1       -0.1313
     22 N           5.8494   -1.8162    5.7741 N.pl3   1  UNL1       -0.2906
     23 C           2.6772   -0.5860    1.9561 C.ar    1  UNL1       -0.0363
     24 C           1.5082   -0.1634    1.1749 C.ar    1  UNL1        0.0590
     25 C           0.4806    0.6135    1.8398 C.3     1  UNL1        0.4177
     26 F           0.9648    0.8406    3.1709 F       1  UNL1       -0.1659
     27 F           0.2655    1.8900    1.4688 F       1  UNL1       -0.1659
     28 F          -0.6531   -0.1174    2.1757 F       1  UNL1       -0.1659
     29 C           0.6478    1.0343   -1.6960 C.3     1  UNL1       -0.0302
     30 C          -0.0811    1.1932   -3.0225 C.3     1  UNL1        0.0155
     31 C          -4.5291    1.7745   -1.6006 C.ar    1  UNL1       -0.0484
     32 C          -5.8430    1.5965   -1.3163 C.ar    1  UNL1       -0.0436
     33 H          -6.7277    0.9477   -4.5296 H       1  UNL1        0.0631
     34 H          -4.3165    1.2513   -4.8905 H       1  UNL1        0.0625
     35 H          -2.8639   -0.2798   -1.8229 H       1  UNL1        0.0465
     36 H          -1.5256   -1.1018   -2.6951 H       1  UNL1        0.0465
     37 H          -1.5071   -1.2232   -0.2937 H       1  UNL1        0.0286
     38 H          -1.3901    0.6444   -0.2342 H       1  UNL1        0.0286
     39 H           0.4509   -1.0214   -1.8889 H       1  UNL1        0.0350
     40 H           2.3960   -1.7662   -1.6454 H       1  UNL1        0.0621
     41 H           4.3056   -2.4302   -0.3095 H       1  UNL1        0.0626
     42 H           4.0598   -1.1196    3.9919 H       1  UNL1        0.2545
     43 H           7.1985   -2.7813    2.9311 H       1  UNL1        0.3060
     44 H           5.9466   -0.8569    6.2229 H       1  UNL1        0.2545
     45 H           5.6549   -2.5892    6.4743 H       1  UNL1        0.2545
     46 H           2.7018   -0.2194    2.9443 H       1  UNL1        0.0631
     47 H           0.3198    1.8858   -1.0774 H       1  UNL1        0.0286
     48 H           1.7357    1.1725   -1.9016 H       1  UNL1        0.0286
     49 H           0.0410    2.2755   -3.2740 H       1  UNL1        0.0465
     50 H           0.3493    0.5282   -3.7668 H       1  UNL1        0.0465
     51 H          -3.8695    2.0270   -0.7260 H       1  UNL1        0.0625
     52 H          -6.2931    1.6917   -0.3655 H       1  UNL1        0.0631
@<TRIPOS>BOND
     1     1     2    3
     2     2     3    1
     3     3     4   ar
     4     4     5   ar
     5     5     6   ar
     6     6     7    1
     7     7     8    2
     8     7     9   am
     9     9    10    1
    10    10    11    1
    11    11    12    1
    12    12    13    1
    13    13    14   ar
    14    14    15   ar
    15    15    16   ar
    16    16    17    1
    17    17    18    2
    18    17    19   am
    19    19    20    1
    20    20    21    2
    21    20    22    1
    22    16    23   ar
    23    23    24   ar
    24    24    25    1
    25    25    26    1
    26    25    27    1
    27    25    28    1
    28    12    29    1
    29    29    30    1
    30     6    31   ar
    31    31    32   ar
    32    32     3   ar
    33    30     9    1
    34    24    13   ar
    35     4    33    1
    36     5    34    1
    37    10    35    1
    38    10    36    1
    39    11    37    1
    40    11    38    1
    41    12    39    1
    42    14    40    1
    43    15    41    1
    44    19    42    1
    45    21    43    1
    46    22    44    1
    47    22    45    1
    48    23    46    1
    49    29    47    1
    50    29    48    1
    51    30    49    1
    52    30    50    1
    53    31    51    1
    54    32    52    1
