
     RDKit          3D

 62 66  0  0  0  0  0  0  0  0999 V2000
   -3.9957    4.1960    0.2595 C   0  0  0  0  0  0  0  0  0  0  0  0
   -2.7444    3.6042    0.8433 C   0  0  0  0  0  0  0  0  0  0  0  0
   -2.6133    2.3064    0.8493 C   0  0  0  0  0  0  0  0  0  0  0  0
   -3.6675    1.4076    0.3059 C   0  0  0  0  0  0  0  0  0  0  0  0
   -4.7426    1.8221   -0.1866 O   0  0  0  0  0  0  0  0  0  0  0  0
   -3.5208   -0.0107    0.3091 N   0  0  0  0  0  0  0  0  0  0  0  0
   -4.5218   -0.8774   -0.2063 C   0  0  0  0  0  0  0  0  0  0  0  0
   -4.5452   -1.2818   -1.5286 C   0  0  0  0  0  0  0  0  0  0  0  0
   -5.5359   -2.1244   -1.9886 C   0  0  0  0  0  0  0  0  0  0  0  0
   -6.5369   -2.5902   -1.1376 C   0  0  0  0  0  0  0  0  0  0  0  0
   -7.5977   -3.3922   -1.2885 N   0  0  0  0  0  0  0  0  0  0  0  0
   -8.2021   -3.4803   -0.1160 N   0  0  0  0  0  0  0  0  0  0  0  0
   -7.5628   -2.7508    0.8145 C   0  0  0  0  0  0  0  0  0  0  0  0
   -6.4940   -2.1779    0.1638 C   0  0  0  0  0  0  0  0  0  0  0  0
   -5.5074   -1.3346    0.6361 C   0  0  0  0  0  0  0  0  0  0  0  0
   -1.3938    1.6605    1.3433 C   0  0  0  0  0  0  0  0  0  0  0  0
   -0.6138    1.1772    0.1412 C   0  0  0  0  0  0  0  0  0  0  0  0
   -1.0670    1.2387   -1.1442 C   0  0  0  0  0  0  0  0  0  0  0  0
   -0.2774    0.7551   -2.1924 C   0  0  0  0  0  0  0  0  0  0  0  0
    0.9829    0.2044   -1.9377 C   0  0  0  0  0  0  0  0  0  0  0  0
    1.7027   -0.2512   -2.9907 F   0  0  0  0  0  0  0  0  0  0  0  0
    1.4450    0.1378   -0.6655 C   0  0  0  0  0  0  0  0  0  0  0  0
    2.7219   -0.4023   -0.2975 C   0  0  0  0  0  0  0  0  0  0  0  0
    3.0346   -0.4554    0.9439 O   0  0  0  0  0  0  0  0  0  0  0  0
    3.7147   -0.9010   -1.1652 N   0  0  0  0  0  0  0  0  0  0  0  0
    4.9834   -1.4278   -0.6727 C   0  0  0  0  0  0  0  0  0  0  0  0
    5.7928   -0.4324    0.0883 C   0  0  0  0  0  0  0  0  0  0  0  0
    7.0670   -1.0996    0.5328 C   0  0  0  0  0  0  0  0  0  0  0  0
    7.1624   -1.7568    1.7410 C   0  0  0  0  0  0  0  0  0  0  0  0
    8.3086   -2.3771    2.1808 C   0  0  0  0  0  0  0  0  0  0  0  0
    9.4221   -2.3411    1.3725 C   0  0  0  0  0  0  0  0  0  0  0  0
    9.3174   -1.6813    0.1653 C   0  0  0  0  0  0  0  0  0  0  0  0
    8.1773   -1.0878   -0.2267 N   0  0  0  0  0  0  0  0  0  0  0  0
    0.6297    0.6282    0.3417 C   0  0  0  0  0  0  0  0  0  0  0  0
   -0.5459    2.5304    2.0765 N   0  0  0  0  0  0  0  0  0  0  0  0
   -0.6561    3.9237    2.0695 C   0  0  0  0  0  0  0  0  0  0  0  0
    0.2395    4.6618    2.6168 O   0  0  0  0  0  0  0  0  0  0  0  0
   -1.7831    4.5020    1.4421 N   0  0  0  0  0  0  0  0  0  0  0  0
   -4.1284    3.9106   -0.7943 H   0  0  0  0  0  0  0  0  0  0  0  0
   -4.8489    3.8346    0.8456 H   0  0  0  0  0  0  0  0  0  0  0  0
   -3.9103    5.3102    0.3002 H   0  0  0  0  0  0  0  0  0  0  0  0
   -2.6516   -0.4161    0.6988 H   0  0  0  0  0  0  0  0  0  0  0  0
   -3.7526   -0.9106   -2.1937 H   0  0  0  0  0  0  0  0  0  0  0  0
   -5.5705   -2.4493   -3.0127 H   0  0  0  0  0  0  0  0  0  0  0  0
   -7.8496   -3.8419   -2.2083 H   0  0  0  0  0  0  0  0  0  0  0  0
   -7.7889   -2.6064    1.8580 H   0  0  0  0  0  0  0  0  0  0  0  0
   -5.4784   -1.0093    1.6751 H   0  0  0  0  0  0  0  0  0  0  0  0
   -1.6571    0.7452    1.9718 H   0  0  0  0  0  0  0  0  0  0  0  0
   -2.0280    1.6627   -1.3874 H   0  0  0  0  0  0  0  0  0  0  0  0
   -0.6120    0.7918   -3.2146 H   0  0  0  0  0  0  0  0  0  0  0  0
    3.5435   -0.8936   -2.1852 H   0  0  0  0  0  0  0  0  0  0  0  0
    5.5570   -1.8038   -1.5353 H   0  0  0  0  0  0  0  0  0  0  0  0
    4.8167   -2.3064   -0.0066 H   0  0  0  0  0  0  0  0  0  0  0  0
    6.0523    0.4697   -0.5065 H   0  0  0  0  0  0  0  0  0  0  0  0
    5.3169   -0.0601    1.0155 H   0  0  0  0  0  0  0  0  0  0  0  0
    6.2605   -1.7705    2.3657 H   0  0  0  0  0  0  0  0  0  0  0  0
    8.3374   -2.8847    3.1438 H   0  0  0  0  0  0  0  0  0  0  0  0
   10.3656   -2.8163    1.6661 H   0  0  0  0  0  0  0  0  0  0  0  0
   10.1776   -1.6368   -0.4915 H   0  0  0  0  0  0  0  0  0  0  0  0
    0.9980    0.5765    1.3660 H   0  0  0  0  0  0  0  0  0  0  0  0
    0.2120    2.0563    2.6585 H   0  0  0  0  0  0  0  0  0  0  0  0
   -1.9376    5.5262    1.3994 H   0  0  0  0  0  0  0  0  0  0  0  0
  1  2  1  0
  2  3  2  0
  3  4  1  0
  4  5  2  0
  4  6  1  0
  6  7  1  0
  7  8  2  0
  8  9  1  0
  9 10  2  0
 10 11  1  0
 11 12  1  0
 12 13  2  0
 13 14  1  0
 14 15  2  0
  3 16  1  0
 16 17  1  0
 17 18  2  0
 18 19  1  0
 19 20  2  0
 20 21  1  0
 20 22  1  0
 22 23  1  0
 23 24  2  0
 23 25  1  0
 25 26  1  0
 26 27  1  0
 27 28  1  0
 28 29  2  0
 29 30  1  0
 30 31  2  0
 31 32  1  0
 32 33  2  0
 22 34  2  0
 16 35  1  0
 35 36  1  0
 36 37  2  0
 36 38  1  0
 38  2  1  0
 15  7  1  0
 34 17  1  0
 14 10  1  0
 33 28  1  0
  1 39  1  0
  1 40  1  0
  1 41  1  0
  6 42  1  0
  8 43  1  0
  9 44  1  0
 11 45  1  0
 13 46  1  0
 15 47  1  0
 16 48  1  0
 18 49  1  0
 19 50  1  0
 25 51  1  0
 26 52  1  0
 26 53  1  0
 27 54  1  0
 27 55  1  0
 29 56  1  0
 30 57  1  0
 31 58  1  0
 32 59  1  0
 34 60  1  0
 35 61  1  0
 38 62  1  0
M  END
$$$$
