@<TRIPOS>MOLECULE
*****
 62 66 0 0 0
SMALL
GASTEIGER

@<TRIPOS>ATOM
      1 C          -3.9957    4.1960    0.2595 C.3     1  UNL1       -0.0259
      2 C          -2.7444    3.6042    0.8433 C.2     1  UNL1        0.0191
      3 C          -2.6133    2.3064    0.8493 C.2     1  UNL1        0.0559
      4 C          -3.6675    1.4076    0.3059 C.2     1  UNL1        0.2478
      5 O          -4.7426    1.8221   -0.1866 O.2     1  UNL1       -0.2701
      6 N          -3.5208   -0.0107    0.3091 N.am    1  UNL1       -0.2816
      7 C          -4.5218   -0.8774   -0.2063 C.ar    1  UNL1        0.0344
      8 C          -4.5452   -1.2818   -1.5286 C.ar    1  UNL1       -0.0384
      9 C          -5.5359   -2.1244   -1.9886 C.ar    1  UNL1       -0.0345
     10 C          -6.5369   -2.5902   -1.1376 C.ar    1  UNL1        0.0658
     11 N          -7.5977   -3.3922   -1.2885 N.ar    1  UNL1       -0.2770
     12 N          -8.2021   -3.4803   -0.1160 N.ar    1  UNL1       -0.1812
     13 C          -7.5628   -2.7508    0.8145 C.ar    1  UNL1        0.0569
     14 C          -6.4940   -2.1779    0.1638 C.ar    1  UNL1        0.0212
     15 C          -5.5074   -1.3346    0.6361 C.ar    1  UNL1       -0.0298
     16 C          -1.3938    1.6605    1.3433 C.3     1  UNL1        0.0815
     17 C          -0.6138    1.1772    0.1412 C.ar    1  UNL1       -0.0217
     18 C          -1.0670    1.2387   -1.1442 C.ar    1  UNL1       -0.0537
     19 C          -0.2774    0.7551   -2.1924 C.ar    1  UNL1       -0.0254
     20 C           0.9829    0.2044   -1.9377 C.ar    1  UNL1        0.1355
     21 F           1.7027   -0.2512   -2.9907 F       1  UNL1       -0.2047
     22 C           1.4450    0.1378   -0.6655 C.ar    1  UNL1        0.0721
     23 C           2.7219   -0.4023   -0.2975 C.2     1  UNL1        0.2469
     24 O           3.0346   -0.4554    0.9439 O.2     1  UNL1       -0.2701
     25 N           3.7147   -0.9010   -1.1652 N.am    1  UNL1       -0.3109
     26 C           4.9834   -1.4278   -0.6727 C.3     1  UNL1        0.0173
     27 C           5.7928   -0.4324    0.0883 C.3     1  UNL1        0.0052
     28 C           7.0670   -1.0996    0.5328 C.ar    1  UNL1        0.0428
     29 C           7.1624   -1.7568    1.7410 C.ar    1  UNL1       -0.0403
     30 C           8.3086   -2.3771    2.1808 C.ar    1  UNL1       -0.0586
     31 C           9.4221   -2.3411    1.3725 C.ar    1  UNL1       -0.0436
     32 C           9.3174   -1.6813    0.1653 C.ar    1  UNL1        0.0279
     33 N           8.1773   -1.0878   -0.2267 N.ar    1  UNL1       -0.2598
     34 C           0.6297    0.6282    0.3417 C.ar    1  UNL1       -0.0416
     35 N          -0.5459    2.5304    2.0765 N.am    1  UNL1       -0.2881
     36 C          -0.6561    3.9237    2.0695 C.2     1  UNL1        0.3043
     37 O           0.2395    4.6618    2.6168 O.2     1  UNL1       -0.2525
     38 N          -1.7831    4.5020    1.4421 N.am    1  UNL1       -0.2729
     39 H          -4.1284    3.9106   -0.7943 H       1  UNL1        0.0290
     40 H          -4.8489    3.8346    0.8456 H       1  UNL1        0.0290
     41 H          -3.9103    5.3102    0.3002 H       1  UNL1        0.0290
     42 H          -2.6516   -0.4161    0.6988 H       1  UNL1        0.1551
     43 H          -3.7526   -0.9106   -2.1937 H       1  UNL1        0.0637
     44 H          -5.5705   -2.4493   -3.0127 H       1  UNL1        0.0639
     45 H          -7.8496   -3.8419   -2.2083 H       1  UNL1        0.1889
     46 H          -7.7889   -2.6064    1.8580 H       1  UNL1        0.0854
     47 H          -5.4784   -1.0093    1.6751 H       1  UNL1        0.0643
     48 H          -1.6571    0.7452    1.9718 H       1  UNL1        0.0601
     49 H          -2.0280    1.6627   -1.3874 H       1  UNL1        0.0622
     50 H          -0.6120    0.7918   -3.2146 H       1  UNL1        0.0646
     51 H           3.5435   -0.8936   -2.1852 H       1  UNL1        0.1490
     52 H           5.5570   -1.8038   -1.5353 H       1  UNL1        0.0466
     53 H           4.8167   -2.3064   -0.0066 H       1  UNL1        0.0466
     54 H           6.0523    0.4697   -0.5065 H       1  UNL1        0.0343
     55 H           5.3169   -0.0601    1.0155 H       1  UNL1        0.0343
     56 H           6.2605   -1.7705    2.3657 H       1  UNL1        0.0635
     57 H           8.3374   -2.8847    3.1438 H       1  UNL1        0.0619
     58 H          10.3656   -2.8163    1.6661 H       1  UNL1        0.0633
     59 H          10.1776   -1.6368   -0.4915 H       1  UNL1        0.0829
     60 H           0.9980    0.5765    1.3660 H       1  UNL1        0.0629
     61 H           0.2120    2.0563    2.6585 H       1  UNL1        0.1512
     62 H          -1.9376    5.5262    1.3994 H       1  UNL1        0.1561
@<TRIPOS>BOND
     1     1     2    1
     2     2     3    2
     3     3     4    1
     4     4     5    2
     5     4     6   am
     6     6     7    1
     7     7     8   ar
     8     8     9   ar
     9     9    10   ar
    10    10    11   ar
    11    11    12   ar
    12    12    13   ar
    13    13    14   ar
    14    14    15   ar
    15     3    16    1
    16    16    17    1
    17    17    18   ar
    18    18    19   ar
    19    19    20   ar
    20    20    21    1
    21    20    22   ar
    22    22    23    1
    23    23    24    2
    24    23    25   am
    25    25    26    1
    26    26    27    1
    27    27    28    1
    28    28    29   ar
    29    29    30   ar
    30    30    31   ar
    31    31    32   ar
    32    32    33   ar
    33    22    34   ar
    34    16    35    1
    35    35    36   am
    36    36    37    2
    37    36    38   am
    38    38     2    1
    39    15     7   ar
    40    34    17   ar
    41    14    10   ar
    42    33    28   ar
    43     1    39    1
    44     1    40    1
    45     1    41    1
    46     6    42    1
    47     8    43    1
    48     9    44    1
    49    11    45    1
    50    13    46    1
    51    15    47    1
    52    16    48    1
    53    18    49    1
    54    19    50    1
    55    25    51    1
    56    26    52    1
    57    26    53    1
    58    27    54    1
    59    27    55    1
    60    29    56    1
    61    30    57    1
    62    31    58    1
    63    32    59    1
    64    34    60    1
    65    35    61    1
    66    38    62    1
