
     RDKit          3D

 36 37  0  0  0  0  0  0  0  0999 V2000
    6.5574   -1.6749    1.5744 C   0  0  0  0  0  0  0  0  0  0  0  0
    5.2863   -1.6734    0.9857 O   0  0  0  0  0  0  0  0  0  0  0  0
    4.6993   -0.4379    1.0956 C   0  0  0  0  0  0  0  0  0  0  0  0
    3.3218   -0.5160    0.4330 C   0  0  0  0  0  0  0  0  0  0  0  0
    2.7636    0.7676    0.5712 O   0  0  0  0  0  0  0  0  0  0  0  0
    1.5103    1.1397    0.1054 C   0  0  0  0  0  0  0  0  0  0  0  0
    1.1015    2.4405    0.3180 C   0  0  0  0  0  0  0  0  0  0  0  0
   -0.0961    2.8851   -0.0996 N   0  0  0  0  0  0  0  0  0  0  0  0
   -0.9663    2.0687   -0.7552 C   0  0  0  0  0  0  0  0  0  0  0  0
   -2.2501    2.4471   -1.2338 N   0  0  0  0  0  0  0  0  0  0  0  0
   -3.3417    1.4007   -2.0628 S   0  0  0  0  0  0  0  0  0  0  0  0
   -4.5631    2.2104   -2.4033 O   0  0  0  0  0  0  0  0  0  0  0  0
   -2.6307    0.9478   -3.3074 O   0  0  0  0  0  0  0  0  0  0  0  0
   -3.7954    0.0701   -1.0536 C   0  0  0  0  0  0  0  0  0  0  0  0
   -4.9087    0.2457   -0.2341 C   0  0  0  0  0  0  0  0  0  0  0  0
   -5.4108   -0.6953    0.6251 C   0  0  0  0  0  0  0  0  0  0  0  0
   -4.7743   -1.9231    0.6976 C   0  0  0  0  0  0  0  0  0  0  0  0
   -3.6680   -2.1267   -0.1028 C   0  0  0  0  0  0  0  0  0  0  0  0
   -3.1798   -1.1620   -0.9621 C   0  0  0  0  0  0  0  0  0  0  0  0
   -0.5788    0.7992   -0.9681 N   0  0  0  0  0  0  0  0  0  0  0  0
    0.6139    0.3293   -0.5607 C   0  0  0  0  0  0  0  0  0  0  0  0
    6.9543   -2.7096    1.4383 H   0  0  0  0  0  0  0  0  0  0  0  0
    7.2077   -0.8850    1.1904 H   0  0  0  0  0  0  0  0  0  0  0  0
    6.3555   -1.5490    2.6717 H   0  0  0  0  0  0  0  0  0  0  0  0
    5.2674    0.3505    0.5789 H   0  0  0  0  0  0  0  0  0  0  0  0
    4.5216   -0.2255    2.1792 H   0  0  0  0  0  0  0  0  0  0  0  0
    3.4743   -0.8168   -0.6147 H   0  0  0  0  0  0  0  0  0  0  0  0
    2.6958   -1.2638    0.9578 H   0  0  0  0  0  0  0  0  0  0  0  0
    1.6773    3.1818    0.8141 H   0  0  0  0  0  0  0  0  0  0  0  0
   -2.4817    3.4621   -1.0281 H   0  0  0  0  0  0  0  0  0  0  0  0
   -5.4611    1.1980   -0.2426 H   0  0  0  0  0  0  0  0  0  0  0  0
   -6.2803   -0.5039    1.2391 H   0  0  0  0  0  0  0  0  0  0  0  0
   -5.1161   -2.7126    1.3540 H   0  0  0  0  0  0  0  0  0  0  0  0
   -3.1231   -3.0795   -0.0878 H   0  0  0  0  0  0  0  0  0  0  0  0
   -2.3201   -1.2931   -1.5983 H   0  0  0  0  0  0  0  0  0  0  0  0
    0.9381   -0.6964   -0.7275 H   0  0  0  0  0  0  0  0  0  0  0  0
  1  2  1  0
  2  3  1  0
  3  4  1  0
  4  5  1  0
  5  6  1  0
  6  7  2  0
  7  8  1  0
  8  9  2  0
  9 10  1  0
 10 11  1  0
 11 12  2  0
 11 13  2  0
 11 14  1  0
 14 15  2  0
 15 16  1  0
 16 17  2  0
 17 18  1  0
 18 19  2  0
  9 20  1  0
 20 21  2  0
 21  6  1  0
 19 14  1  0
  1 22  1  0
  1 23  1  0
  1 24  1  0
  3 25  1  0
  3 26  1  0
  4 27  1  0
  4 28  1  0
  7 29  1  0
 10 30  1  0
 15 31  1  0
 16 32  1  0
 17 33  1  0
 18 34  1  0
 19 35  1  0
 21 36  1  0
M  END
$$$$
