@<TRIPOS>MOLECULE
*****
 36 37 0 0 0
SMALL
GASTEIGER

@<TRIPOS>ATOM
      1 C           6.5574   -1.6749    1.5744 C.3     1  UNL1        0.0366
      2 O           5.2863   -1.6734    0.9857 O.3     1  UNL1       -0.3796
      3 C           4.6993   -0.4379    1.0956 C.3     1  UNL1        0.0814
      4 C           3.3218   -0.5160    0.4330 C.3     1  UNL1        0.1130
      5 O           2.7636    0.7676    0.5712 O.3     1  UNL1       -0.4866
      6 C           1.5103    1.1397    0.1054 C.ar    1  UNL1        0.1567
      7 C           1.1015    2.4405    0.3180 C.ar    1  UNL1        0.0744
      8 N          -0.0961    2.8851   -0.0996 N.ar    1  UNL1       -0.2180
      9 C          -0.9663    2.0687   -0.7552 C.ar    1  UNL1        0.2349
     10 N          -2.2501    2.4471   -1.2338 N.pl3   1  UNL1       -0.1836
     11 S          -3.3417    1.4007   -2.0628 S.O2    1  UNL1        0.0746
     12 O          -4.5631    2.2104   -2.4033 O.2     1  UNL1       -0.1499
     13 O          -2.6307    0.9478   -3.3074 O.2     1  UNL1       -0.1499
     14 C          -3.7954    0.0701   -1.0536 C.ar    1  UNL1        0.1086
     15 C          -4.9087    0.2457   -0.2341 C.ar    1  UNL1       -0.0351
     16 C          -5.4108   -0.6953    0.6251 C.ar    1  UNL1       -0.0599
     17 C          -4.7743   -1.9231    0.6976 C.ar    1  UNL1       -0.0616
     18 C          -3.6680   -2.1267   -0.1028 C.ar    1  UNL1       -0.0599
     19 C          -3.1798   -1.1620   -0.9621 C.ar    1  UNL1       -0.0351
     20 N          -0.5788    0.7992   -0.9681 N.ar    1  UNL1       -0.2180
     21 C           0.6139    0.3293   -0.5607 C.ar    1  UNL1        0.0744
     22 H           6.9543   -2.7096    1.4383 H       1  UNL1        0.0524
     23 H           7.2077   -0.8850    1.1904 H       1  UNL1        0.0524
     24 H           6.3555   -1.5490    2.6717 H       1  UNL1        0.0524
     25 H           5.2674    0.3505    0.5789 H       1  UNL1        0.0593
     26 H           4.5216   -0.2255    2.1792 H       1  UNL1        0.0593
     27 H           3.4743   -0.8168   -0.6147 H       1  UNL1        0.0720
     28 H           2.6958   -1.2638    0.9578 H       1  UNL1        0.0720
     29 H           1.6773    3.1818    0.8141 H       1  UNL1        0.0869
     30 H          -2.4817    3.4621   -1.0281 H       1  UNL1        0.1767
     31 H          -5.4611    1.1980   -0.2426 H       1  UNL1        0.0637
     32 H          -6.2803   -0.5039    1.2391 H       1  UNL1        0.0618
     33 H          -5.1161   -2.7126    1.3540 H       1  UNL1        0.0618
     34 H          -3.1231   -3.0795   -0.0878 H       1  UNL1        0.0618
     35 H          -2.3201   -1.2931   -1.5983 H       1  UNL1        0.0637
     36 H           0.9381   -0.6964   -0.7275 H       1  UNL1        0.0869
@<TRIPOS>BOND
     1     1     2    1
     2     2     3    1
     3     3     4    1
     4     4     5    1
     5     5     6    1
     6     6     7   ar
     7     7     8   ar
     8     8     9   ar
     9     9    10    1
    10    10    11    1
    11    11    12    2
    12    11    13    2
    13    11    14    1
    14    14    15   ar
    15    15    16   ar
    16    16    17   ar
    17    17    18   ar
    18    18    19   ar
    19     9    20   ar
    20    20    21   ar
    21    21     6   ar
    22    19    14   ar
    23     1    22    1
    24     1    23    1
    25     1    24    1
    26     3    25    1
    27     3    26    1
    28     4    27    1
    29     4    28    1
    30     7    29    1
    31    10    30    1
    32    15    31    1
    33    16    32    1
    34    17    33    1
    35    18    34    1
    36    19    35    1
    37    21    36    1
