
     RDKit          3D

 72 74  0  0  0  0  0  0  0  0999 V2000
    5.2524    3.8985   -1.0926 C   0  0  0  0  0  0  0  0  0  0  0  0
    4.9040    2.9438   -2.2021 C   0  0  0  0  0  0  0  0  0  0  0  0
    4.0124    1.8155   -1.7278 C   0  0  0  0  0  0  0  0  0  0  0  0
    4.7727    1.0744   -0.6464 C   0  0  0  0  0  0  0  0  0  0  0  0
    3.9628   -0.0839   -0.0992 C   0  0  2  0  0  0  0  0  0  0  0  0
    2.7089    0.4285    0.4719 N   0  0  0  0  0  0  0  0  0  0  0  0
    1.4549   -0.0659    0.0891 C   0  0  0  0  0  0  0  0  0  0  0  0
    1.4039   -0.9796   -0.7728 O   0  0  0  0  0  0  0  0  0  0  0  0
    0.2384    0.3868    0.6007 O   0  0  0  0  0  0  0  0  0  0  0  0
   -0.9984   -0.2127    0.1173 C   0  0  2  0  0  0  0  0  0  0  0  0
   -1.7405    0.9191   -0.5115 C   0  0  0  0  0  0  0  0  0  0  0  0
   -3.0082    0.6321   -1.0858 N   0  0  0  0  0  0  0  0  0  0  0  0
   -3.2365    0.2227   -2.3518 C   0  0  0  0  0  0  0  0  0  0  0  0
   -4.5537    0.0754   -2.5614 N   0  0  0  0  0  0  0  0  0  0  0  0
   -5.1816    0.3971   -1.4058 C   0  0  0  0  0  0  0  0  0  0  0  0
   -6.6212    0.3897   -1.1434 C   0  0  0  0  0  0  0  0  0  0  0  0
   -7.5392    0.0322   -2.1072 C   0  0  0  0  0  0  0  0  0  0  0  0
   -8.8922    0.0326   -1.8366 C   0  0  0  0  0  0  0  0  0  0  0  0
   -9.3921    0.3872   -0.6004 C   0  0  0  0  0  0  0  0  0  0  0  0
  -10.8627    0.3743   -0.3486 C   0  0  0  0  0  0  0  0  0  0  0  0
  -11.4781   -0.6617   -1.0229 F   0  0  0  0  0  0  0  0  0  0  0  0
  -11.4679    1.5419   -0.7795 F   0  0  0  0  0  0  0  0  0  0  0  0
  -11.0965    0.2624    0.9966 F   0  0  0  0  0  0  0  0  0  0  0  0
   -8.4779    0.7460    0.3685 C   0  0  0  0  0  0  0  0  0  0  0  0
   -7.1051    0.7461    0.0957 C   0  0  0  0  0  0  0  0  0  0  0  0
   -4.2069    0.7403   -0.5005 C   0  0  0  0  0  0  0  0  0  0  0  0
   -1.6326   -0.8093    1.3432 C   0  0  0  0  0  0  0  0  0  0  0  0
   -0.6095   -1.8238    1.9033 C   0  0  0  0  0  0  0  0  0  0  0  0
   -1.8769    0.2000    2.4207 C   0  0  0  0  0  0  0  0  0  0  0  0
   -2.8811   -1.5869    1.0866 C   0  0  0  0  0  0  0  0  0  0  0  0
    4.7445   -0.6893    1.0102 C   0  0  0  0  0  0  0  0  0  0  0  0
    4.2890   -0.6714    2.1930 O   0  0  0  0  0  0  0  0  0  0  0  0
    6.0474   -1.3188    0.7832 C   0  0  0  0  0  0  0  0  0  0  0  0
    6.5239   -1.3602   -0.3621 O   0  0  0  0  0  0  0  0  0  0  0  0
    6.7553   -1.8766    1.8730 N   0  0  0  0  0  0  0  0  0  0  0  0
    8.0215   -2.4904    1.6651 C   0  0  0  0  0  0  0  0  0  0  0  0
    8.8799   -3.0392    2.2646 N   0  0  0  0  0  0  0  0  0  0  0  0
   10.0033   -3.5422    1.8505 C   0  0  0  0  0  0  0  0  0  0  0  0
   10.2702   -3.4397    0.5156 C   0  0  0  0  0  0  0  0  0  0  0  0
    8.7580   -2.5577   -0.0683 S   0  0  0  0  0  0  0  0  0  0  0  0
    6.0440    3.3924   -0.4677 H   0  0  0  0  0  0  0  0  0  0  0  0
    4.3788    4.0438   -0.4482 H   0  0  0  0  0  0  0  0  0  0  0  0
    5.5968    4.8574   -1.4890 H   0  0  0  0  0  0  0  0  0  0  0  0
    5.8669    2.4939   -2.5522 H   0  0  0  0  0  0  0  0  0  0  0  0
    4.4842    3.4698   -3.0819 H   0  0  0  0  0  0  0  0  0  0  0  0
    3.8467    1.1329   -2.5667 H   0  0  0  0  0  0  0  0  0  0  0  0
    3.0396    2.1795   -1.3837 H   0  0  0  0  0  0  0  0  0  0  0  0
    5.6612    0.6433   -1.1498 H   0  0  0  0  0  0  0  0  0  0  0  0
    5.0648    1.7217    0.1838 H   0  0  0  0  0  0  0  0  0  0  0  0
    3.7756   -0.8704   -0.8331 H   0  0  0  0  0  0  0  0  0  0  0  0
    2.7546    1.1782    1.1791 H   0  0  0  0  0  0  0  0  0  0  0  0
   -0.7512   -0.9785   -0.6235 H   0  0  0  0  0  0  0  0  0  0  0  0
   -1.0857    1.2868   -1.3552 H   0  0  0  0  0  0  0  0  0  0  0  0
   -1.7920    1.8047    0.1708 H   0  0  0  0  0  0  0  0  0  0  0  0
   -2.4722    0.0408   -3.0863 H   0  0  0  0  0  0  0  0  0  0  0  0
   -7.1462   -0.2486   -3.0862 H   0  0  0  0  0  0  0  0  0  0  0  0
   -9.5998   -0.2507   -2.6044 H   0  0  0  0  0  0  0  0  0  0  0  0
   -8.8423    1.0230    1.3293 H   0  0  0  0  0  0  0  0  0  0  0  0
   -6.3918    1.0324    0.8722 H   0  0  0  0  0  0  0  0  0  0  0  0
   -4.3857    1.0452    0.5114 H   0  0  0  0  0  0  0  0  0  0  0  0
   -0.2843   -2.4760    1.0679 H   0  0  0  0  0  0  0  0  0  0  0  0
   -1.0671   -2.4521    2.6686 H   0  0  0  0  0  0  0  0  0  0  0  0
    0.2452   -1.2901    2.3707 H   0  0  0  0  0  0  0  0  0  0  0  0
   -0.8866    0.5365    2.8223 H   0  0  0  0  0  0  0  0  0  0  0  0
   -2.4217    1.0940    2.0737 H   0  0  0  0  0  0  0  0  0  0  0  0
   -2.3875   -0.3110    3.2606 H   0  0  0  0  0  0  0  0  0  0  0  0
   -2.7725   -2.6021    1.5764 H   0  0  0  0  0  0  0  0  0  0  0  0
   -3.7626   -1.1329    1.5880 H   0  0  0  0  0  0  0  0  0  0  0  0
   -2.9962   -1.7912    0.0217 H   0  0  0  0  0  0  0  0  0  0  0  0
    6.3597   -1.8453    2.8401 H   0  0  0  0  0  0  0  0  0  0  0  0
   10.7250   -4.0344    2.5261 H   0  0  0  0  0  0  0  0  0  0  0  0
   11.0575   -3.7297   -0.1229 H   0  0  0  0  0  0  0  0  0  0  0  0
  1  2  1  0
  2  3  1  0
  3  4  1  0
  4  5  1  0
  5  6  1  0
  6  7  1  0
  7  8  2  0
  7  9  1  0
  9 10  1  0
 10 11  1  0
 11 12  1  0
 12 13  1  0
 13 14  2  0
 14 15  1  0
 15 16  1  0
 16 17  2  0
 17 18  1  0
 18 19  2  0
 19 20  1  0
 20 21  1  0
 20 22  1  0
 20 23  1  0
 19 24  1  0
 24 25  2  0
 15 26  2  0
 10 27  1  0
 27 28  1  0
 27 29  1  0
 27 30  1  0
  5 31  1  0
 31 32  2  0
 31 33  1  0
 33 34  2  0
 33 35  1  0
 35 36  1  0
 36 37  2  0
 37 38  1  0
 38 39  2  0
 39 40  1  0
 26 12  1  0
 40 36  1  0
 25 16  1  0
  1 41  1  0
  1 42  1  0
  1 43  1  0
  2 44  1  0
  2 45  1  0
  3 46  1  0
  3 47  1  0
  4 48  1  0
  4 49  1  0
  5 50  1  6
  6 51  1  0
 10 52  1  6
 11 53  1  0
 11 54  1  0
 13 55  1  0
 17 56  1  0
 18 57  1  0
 24 58  1  0
 25 59  1  0
 26 60  1  0
 28 61  1  0
 28 62  1  0
 28 63  1  0
 29 64  1  0
 29 65  1  0
 29 66  1  0
 30 67  1  0
 30 68  1  0
 30 69  1  0
 35 70  1  0
 38 71  1  0
 39 72  1  0
M  END
$$$$
