@<TRIPOS>MOLECULE
*****
 72 74 0 0 0
SMALL
GASTEIGER

@<TRIPOS>ATOM
      1 C           5.2524    3.8985   -1.0926 C.3     1  UNL1       -0.0653
      2 C           4.9040    2.9438   -2.2021 C.3     1  UNL1       -0.0558
      3 C           4.0124    1.8155   -1.7278 C.3     1  UNL1       -0.0512
      4 C           4.7727    1.0744   -0.6464 C.3     1  UNL1       -0.0270
      5 C           3.9628   -0.0839   -0.0992 C.3     1  UNL1        0.0937
      6 N           2.7089    0.4285    0.4719 N.am    1  UNL1       -0.2710
      7 C           1.4549   -0.0659    0.0891 C.2     1  UNL1        0.4012
      8 O           1.4039   -0.9796   -0.7728 O.2     1  UNL1       -0.2265
      9 O           0.2384    0.3868    0.6007 O.3     1  UNL1       -0.4448
     10 C          -0.9984   -0.2127    0.1173 C.3     1  UNL1        0.1272
     11 C          -1.7405    0.9191   -0.5115 C.3     1  UNL1        0.0618
     12 N          -3.0082    0.6321   -1.0858 N.ar    1  UNL1       -0.3327
     13 C          -3.2365    0.2227   -2.3518 C.ar    1  UNL1        0.0967
     14 N          -4.5537    0.0754   -2.5614 N.ar    1  UNL1       -0.2358
     15 C          -5.1816    0.3971   -1.4058 C.ar    1  UNL1        0.0887
     16 C          -6.6212    0.3897   -1.1434 C.ar    1  UNL1        0.0018
     17 C          -7.5392    0.0322   -2.1072 C.ar    1  UNL1       -0.0520
     18 C          -8.8922    0.0326   -1.8366 C.ar    1  UNL1       -0.0495
     19 C          -9.3921    0.3872   -0.6004 C.ar    1  UNL1        0.0548
     20 C         -10.8627    0.3743   -0.3486 C.3     1  UNL1        0.4174
     21 F         -11.4781   -0.6617   -1.0229 F       1  UNL1       -0.1659
     22 F         -11.4679    1.5419   -0.7795 F       1  UNL1       -0.1659
     23 F         -11.0965    0.2624    0.9966 F       1  UNL1       -0.1659
     24 C          -8.4779    0.7460    0.3685 C.ar    1  UNL1       -0.0495
     25 C          -7.1051    0.7461    0.0957 C.ar    1  UNL1       -0.0520
     26 C          -4.2069    0.7403   -0.5005 C.ar    1  UNL1        0.0320
     27 C          -1.6326   -0.8093    1.3432 C.3     1  UNL1        0.0011
     28 C          -0.6095   -1.8238    1.9033 C.3     1  UNL1       -0.0566
     29 C          -1.8769    0.2000    2.4207 C.3     1  UNL1       -0.0566
     30 C          -2.8811   -1.5869    1.0866 C.3     1  UNL1       -0.0566
     31 C           4.7445   -0.6893    1.0102 C.2     1  UNL1        0.2376
     32 O           4.2890   -0.6714    2.1930 O.2     1  UNL1       -0.2852
     33 C           6.0474   -1.3188    0.7832 C.2     1  UNL1        0.2871
     34 O           6.5239   -1.3602   -0.3621 O.2     1  UNL1       -0.2666
     35 N           6.7553   -1.8766    1.8730 N.am    1  UNL1       -0.2582
     36 C           8.0215   -2.4904    1.6651 C.ar    1  UNL1        0.1646
     37 N           8.8799   -3.0392    2.2646 N.ar    1  UNL1       -0.2330
     38 C          10.0033   -3.5422    1.8505 C.ar    1  UNL1        0.0368
     39 C          10.2702   -3.4397    0.5156 C.ar    1  UNL1       -0.0030
     40 S           8.7580   -2.5577   -0.0683 S.2     1  UNL1       -0.0605
     41 H           6.0440    3.3924   -0.4677 H       1  UNL1        0.0230
     42 H           4.3788    4.0438   -0.4482 H       1  UNL1        0.0230
     43 H           5.5968    4.8574   -1.4890 H       1  UNL1        0.0230
     44 H           5.8669    2.4939   -2.5522 H       1  UNL1        0.0263
     45 H           4.4842    3.4698   -3.0819 H       1  UNL1        0.0263
     46 H           3.8467    1.1329   -2.5667 H       1  UNL1        0.0266
     47 H           3.0396    2.1795   -1.3837 H       1  UNL1        0.0266
     48 H           5.6612    0.6433   -1.1498 H       1  UNL1        0.0287
     49 H           5.0648    1.7217    0.1838 H       1  UNL1        0.0287
     50 H           3.7756   -0.8704   -0.8331 H       1  UNL1        0.0583
     51 H           2.7546    1.1782    1.1791 H       1  UNL1        0.1527
     52 H          -0.7512   -0.9785   -0.6235 H       1  UNL1        0.0758
     53 H          -1.0857    1.2868   -1.3552 H       1  UNL1        0.0529
     54 H          -1.7920    1.8047    0.1708 H       1  UNL1        0.0529
     55 H          -2.4722    0.0408   -3.0863 H       1  UNL1        0.1029
     56 H          -7.1462   -0.2486   -3.0862 H       1  UNL1        0.0624
     57 H          -9.5998   -0.2507   -2.6044 H       1  UNL1        0.0623
     58 H          -8.8423    1.0230    1.3293 H       1  UNL1        0.0623
     59 H          -6.3918    1.0324    0.8722 H       1  UNL1        0.0624
     60 H          -4.3857    1.0452    0.5114 H       1  UNL1        0.0831
     61 H          -0.2843   -2.4760    1.0679 H       1  UNL1        0.0236
     62 H          -1.0671   -2.4521    2.6686 H       1  UNL1        0.0236
     63 H           0.2452   -1.2901    2.3707 H       1  UNL1        0.0236
     64 H          -0.8866    0.5365    2.8223 H       1  UNL1        0.0236
     65 H          -2.4217    1.0940    2.0737 H       1  UNL1        0.0236
     66 H          -2.3875   -0.3110    3.2606 H       1  UNL1        0.0236
     67 H          -2.7725   -2.6021    1.5764 H       1  UNL1        0.0236
     68 H          -3.7626   -1.1329    1.5880 H       1  UNL1        0.0236
     69 H          -2.9962   -1.7912    0.0217 H       1  UNL1        0.0236
     70 H           6.3597   -1.8453    2.8401 H       1  UNL1        0.1571
     71 H          10.7250   -4.0344    2.5261 H       1  UNL1        0.0835
     72 H          11.0575   -3.7297   -0.1229 H       1  UNL1        0.0709
@<TRIPOS>BOND
     1     1     2    1
     2     2     3    1
     3     3     4    1
     4     4     5    1
     5     5     6    1
     6     6     7   am
     7     7     8    2
     8     7     9    1
     9     9    10    1
    10    10    11    1
    11    11    12    1
    12    12    13   ar
    13    13    14   ar
    14    14    15   ar
    15    15    16    1
    16    16    17   ar
    17    17    18   ar
    18    18    19   ar
    19    19    20    1
    20    20    21    1
    21    20    22    1
    22    20    23    1
    23    19    24   ar
    24    24    25   ar
    25    15    26   ar
    26    10    27    1
    27    27    28    1
    28    27    29    1
    29    27    30    1
    30     5    31    1
    31    31    32    2
    32    31    33    1
    33    33    34    2
    34    33    35   am
    35    35    36    1
    36    36    37   ar
    37    37    38   ar
    38    38    39   ar
    39    39    40   ar
    40    26    12   ar
    41    40    36   ar
    42    25    16   ar
    43     1    41    1
    44     1    42    1
    45     1    43    1
    46     2    44    1
    47     2    45    1
    48     3    46    1
    49     3    47    1
    50     4    48    1
    51     4    49    1
    52     5    50    1
    53     6    51    1
    54    10    52    1
    55    11    53    1
    56    11    54    1
    57    13    55    1
    58    17    56    1
    59    18    57    1
    60    24    58    1
    61    25    59    1
    62    26    60    1
    63    28    61    1
    64    28    62    1
    65    28    63    1
    66    29    64    1
    67    29    65    1
    68    29    66    1
    69    30    67    1
    70    30    68    1
    71    30    69    1
    72    35    70    1
    73    38    71    1
    74    39    72    1
