@<TRIPOS>MOLECULE
*****
 40 42 0 0 0
SMALL
GASTEIGER

@<TRIPOS>ATOM
      1 C          -1.3298   -1.5875   -2.1299 C.3     1  UNL1       -0.0221
      2 C          -1.1228   -0.3729   -1.2663 C.ar    1  UNL1        0.0455
      3 C          -2.0400    0.2917   -0.5134 C.ar    1  UNL1        0.0023
      4 C          -3.4479   -0.0176   -0.2367 C.3     1  UNL1        0.0687
      5 N          -3.6494   -0.9566    0.8411 N.am    1  UNL1       -0.1819
      6 O          -3.7466   -0.4887    2.1359 O.3     1  UNL1       -0.2924
      7 C          -3.7547   -2.3383    0.6513 C.2     1  UNL1        0.2253
      8 O          -3.7142   -2.8480   -0.4899 O.2     1  UNL1       -0.2772
      9 C          -1.4165    1.4041    0.0884 C.ar    1  UNL1        0.0077
     10 C          -1.8931    2.3995    0.9358 C.ar    1  UNL1       -0.0382
     11 C          -1.0734    3.4071    1.3988 C.ar    1  UNL1        0.0186
     12 BR         -1.6894    4.7877    2.5621 Br      1  UNL1       -0.0503
     13 C           0.2386    3.3831    0.9840 C.ar    1  UNL1       -0.0457
     14 C           0.7156    2.3905    0.1388 C.ar    1  UNL1       -0.0348
     15 C          -0.1116    1.3784   -0.3245 C.ar    1  UNL1        0.0729
     16 N           0.0516    0.3016   -1.1391 N.ar    1  UNL1       -0.2151
     17 S           1.5485   -0.1322   -1.8606 S.O2    1  UNL1        0.0844
     18 O           1.3800   -1.3724   -2.6828 O.2     1  UNL1       -0.1476
     19 O           2.0827    0.9975   -2.7213 O.2     1  UNL1       -0.1476
     20 C           2.7610   -0.5030   -0.6483 C.ar    1  UNL1        0.1110
     21 C           2.7362   -1.7806   -0.0822 C.ar    1  UNL1       -0.0349
     22 C           3.6585   -2.1744    0.8716 C.ar    1  UNL1       -0.0599
     23 C           4.6382   -1.2985    1.2902 C.ar    1  UNL1       -0.0616
     24 C           4.6539   -0.0412    0.7253 C.ar    1  UNL1       -0.0599
     25 C           3.7317    0.3606   -0.2322 C.ar    1  UNL1       -0.0349
     26 H          -0.9758   -2.4857   -1.6491 H       1  UNL1        0.0293
     27 H          -2.4074   -1.5706   -2.4208 H       1  UNL1        0.0293
     28 H          -0.8084   -1.4647   -3.1237 H       1  UNL1        0.0293
     29 H          -4.0225    0.9029    0.0647 H       1  UNL1        0.0539
     30 H          -3.9460   -0.4087   -1.1742 H       1  UNL1        0.0539
     31 H          -3.0565   -0.9458    2.7005 H       1  UNL1        0.2417
     32 H          -3.8753   -2.9704    1.5411 H       1  UNL1        0.1274
     33 H          -2.9195    2.3833    1.2351 H       1  UNL1        0.0635
     34 H           0.8859    4.1783    1.3493 H       1  UNL1        0.0629
     35 H           1.7364    2.4199   -0.1564 H       1  UNL1        0.0639
     36 H           1.9867   -2.4892   -0.3851 H       1  UNL1        0.0637
     37 H           3.6252   -3.1734    1.3015 H       1  UNL1        0.0618
     38 H           5.3801   -1.5911    2.0473 H       1  UNL1        0.0618
     39 H           5.4086    0.6732    1.0294 H       1  UNL1        0.0618
     40 H           3.7814    1.3520   -0.6555 H       1  UNL1        0.0637
@<TRIPOS>BOND
     1     1     2    1
     2     2     3   ar
     3     3     4    1
     4     4     5    1
     5     5     6    1
     6     5     7   am
     7     7     8    2
     8     3     9   ar
     9     9    10   ar
    10    10    11   ar
    11    11    12    1
    12    11    13   ar
    13    13    14   ar
    14    14    15   ar
    15    15    16   ar
    16    16    17    1
    17    17    18    2
    18    17    19    2
    19    17    20    1
    20    20    21   ar
    21    21    22   ar
    22    22    23   ar
    23    23    24   ar
    24    24    25   ar
    25    16     2   ar
    26    25    20   ar
    27    15     9   ar
    28     1    26    1
    29     1    27    1
    30     1    28    1
    31     4    29    1
    32     4    30    1
    33     6    31    1
    34     7    32    1
    35    10    33    1
    36    13    34    1
    37    14    35    1
    38    21    36    1
    39    22    37    1
    40    23    38    1
    41    24    39    1
    42    25    40    1
