@<TRIPOS>MOLECULE
*****
 47 50 0 0 0
SMALL
GASTEIGER

@<TRIPOS>ATOM
      1 C           7.7586   -0.3922   -2.1370 C.3     1  UNL1        0.0138
      2 N           8.1853    0.4902   -1.0155 N.ar    1  UNL1       -0.3269
      3 C           9.4022    0.9310   -0.7232 C.ar    1  UNL1        0.0966
      4 N           9.3255    1.7784    0.3189 N.ar    1  UNL1       -0.2428
      5 C           8.0757    1.8691    0.6859 C.ar    1  UNL1        0.0613
      6 C           7.3099    1.0425   -0.1588 C.ar    1  UNL1        0.1124
      7 C           5.8779    0.8965   -0.0942 C.1     1  UNL1       -0.0414
      8 C           4.6688    0.7567   -0.0322 C.1     1  UNL1       -0.0594
      9 C           3.2600    0.5716    0.0511 C.ar    1  UNL1        0.0288
     10 C           2.5329    1.6298    0.6219 C.ar    1  UNL1       -0.0454
     11 C           1.1631    1.4894    0.9045 C.ar    1  UNL1       -0.0462
     12 C           0.5777    0.2504    0.5987 C.ar    1  UNL1        0.0646
     13 C          -0.7323    0.1113    0.8946 C.ar    1  UNL1        0.2001
     14 O          -1.3975    1.0506    1.3874 O.2     1  UNL1       -0.2864
     15 C          -1.3857   -1.1092    0.6554 C.ar    1  UNL1        0.0643
     16 C          -2.8700   -1.0379    0.8448 C.ar    1  UNL1       -0.0112
     17 C          -3.3959   -0.2860    1.8720 C.ar    1  UNL1       -0.0535
     18 C          -4.7361    0.1379    1.7461 C.ar    1  UNL1       -0.0567
     19 C          -5.4767   -0.1822    0.6710 C.ar    1  UNL1       -0.0319
     20 C          -6.7625    0.5635    0.2379 C.3     1  UNL1        0.0419
     21 N          -7.6220   -0.3800   -0.3987 N.3     1  UNL1       -0.1926
     22 S          -9.0632    0.4809   -0.9805 S.O2    1  UNL1        0.0194
     23 O          -9.9246   -0.4691   -1.7204 O.2     1  UNL1       -0.1610
     24 O          -9.6816    1.3073    0.0710 O.2     1  UNL1       -0.1610
     25 C          -4.9193   -0.9771   -0.3608 C.ar    1  UNL1       -0.0567
     26 C          -3.6094   -1.3857   -0.2453 C.ar    1  UNL1       -0.0535
     27 C          -0.6684   -2.0823    0.1362 C.ar    1  UNL1        0.1038
     28 O           0.6656   -1.9657   -0.1888 O.2     1  UNL1       -0.4621
     29 C           1.2812   -0.7854    0.0467 C.ar    1  UNL1        0.1396
     30 C           2.6054   -0.6002   -0.2326 C.ar    1  UNL1       -0.0032
     31 H           7.6024   -1.3777   -1.7232 H       1  UNL1        0.0456
     32 H           6.7519   -0.0068   -2.4791 H       1  UNL1        0.0456
     33 H           8.5375   -0.3148   -2.9204 H       1  UNL1        0.0456
     34 H          10.2900    0.5938   -1.3249 H       1  UNL1        0.1029
     35 H           7.6301    2.4233    1.5668 H       1  UNL1        0.0858
     36 H           3.1264    2.5164    0.8437 H       1  UNL1        0.0630
     37 H           0.5890    2.3096    1.2833 H       1  UNL1        0.0626
     38 H          -2.7597   -0.0613    2.6787 H       1  UNL1        0.0624
     39 H          -5.1812    0.7859    2.5454 H       1  UNL1        0.0621
     40 H          -7.1825    1.0534    1.0964 H       1  UNL1        0.0490
     41 H          -6.4218    1.4222   -0.4652 H       1  UNL1        0.0490
     42 H          -8.0659   -0.9964    0.4168 H       1  UNL1        0.1477
     43 H          -8.5162    1.3769   -1.9694 H       1  UNL1        0.2293
     44 H          -5.5883   -1.1533   -1.2478 H       1  UNL1        0.0621
     45 H          -3.2020   -1.9607   -1.0837 H       1  UNL1        0.0624
     46 H          -1.1673   -3.0432   -0.0204 H       1  UNL1        0.1037
     47 H           3.1129   -1.4875   -0.6527 H       1  UNL1        0.0667
@<TRIPOS>BOND
     1     1     2    1
     2     2     3   ar
     3     3     4   ar
     4     4     5   ar
     5     5     6   ar
     6     6     7    1
     7     7     8    3
     8     8     9    1
     9     9    10   ar
    10    10    11   ar
    11    11    12   ar
    12    12    13   ar
    13    13    14    2
    14    13    15   ar
    15    15    16    1
    16    16    17   ar
    17    17    18   ar
    18    18    19   ar
    19    19    20    1
    20    20    21    1
    21    21    22    1
    22    22    23    2
    23    22    24    2
    24    19    25   ar
    25    25    26   ar
    26    15    27   ar
    27    27    28   ar
    28    28    29   ar
    29    29    30   ar
    30     6     2   ar
    31    30     9   ar
    32    29    12   ar
    33    26    16   ar
    34     1    31    1
    35     1    32    1
    36     1    33    1
    37     3    34    1
    38     5    35    1
    39    10    36    1
    40    11    37    1
    41    17    38    1
    42    18    39    1
    43    20    40    1
    44    20    41    1
    45    21    42    1
    46    22    43    1
    47    25    44    1
    48    26    45    1
    49    27    46    1
    50    30    47    1
