@<TRIPOS>MOLECULE
*****
 17 17 0 0 0
SMALL
GASTEIGER

@<TRIPOS>ATOM
      1 O           5.3446   -0.1755   -0.6265 O.3     1  UNL1        0.0000
      2 HG          3.3749   -0.3935   -0.3328 Hg      1  UNL1        0.0000
      3 C           1.3146   -0.2179   -0.0677 C.ar    1  UNL1        0.0000
      4 C           0.8681   -0.3392    1.2451 C.ar    1  UNL1        0.0000
      5 C          -0.4945   -0.2382    1.5398 C.ar    1  UNL1        0.0000
      6 C          -1.3301   -0.0167    0.4638 C.ar    1  UNL1        0.0000
      7 C          -0.9262    0.1089   -0.8487 C.ar    1  UNL1        0.0000
      8 C           0.4237    0.0053   -1.1129 C.ar    1  UNL1        0.0000
      9 C          -2.7434    0.0844    0.7977 C.2     1  UNL1        0.0000
     10 O          -3.8367    0.2965    0.0018 O.3     1  UNL1        0.0000
     11 O          -3.1286   -0.0279    1.9901 O.2     1  UNL1        0.0000
     12 H           5.6935    0.4458    0.0784 H       1  UNL1        0.0000
     13 H           1.5502   -0.5150    2.0837 H       1  UNL1        0.0000
     14 H          -0.8171   -0.3337    2.5498 H       1  UNL1        0.0000
     15 H          -1.5943    0.2806   -1.6665 H       1  UNL1        0.0000
     16 H           0.8766    0.0825   -2.0827 H       1  UNL1        0.0000
     17 H          -4.5752    0.9535    0.1474 H       1  UNL1        0.0000
@<TRIPOS>BOND
     1     1     2    1
     2     2     3    1
     3     3     4   ar
     4     4     5   ar
     5     5     6   ar
     6     6     7   ar
     7     7     8   ar
     8     6     9    1
     9     9    10    1
    10     9    11    2
    11     8     3   ar
    12     1    12    1
    13     4    13    1
    14     5    14    1
    15     7    15    1
    16     8    16    1
    17    10    17    1
