
     RDKit          3D

 17 17  0  0  0  0  0  0  0  0999 V2000
    5.3446   -0.1755   -0.6265 O   0  0  0  0  0  0  0  0  0  0  0  0
    3.3749   -0.3935   -0.3328 Hg  0  0  0  0  0  2  0  0  0  0  0  0
    1.3146   -0.2179   -0.0677 C   0  0  0  0  0  0  0  0  0  0  0  0
    0.8681   -0.3392    1.2451 C   0  0  0  0  0  0  0  0  0  0  0  0
   -0.4945   -0.2382    1.5398 C   0  0  0  0  0  0  0  0  0  0  0  0
   -1.3301   -0.0167    0.4638 C   0  0  0  0  0  0  0  0  0  0  0  0
   -0.9262    0.1089   -0.8487 C   0  0  0  0  0  0  0  0  0  0  0  0
    0.4237    0.0053   -1.1129 C   0  0  0  0  0  0  0  0  0  0  0  0
   -2.7434    0.0844    0.7977 C   0  0  0  0  0  0  0  0  0  0  0  0
   -3.8367    0.2965    0.0018 O   0  0  0  0  0  0  0  0  0  0  0  0
   -3.1286   -0.0279    1.9901 O   0  0  0  0  0  0  0  0  0  0  0  0
    5.6935    0.4458    0.0784 H   0  0  0  0  0  0  0  0  0  0  0  0
    1.5502   -0.5150    2.0837 H   0  0  0  0  0  0  0  0  0  0  0  0
   -0.8171   -0.3337    2.5498 H   0  0  0  0  0  0  0  0  0  0  0  0
   -1.5943    0.2806   -1.6665 H   0  0  0  0  0  0  0  0  0  0  0  0
    0.8766    0.0825   -2.0827 H   0  0  0  0  0  0  0  0  0  0  0  0
   -4.5752    0.9535    0.1474 H   0  0  0  0  0  0  0  0  0  0  0  0
  1  2  1  0
  2  3  1  0
  3  4  2  0
  4  5  1  0
  5  6  2  0
  6  7  1  0
  7  8  2  0
  6  9  1  0
  9 10  1  0
  9 11  2  0
  8  3  1  0
  1 12  1  0
  4 13  1  0
  5 14  1  0
  7 15  1  0
  8 16  1  0
 10 17  1  0
M  END
$$$$
