@<TRIPOS>MOLECULE
*****
 64 68 0 0 0
SMALL
GASTEIGER

@<TRIPOS>ATOM
      1 C           9.1792    1.4809   -1.2658 C.3     1  UNL1        0.0124
      2 C           8.7066    0.4269   -0.3213 C.2     1  UNL1        0.2126
      3 O           9.4465   -0.5355   -0.0637 O.2     1  UNL1       -0.2759
      4 N           7.4324    0.5180    0.2761 N.am    1  UNL1       -0.2987
      5 C           7.0010   -0.5138    1.1843 C.3     1  UNL1        0.0304
      6 C           5.7462   -1.1236    0.6127 C.3     1  UNL1        0.0280
      7 N           4.8179   -0.1463    0.1503 N.pl3   1  UNL1       -0.3269
      8 C           3.4654   -0.5427   -0.1206 C.ar    1  UNL1        0.0300
      9 C           2.4823    0.3557   -0.4637 C.ar    1  UNL1       -0.0372
     10 C           1.1865   -0.0751   -0.7222 C.ar    1  UNL1       -0.0182
     11 C           0.8681   -1.4050   -0.6378 C.ar    1  UNL1        0.1207
     12 O          -0.3955   -1.9006   -0.8757 O.3     1  UNL1       -0.4893
     13 C          -1.5662   -1.2492   -1.1954 C.3     1  UNL1        0.1179
     14 C          -2.0233   -0.3566   -0.0791 C.3     1  UNL1        0.1195
     15 C          -2.6067   -1.3178    0.9850 C.3     1  UNL1        0.0808
     16 O          -3.7613   -1.7310    0.2746 O.3     1  UNL1       -0.3406
     17 C          -4.2756   -0.4173   -0.0902 C.3     1  UNL1        0.2169
     18 C          -5.1262   -0.7383   -1.3181 C.3     1  UNL1        0.0828
     19 N          -5.7889    0.3364   -1.9103 N.ar    1  UNL1       -0.3313
     20 C          -7.0488    0.7304   -1.6468 C.ar    1  UNL1        0.0242
     21 C          -7.3457    1.7935   -2.4441 C.ar    1  UNL1        0.0454
     22 N          -6.2755    2.0603   -3.2007 N.ar    1  UNL1       -0.2441
     23 C          -5.3296    1.1796   -2.8805 C.ar    1  UNL1        0.0961
     24 C          -5.0648   -0.0080    1.0734 C.ar    1  UNL1        0.0313
     25 C          -5.4019   -0.9641    2.0437 C.ar    1  UNL1       -0.0507
     26 C          -6.2445   -0.7038    3.1029 C.ar    1  UNL1       -0.0429
     27 C          -6.7951    0.5355    3.2439 C.ar    1  UNL1        0.0424
     28 CL         -7.8638    0.8349    4.5973 Cl      1  UNL1       -0.0835
     29 C          -6.4838    1.4982    2.3115 C.ar    1  UNL1       -0.0246
     30 C          -5.6401    1.2390    1.2545 C.ar    1  UNL1        0.0507
     31 CL         -5.1635    2.5832    0.2105 Cl      1  UNL1       -0.0830
     32 O          -3.2110    0.3236   -0.4364 O.3     1  UNL1       -0.3343
     33 C           1.8875   -2.3010   -0.2868 C.ar    1  UNL1       -0.0182
     34 C           3.1386   -1.8656   -0.0401 C.ar    1  UNL1       -0.0372
     35 C           5.1152    1.2519   -0.0853 C.3     1  UNL1        0.0280
     36 C           6.5589    1.6080    0.0031 C.3     1  UNL1        0.0304
     37 H          10.1435    1.1800   -1.7218 H       1  UNL1        0.0323
     38 H           9.3166    2.4564   -0.7929 H       1  UNL1        0.0323
     39 H           8.4672    1.6135   -2.1136 H       1  UNL1        0.0323
     40 H           6.7141   -0.0410    2.1659 H       1  UNL1        0.0480
     41 H           7.7691   -1.3023    1.3285 H       1  UNL1        0.0480
     42 H           5.2915   -1.7211    1.4496 H       1  UNL1        0.0479
     43 H           6.0586   -1.8542   -0.1604 H       1  UNL1        0.0479
     44 H           2.7059    1.4151   -0.5359 H       1  UNL1        0.0637
     45 H           0.4435    0.6675   -1.0138 H       1  UNL1        0.0655
     46 H          -2.3608   -2.0557   -1.2862 H       1  UNL1        0.0723
     47 H          -1.5185   -0.6928   -2.1648 H       1  UNL1        0.0723
     48 H          -1.2928    0.3023    0.3660 H       1  UNL1        0.0654
     49 H          -2.8639   -0.6805    1.8451 H       1  UNL1        0.0588
     50 H          -1.9286   -2.1424    1.1953 H       1  UNL1        0.0588
     51 H          -4.4372   -1.2113   -2.0986 H       1  UNL1        0.0549
     52 H          -5.8093   -1.6047   -1.0682 H       1  UNL1        0.0549
     53 H          -7.6937    0.2715   -0.9269 H       1  UNL1        0.0825
     54 H          -8.2783    2.3663   -2.4981 H       1  UNL1        0.0845
     55 H          -4.3461    1.1624   -3.3434 H       1  UNL1        0.1029
     56 H          -4.9932   -1.9614    1.9780 H       1  UNL1        0.0623
     57 H          -6.4855   -1.4649    3.8364 H       1  UNL1        0.0632
     58 H          -6.9175    2.4784    2.4207 H       1  UNL1        0.0647
     59 H           1.6347   -3.3551   -0.2209 H       1  UNL1        0.0655
     60 H           3.9239   -2.5853    0.2320 H       1  UNL1        0.0637
     61 H           4.5609    1.8273    0.6849 H       1  UNL1        0.0479
     62 H           4.6564    1.5572   -1.0668 H       1  UNL1        0.0479
     63 H           6.8773    2.1302   -0.9449 H       1  UNL1        0.0480
     64 H           6.7418    2.3845    0.8026 H       1  UNL1        0.0480
@<TRIPOS>BOND
     1     1     2    1
     2     2     3    2
     3     2     4   am
     4     4     5    1
     5     5     6    1
     6     6     7    1
     7     7     8    1
     8     8     9   ar
     9     9    10   ar
    10    10    11   ar
    11    11    12    1
    12    12    13    1
    13    13    14    1
    14    14    15    1
    15    15    16    1
    16    16    17    1
    17    17    18    1
    18    18    19    1
    19    19    20   ar
    20    20    21   ar
    21    21    22   ar
    22    22    23   ar
    23    17    24    1
    24    24    25   ar
    25    25    26   ar
    26    26    27   ar
    27    27    28    1
    28    27    29   ar
    29    29    30   ar
    30    30    31    1
    31    17    32    1
    32    11    33   ar
    33    33    34   ar
    34     7    35    1
    35    35    36    1
    36    36     4    1
    37    34     8   ar
    38    32    14    1
    39    23    19   ar
    40    30    24   ar
    41     1    37    1
    42     1    38    1
    43     1    39    1
    44     5    40    1
    45     5    41    1
    46     6    42    1
    47     6    43    1
    48     9    44    1
    49    10    45    1
    50    13    46    1
    51    13    47    1
    52    14    48    1
    53    15    49    1
    54    15    50    1
    55    18    51    1
    56    18    52    1
    57    20    53    1
    58    21    54    1
    59    23    55    1
    60    25    56    1
    61    26    57    1
    62    29    58    1
    63    33    59    1
    64    34    60    1
    65    35    61    1
    66    35    62    1
    67    36    63    1
    68    36    64    1
