@<TRIPOS>MOLECULE
*****
 58 62 0 0 0
SMALL
GASTEIGER

@<TRIPOS>ATOM
      1 O           3.8363   -0.8597    0.4247 O.2     1  UNL1       -0.1685
      2 S           2.4737   -0.6503   -0.2408 S.O2    1  UNL1        0.0072
      3 O           2.3523   -1.8308   -1.1740 O.2     1  UNL1       -0.1685
      4 C           2.6206    0.7583   -1.2059 C.ar    1  UNL1        0.0893
      5 C           3.4086    1.8150   -0.8280 C.ar    1  UNL1       -0.0355
      6 C           3.5600    2.9644   -1.5652 C.ar    1  UNL1       -0.0416
      7 C           2.8855    3.0792   -2.7611 C.ar    1  UNL1        0.0411
      8 CL          3.0962    4.5689   -3.6932 Cl      1  UNL1       -0.0835
      9 C           2.0949    2.0627   -3.1778 C.ar    1  UNL1       -0.0416
     10 C           1.9652    0.9277   -2.4174 C.ar    1  UNL1       -0.0355
     11 C           1.2354   -0.7445    0.9672 C.3     1  UNL1        0.1301
     12 C           1.2736    0.2848    2.0314 C.3     1  UNL1       -0.0227
     13 C           0.6301    1.6048    1.7381 C.3     1  UNL1       -0.0502
     14 C          -0.2384    1.6687    0.5588 C.3     1  UNL1       -0.0456
     15 C          -0.9514    0.3847    0.2410 C.3     1  UNL1       -0.0054
     16 C          -2.2457    0.4462    1.0808 C.3     1  UNL1       -0.0312
     17 C          -3.1463    1.3940    0.3560 C.3     1  UNL1        0.0210
     18 N          -2.7861    1.2365   -1.0053 N.3     1  UNL1       -0.1725
     19 S          -4.0283    0.4929   -1.9123 S.O2    1  UNL1        0.1290
     20 O          -4.3871   -0.8747   -1.3479 O.2     1  UNL1       -0.1495
     21 O          -3.6195    0.2548   -3.3379 O.2     1  UNL1       -0.1495
     22 C          -5.5197    1.4389   -1.9335 C.3     1  UNL1        0.5359
     23 F          -6.0356    1.6392   -0.6683 F       1  UNL1       -0.1493
     24 F          -6.4744    0.6686   -2.6120 F       1  UNL1       -0.1493
     25 F          -5.3873    2.6270   -2.6255 F       1  UNL1       -0.1493
     26 C          -1.5532    0.5338   -1.1342 C.3     1  UNL1        0.0265
     27 C          -0.1811   -0.8534    0.4703 C.3     1  UNL1        0.0298
     28 C          -0.3446   -1.8744   -0.6352 C.3     1  UNL1        0.0954
     29 O           0.2582   -3.0763   -0.2448 O.3     1  UNL1       -0.4883
     30 C           0.9331   -3.2271    0.9669 C.ar    1  UNL1        0.1635
     31 C           1.0797   -4.4944    1.4939 C.ar    1  UNL1        0.1653
     32 F           0.5712   -5.5758    0.8387 F       1  UNL1       -0.2016
     33 C           1.7381   -4.6820    2.6823 C.ar    1  UNL1       -0.0201
     34 C           2.2392   -3.5855    3.3213 C.ar    1  UNL1       -0.0232
     35 C           2.0876   -2.3260    2.7874 C.ar    1  UNL1        0.1323
     36 F           2.6262   -1.3073    3.4949 F       1  UNL1       -0.2050
     37 C           1.4501   -2.1018    1.6282 C.ar    1  UNL1        0.0600
     38 H           3.9395    1.7447    0.0963 H       1  UNL1        0.0637
     39 H           4.1902    3.7820   -1.2395 H       1  UNL1        0.0633
     40 H           1.5715    2.1892   -4.1379 H       1  UNL1        0.0633
     41 H           1.3212    0.1466   -2.7969 H       1  UNL1        0.0637
     42 H           0.7722   -0.1642    2.9290 H       1  UNL1        0.0290
     43 H           2.3308    0.4655    2.4055 H       1  UNL1        0.0290
     44 H           1.3794    2.4369    1.6949 H       1  UNL1        0.0266
     45 H           0.0104    1.8921    2.6467 H       1  UNL1        0.0266
     46 H          -1.0289    2.4621    0.7608 H       1  UNL1        0.0271
     47 H           0.2147    2.0267   -0.3854 H       1  UNL1        0.0271
     48 H          -2.0423    0.8519    2.0793 H       1  UNL1        0.0284
     49 H          -2.7088   -0.5552    1.1440 H       1  UNL1        0.0284
     50 H          -4.1938    1.1019    0.5881 H       1  UNL1        0.0444
     51 H          -3.0607    2.4493    0.6836 H       1  UNL1        0.0444
     52 H          -0.8486    1.1545   -1.7543 H       1  UNL1        0.0449
     53 H          -1.7348   -0.3831   -1.6802 H       1  UNL1        0.0449
     54 H          -0.7325   -1.3632    1.3331 H       1  UNL1        0.0364
     55 H          -1.4446   -2.1023   -0.6676 H       1  UNL1        0.0700
     56 H          -0.0672   -1.5267   -1.6197 H       1  UNL1        0.0700
     57 H           1.8564   -5.6999    3.1068 H       1  UNL1        0.0648
     58 H           2.7592   -3.6956    4.2516 H       1  UNL1        0.0647
@<TRIPOS>BOND
     1     1     2    2
     2     2     3    2
     3     2     4    1
     4     4     5   ar
     5     5     6   ar
     6     6     7   ar
     7     7     8    1
     8     7     9   ar
     9     9    10   ar
    10     2    11    1
    11    11    12    1
    12    12    13    1
    13    13    14    1
    14    15    14    1
    15    15    16    1
    16    16    17    1
    17    17    18    1
    18    18    19    1
    19    19    20    2
    20    19    21    2
    21    19    22    1
    22    22    23    1
    23    22    24    1
    24    22    25    1
    25    18    26    1
    26    15    27    1
    27    27    28    1
    28    28    29    1
    29    29    30    1
    30    30    31   ar
    31    31    32    1
    32    31    33   ar
    33    33    34   ar
    34    34    35   ar
    35    35    36    1
    36    35    37   ar
    37    10     4   ar
    38    27    11    1
    39    37    30   ar
    40    37    11    1
    41    26    15    1
    42     5    38    1
    43     6    39    1
    44     9    40    1
    45    10    41    1
    46    12    42    1
    47    12    43    1
    48    13    44    1
    49    13    45    1
    50    14    46    1
    51    14    47    1
    52    16    48    1
    53    16    49    1
    54    17    50    1
    55    17    51    1
    56    26    52    1
    57    26    53    1
    58    27    54    1
    59    28    55    1
    60    28    56    1
    61    33    57    1
    62    34    58    1
