
     RDKit          3D

 58 62  0  0  0  0  0  0  0  0999 V2000
    3.8363   -0.8597    0.4247 O   0  0  0  0  0  0  0  0  0  0  0  0
    2.4737   -0.6503   -0.2408 S   0  0  0  0  0  6  0  0  0  0  0  0
    2.3523   -1.8308   -1.1740 O   0  0  0  0  0  0  0  0  0  0  0  0
    2.6206    0.7583   -1.2059 C   0  0  0  0  0  0  0  0  0  0  0  0
    3.4086    1.8150   -0.8280 C   0  0  0  0  0  0  0  0  0  0  0  0
    3.5600    2.9644   -1.5652 C   0  0  0  0  0  0  0  0  0  0  0  0
    2.8855    3.0792   -2.7611 C   0  0  0  0  0  0  0  0  0  0  0  0
    3.0962    4.5689   -3.6932 Cl  0  0  0  0  0  0  0  0  0  0  0  0
    2.0949    2.0627   -3.1778 C   0  0  0  0  0  0  0  0  0  0  0  0
    1.9652    0.9277   -2.4174 C   0  0  0  0  0  0  0  0  0  0  0  0
    1.2354   -0.7445    0.9672 C   0  0  0  0  0  0  0  0  0  0  0  0
    1.2736    0.2848    2.0314 C   0  0  0  0  0  0  0  0  0  0  0  0
    0.6301    1.6048    1.7381 C   0  0  0  0  0  0  0  0  0  0  0  0
   -0.2384    1.6687    0.5588 C   0  0  0  0  0  0  0  0  0  0  0  0
   -0.9514    0.3847    0.2410 C   0  0  1  0  0  0  0  0  0  0  0  0
   -2.2457    0.4462    1.0808 C   0  0  0  0  0  0  0  0  0  0  0  0
   -3.1463    1.3940    0.3560 C   0  0  0  0  0  0  0  0  0  0  0  0
   -2.7861    1.2365   -1.0053 N   0  0  0  0  0  0  0  0  0  0  0  0
   -4.0283    0.4929   -1.9123 S   0  0  0  0  0  6  0  0  0  0  0  0
   -4.3871   -0.8747   -1.3479 O   0  0  0  0  0  0  0  0  0  0  0  0
   -3.6195    0.2548   -3.3379 O   0  0  0  0  0  0  0  0  0  0  0  0
   -5.5197    1.4389   -1.9335 C   0  0  0  0  0  0  0  0  0  0  0  0
   -6.0356    1.6392   -0.6683 F   0  0  0  0  0  0  0  0  0  0  0  0
   -6.4744    0.6686   -2.6120 F   0  0  0  0  0  0  0  0  0  0  0  0
   -5.3873    2.6270   -2.6255 F   0  0  0  0  0  0  0  0  0  0  0  0
   -1.5532    0.5338   -1.1342 C   0  0  0  0  0  0  0  0  0  0  0  0
   -0.1811   -0.8534    0.4703 C   0  0  0  0  0  0  0  0  0  0  0  0
   -0.3446   -1.8744   -0.6352 C   0  0  0  0  0  0  0  0  0  0  0  0
    0.2582   -3.0763   -0.2448 O   0  0  0  0  0  0  0  0  0  0  0  0
    0.9331   -3.2271    0.9669 C   0  0  0  0  0  0  0  0  0  0  0  0
    1.0797   -4.4944    1.4939 C   0  0  0  0  0  0  0  0  0  0  0  0
    0.5712   -5.5758    0.8387 F   0  0  0  0  0  0  0  0  0  0  0  0
    1.7381   -4.6820    2.6823 C   0  0  0  0  0  0  0  0  0  0  0  0
    2.2392   -3.5855    3.3213 C   0  0  0  0  0  0  0  0  0  0  0  0
    2.0876   -2.3260    2.7874 C   0  0  0  0  0  0  0  0  0  0  0  0
    2.6262   -1.3073    3.4949 F   0  0  0  0  0  0  0  0  0  0  0  0
    1.4501   -2.1018    1.6282 C   0  0  0  0  0  0  0  0  0  0  0  0
    3.9395    1.7447    0.0963 H   0  0  0  0  0  0  0  0  0  0  0  0
    4.1902    3.7820   -1.2395 H   0  0  0  0  0  0  0  0  0  0  0  0
    1.5715    2.1892   -4.1379 H   0  0  0  0  0  0  0  0  0  0  0  0
    1.3212    0.1466   -2.7969 H   0  0  0  0  0  0  0  0  0  0  0  0
    0.7722   -0.1642    2.9290 H   0  0  0  0  0  0  0  0  0  0  0  0
    2.3308    0.4655    2.4055 H   0  0  0  0  0  0  0  0  0  0  0  0
    1.3794    2.4369    1.6949 H   0  0  0  0  0  0  0  0  0  0  0  0
    0.0104    1.8921    2.6467 H   0  0  0  0  0  0  0  0  0  0  0  0
   -1.0289    2.4621    0.7608 H   0  0  0  0  0  0  0  0  0  0  0  0
    0.2147    2.0267   -0.3854 H   0  0  0  0  0  0  0  0  0  0  0  0
   -2.0423    0.8519    2.0793 H   0  0  0  0  0  0  0  0  0  0  0  0
   -2.7088   -0.5552    1.1440 H   0  0  0  0  0  0  0  0  0  0  0  0
   -4.1938    1.1019    0.5881 H   0  0  0  0  0  0  0  0  0  0  0  0
   -3.0607    2.4493    0.6836 H   0  0  0  0  0  0  0  0  0  0  0  0
   -0.8486    1.1545   -1.7543 H   0  0  0  0  0  0  0  0  0  0  0  0
   -1.7348   -0.3831   -1.6802 H   0  0  0  0  0  0  0  0  0  0  0  0
   -0.7325   -1.3632    1.3331 H   0  0  0  0  0  0  0  0  0  0  0  0
   -1.4446   -2.1023   -0.6676 H   0  0  0  0  0  0  0  0  0  0  0  0
   -0.0672   -1.5267   -1.6197 H   0  0  0  0  0  0  0  0  0  0  0  0
    1.8564   -5.6999    3.1068 H   0  0  0  0  0  0  0  0  0  0  0  0
    2.7592   -3.6956    4.2516 H   0  0  0  0  0  0  0  0  0  0  0  0
  1  2  2  0
  2  3  2  0
  2  4  1  0
  4  5  2  0
  5  6  1  0
  6  7  2  0
  7  8  1  0
  7  9  1  0
  9 10  2  0
  2 11  1  0
 11 12  1  0
 12 13  1  0
 13 14  1  0
 15 14  1  1
 15 16  1  0
 16 17  1  0
 17 18  1  0
 18 19  1  0
 19 20  2  0
 19 21  2  0
 19 22  1  0
 22 23  1  0
 22 24  1  0
 22 25  1  0
 18 26  1  0
 15 27  1  0
 27 28  1  0
 28 29  1  0
 29 30  1  0
 30 31  2  0
 31 32  1  0
 31 33  1  0
 33 34  2  0
 34 35  1  0
 35 36  1  0
 35 37  2  0
 10  4  1  0
 27 11  1  0
 37 30  1  0
 37 11  1  0
 26 15  1  0
  5 38  1  0
  6 39  1  0
  9 40  1  0
 10 41  1  0
 12 42  1  0
 12 43  1  0
 13 44  1  0
 13 45  1  0
 14 46  1  0
 14 47  1  0
 16 48  1  0
 16 49  1  0
 17 50  1  0
 17 51  1  0
 26 52  1  0
 26 53  1  0
 27 54  1  0
 28 55  1  0
 28 56  1  0
 33 57  1  0
 34 58  1  0
M  END
$$$$
