@<TRIPOS>MOLECULE
*****
 70 72 0 0 0
SMALL
GASTEIGER

@<TRIPOS>ATOM
      1 C          -7.5962    1.3133   -0.1910 C.3     1  UNL1       -0.0497
      2 C          -6.2454    1.0398    0.4367 C.3     1  UNL1        0.0048
      3 C          -6.4059    0.0665    1.5501 C.3     1  UNL1       -0.0497
      4 N          -5.3447    0.6784   -0.6007 N.3     1  UNL1       -0.3000
      5 C          -5.6694   -0.4769   -1.3415 C.3     1  UNL1       -0.0122
      6 C          -3.9918    1.0537   -0.4687 C.3     1  UNL1        0.0108
      7 C          -3.2435    0.6268   -1.6820 C.3     1  UNL1       -0.0356
      8 C          -1.7764    0.9141   -1.6506 C.3     1  UNL1       -0.0326
      9 C          -1.2502    1.2729   -0.3084 C.3     1  UNL1        0.0304
     10 N           0.1559    1.2712   -0.1823 N.am    1  UNL1       -0.2965
     11 C           0.9350    2.3878    0.4048 C.3     1  UNL1        0.0172
     12 C           1.8839    1.5851    1.3049 C.3     1  UNL1       -0.0101
     13 C           2.2414    0.3419    0.4790 C.3     1  UNL1        0.1013
     14 N           3.5660    0.4871   -0.0964 N.am    1  UNL1       -0.3000
     15 C           4.6457   -0.3652    0.2260 C.2     1  UNL1        0.2448
     16 O           4.3867   -1.2885    1.0680 O.2     1  UNL1       -0.2702
     17 C           5.9957   -0.2545   -0.3299 C.ar    1  UNL1        0.0402
     18 C           6.3074    0.7271   -1.2393 C.ar    1  UNL1       -0.0494
     19 C           7.5754    0.8292   -1.7598 C.ar    1  UNL1       -0.0576
     20 C           8.5594   -0.0585   -1.3736 C.ar    1  UNL1       -0.0196
     21 C           8.2341   -1.0363   -0.4626 C.ar    1  UNL1        0.1307
     22 O           9.2618   -1.9231   -0.0922 O.3     1  UNL1       -0.4057
     23 C          10.0396   -1.5184    1.0336 C.3     1  UNL1        0.5752
     24 F           9.1552   -1.4062    2.1001 F       1  UNL1       -0.1328
     25 F          10.5688   -0.2411    0.8380 F       1  UNL1       -0.1328
     26 F          11.0363   -2.4178    1.2695 F       1  UNL1       -0.1328
     27 C           6.9714   -1.1508    0.0661 C.ar    1  UNL1       -0.0075
     28 C           1.1747    0.3230   -0.5222 C.2     1  UNL1        0.2362
     29 O           1.0625   -0.3903   -1.5833 O.2     1  UNL1       -0.2736
     30 C          -1.8929    0.3257    0.7100 C.3     1  UNL1       -0.0016
     31 C          -1.5172   -1.0823    0.4079 C.3     1  UNL1        0.0700
     32 S          -2.2237   -2.2777    1.5125 S.O2    1  UNL1       -0.0335
     33 C          -1.6160   -3.9163    1.0412 C.3     1  UNL1        0.0545
     34 O          -1.8979   -1.9696    2.9183 O.2     1  UNL1       -0.1746
     35 O          -3.7255   -2.3014    1.2688 O.2     1  UNL1       -0.1746
     36 C          -3.3336    0.6523    0.8280 C.3     1  UNL1       -0.0313
     37 H          -8.3722    0.6913    0.2944 H       1  UNL1        0.0245
     38 H          -7.6092    1.0449   -1.2751 H       1  UNL1        0.0245
     39 H          -7.8612    2.3900   -0.1493 H       1  UNL1        0.0245
     40 H          -5.8930    2.0055    0.8806 H       1  UNL1        0.0457
     41 H          -6.1105   -0.9397    1.2128 H       1  UNL1        0.0245
     42 H          -5.9237    0.3891    2.4957 H       1  UNL1        0.0245
     43 H          -7.4926   -0.0120    1.7976 H       1  UNL1        0.0245
     44 H          -6.7169   -0.8315   -1.1917 H       1  UNL1        0.0391
     45 H          -5.4664   -0.2967   -2.4173 H       1  UNL1        0.0391
     46 H          -5.0479   -1.3727   -1.0587 H       1  UNL1        0.0391
     47 H          -3.9742    2.1927   -0.4910 H       1  UNL1        0.0463
     48 H          -3.5099   -0.4145   -1.9352 H       1  UNL1        0.0281
     49 H          -3.6735    1.2280   -2.5399 H       1  UNL1        0.0281
     50 H          -1.2485   -0.0004   -1.9889 H       1  UNL1        0.0284
     51 H          -1.4842    1.7050   -2.3970 H       1  UNL1        0.0284
     52 H          -1.6277    2.2860    0.0548 H       1  UNL1        0.0504
     53 H           1.4704    2.9490   -0.3644 H       1  UNL1        0.0465
     54 H           0.3025    3.0542    0.9909 H       1  UNL1        0.0465
     55 H           2.7809    2.1652    1.5701 H       1  UNL1        0.0303
     56 H           1.2709    1.2986    2.1962 H       1  UNL1        0.0303
     57 H           2.2610   -0.5108    1.1648 H       1  UNL1        0.0595
     58 H           3.7309    1.2547   -0.7794 H       1  UNL1        0.1498
     59 H           5.5596    1.4605   -1.5810 H       1  UNL1        0.0625
     60 H           7.7662    1.6219   -2.4732 H       1  UNL1        0.0619
     61 H           9.5488    0.0409   -1.7958 H       1  UNL1        0.0654
     62 H           6.7410   -1.9388    0.7893 H       1  UNL1        0.0662
     63 H          -1.3972    0.5552    1.7147 H       1  UNL1        0.0335
     64 H          -1.8097   -1.3968   -0.6173 H       1  UNL1        0.0503
     65 H          -0.3900   -1.1787    0.5304 H       1  UNL1        0.0503
     66 H          -2.3594   -4.6576    1.4369 H       1  UNL1        0.0464
     67 H          -1.6255   -3.9969   -0.0546 H       1  UNL1        0.0464
     68 H          -0.6194   -4.0426    1.4700 H       1  UNL1        0.0464
     69 H          -3.8656   -0.1213    1.3943 H       1  UNL1        0.0284
     70 H          -3.3804    1.5577    1.5286 H       1  UNL1        0.0284
@<TRIPOS>BOND
     1     1     2    1
     2     2     3    1
     3     2     4    1
     4     4     5    1
     5     4     6    1
     6     6     7    1
     7     7     8    1
     8     8     9    1
     9     9    10    1
    10    10    11    1
    11    11    12    1
    12    12    13    1
    13    13    14    1
    14    14    15   am
    15    15    16    2
    16    15    17    1
    17    17    18   ar
    18    18    19   ar
    19    19    20   ar
    20    20    21   ar
    21    21    22    1
    22    22    23    1
    23    23    24    1
    24    23    25    1
    25    23    26    1
    26    21    27   ar
    27    13    28    1
    28    28    29    2
    29     9    30    1
    30    30    31    1
    31    31    32    1
    32    32    33    1
    33    32    34    2
    34    32    35    2
    35    30    36    1
    36    36     6    1
    37    28    10   am
    38    27    17   ar
    39     1    37    1
    40     1    38    1
    41     1    39    1
    42     2    40    1
    43     3    41    1
    44     3    42    1
    45     3    43    1
    46     5    44    1
    47     5    45    1
    48     5    46    1
    49     6    47    1
    50     7    48    1
    51     7    49    1
    52     8    50    1
    53     8    51    1
    54     9    52    1
    55    11    53    1
    56    11    54    1
    57    12    55    1
    58    12    56    1
    59    13    57    1
    60    14    58    1
    61    18    59    1
    62    19    60    1
    63    20    61    1
    64    27    62    1
    65    30    63    1
    66    31    64    1
    67    31    65    1
    68    33    66    1
    69    33    67    1
    70    33    68    1
    71    36    69    1
    72    36    70    1
