@<TRIPOS>MOLECULE
*****
 36 37 0 0 0
SMALL
GASTEIGER

@<TRIPOS>ATOM
      1 C          -1.8807    3.7910   -0.8927 C.3     1  UNL1        0.0817
      2 O          -1.4913    2.4180   -0.9626 O.3     1  UNL1       -0.4675
      3 C          -0.5090    1.9155   -0.1224 C.2     1  UNL1        0.3158
      4 O           0.1027    2.6094    0.7465 O.2     1  UNL1       -0.2501
      5 C          -0.1842    0.4807   -0.2801 C.3     1  UNL1        0.0966
      6 C           0.9907    0.0826    0.6220 C.3     1  UNL1        0.0246
      7 C           1.3009   -1.3590    0.4494 C.3     1  UNL1       -0.0364
      8 C           2.7460   -1.7175    0.3936 C.3     1  UNL1       -0.0505
      9 C           3.6820   -0.6867   -0.1101 C.3     1  UNL1       -0.0404
     10 C           2.8855    0.4081   -0.7907 C.3     1  UNL1       -0.0038
     11 N           2.0537    0.9790    0.2752 N.3     1  UNL1       -0.3121
     12 C          -1.3626   -0.3832   -0.0335 C.ar    1  UNL1       -0.0322
     13 C          -1.9047   -1.1892   -1.0238 C.ar    1  UNL1       -0.0577
     14 C          -3.0077   -2.0003   -0.7993 C.ar    1  UNL1       -0.0615
     15 C          -3.5880   -2.0102    0.4443 C.ar    1  UNL1       -0.0617
     16 C          -3.0729   -1.2140    1.4670 C.ar    1  UNL1       -0.0615
     17 C          -1.9601   -0.4071    1.2102 C.ar    1  UNL1       -0.0577
     18 H          -2.4368    4.0002    0.0238 H       1  UNL1        0.0661
     19 H          -2.5393    3.9752   -1.7661 H       1  UNL1        0.0661
     20 H          -0.9231    4.3767   -0.9581 H       1  UNL1        0.0661
     21 H           0.1135    0.3261   -1.3522 H       1  UNL1        0.0478
     22 H           0.6627    0.3144    1.6566 H       1  UNL1        0.0472
     23 H           0.8490   -1.9256    1.2930 H       1  UNL1        0.0281
     24 H           0.7930   -1.7249   -0.4708 H       1  UNL1        0.0281
     25 H           2.8591   -2.6310   -0.2370 H       1  UNL1        0.0266
     26 H           3.1250   -2.0518    1.3996 H       1  UNL1        0.0266
     27 H           4.4430   -1.0865   -0.8069 H       1  UNL1        0.0277
     28 H           4.2237   -0.1959    0.7367 H       1  UNL1        0.0277
     29 H           3.5856    1.1746   -1.1316 H       1  UNL1        0.0424
     30 H           2.2307    0.0115   -1.5965 H       1  UNL1        0.0424
     31 H           2.6950    1.2186    1.0722 H       1  UNL1        0.1222
     32 H          -1.4549   -1.1905   -2.0119 H       1  UNL1        0.0621
     33 H          -3.4404   -2.6342   -1.5641 H       1  UNL1        0.0618
     34 H          -4.4607   -2.6456    0.6390 H       1  UNL1        0.0618
     35 H          -3.5450   -1.2336    2.4479 H       1  UNL1        0.0618
     36 H          -1.5802    0.2057    2.0336 H       1  UNL1        0.0621
@<TRIPOS>BOND
     1     1     2    1
     2     2     3    1
     3     3     4    2
     4     3     5    1
     5     5     6    1
     6     6     7    1
     7     7     8    1
     8     8     9    1
     9     9    10    1
    10    10    11    1
    11     5    12    1
    12    12    13   ar
    13    13    14   ar
    14    14    15   ar
    15    15    16   ar
    16    16    17   ar
    17    11     6    1
    18    17    12   ar
    19     1    18    1
    20     1    19    1
    21     1    20    1
    22     5    21    1
    23     6    22    1
    24     7    23    1
    25     7    24    1
    26     8    25    1
    27     8    26    1
    28     9    27    1
    29     9    28    1
    30    10    29    1
    31    10    30    1
    32    11    31    1
    33    13    32    1
    34    14    33    1
    35    15    34    1
    36    16    35    1
    37    17    36    1
