
     RDKit          3D

 36 37  0  0  0  0  0  0  0  0999 V2000
   -1.8807    3.7910   -0.8927 C   0  0  0  0  0  0  0  0  0  0  0  0
   -1.4913    2.4180   -0.9626 O   0  0  0  0  0  0  0  0  0  0  0  0
   -0.5090    1.9155   -0.1224 C   0  0  0  0  0  0  0  0  0  0  0  0
    0.1027    2.6094    0.7465 O   0  0  0  0  0  0  0  0  0  0  0  0
   -0.1842    0.4807   -0.2801 C   0  0  0  0  0  0  0  0  0  0  0  0
    0.9907    0.0826    0.6220 C   0  0  0  0  0  0  0  0  0  0  0  0
    1.3009   -1.3590    0.4494 C   0  0  0  0  0  0  0  0  0  0  0  0
    2.7460   -1.7175    0.3936 C   0  0  0  0  0  0  0  0  0  0  0  0
    3.6820   -0.6867   -0.1101 C   0  0  0  0  0  0  0  0  0  0  0  0
    2.8855    0.4081   -0.7907 C   0  0  0  0  0  0  0  0  0  0  0  0
    2.0537    0.9790    0.2752 N   0  0  0  0  0  0  0  0  0  0  0  0
   -1.3626   -0.3832   -0.0335 C   0  0  0  0  0  0  0  0  0  0  0  0
   -1.9047   -1.1892   -1.0238 C   0  0  0  0  0  0  0  0  0  0  0  0
   -3.0077   -2.0003   -0.7993 C   0  0  0  0  0  0  0  0  0  0  0  0
   -3.5880   -2.0102    0.4443 C   0  0  0  0  0  0  0  0  0  0  0  0
   -3.0729   -1.2140    1.4670 C   0  0  0  0  0  0  0  0  0  0  0  0
   -1.9601   -0.4071    1.2102 C   0  0  0  0  0  0  0  0  0  0  0  0
   -2.4368    4.0002    0.0238 H   0  0  0  0  0  0  0  0  0  0  0  0
   -2.5393    3.9752   -1.7661 H   0  0  0  0  0  0  0  0  0  0  0  0
   -0.9231    4.3767   -0.9581 H   0  0  0  0  0  0  0  0  0  0  0  0
    0.1135    0.3261   -1.3522 H   0  0  0  0  0  0  0  0  0  0  0  0
    0.6627    0.3144    1.6566 H   0  0  0  0  0  0  0  0  0  0  0  0
    0.8490   -1.9256    1.2930 H   0  0  0  0  0  0  0  0  0  0  0  0
    0.7930   -1.7249   -0.4708 H   0  0  0  0  0  0  0  0  0  0  0  0
    2.8591   -2.6310   -0.2370 H   0  0  0  0  0  0  0  0  0  0  0  0
    3.1250   -2.0518    1.3996 H   0  0  0  0  0  0  0  0  0  0  0  0
    4.4430   -1.0865   -0.8069 H   0  0  0  0  0  0  0  0  0  0  0  0
    4.2237   -0.1959    0.7367 H   0  0  0  0  0  0  0  0  0  0  0  0
    3.5856    1.1746   -1.1316 H   0  0  0  0  0  0  0  0  0  0  0  0
    2.2307    0.0115   -1.5965 H   0  0  0  0  0  0  0  0  0  0  0  0
    2.6950    1.2186    1.0722 H   0  0  0  0  0  0  0  0  0  0  0  0
   -1.4549   -1.1905   -2.0119 H   0  0  0  0  0  0  0  0  0  0  0  0
   -3.4404   -2.6342   -1.5641 H   0  0  0  0  0  0  0  0  0  0  0  0
   -4.4607   -2.6456    0.6390 H   0  0  0  0  0  0  0  0  0  0  0  0
   -3.5450   -1.2336    2.4479 H   0  0  0  0  0  0  0  0  0  0  0  0
   -1.5802    0.2057    2.0336 H   0  0  0  0  0  0  0  0  0  0  0  0
  1  2  1  0
  2  3  1  0
  3  4  2  0
  3  5  1  0
  5  6  1  0
  6  7  1  0
  7  8  1  0
  8  9  1  0
  9 10  1  0
 10 11  1  0
  5 12  1  0
 12 13  2  0
 13 14  1  0
 14 15  2  0
 15 16  1  0
 16 17  2  0
 11  6  1  0
 17 12  1  0
  1 18  1  0
  1 19  1  0
  1 20  1  0
  5 21  1  0
  6 22  1  0
  7 23  1  0
  7 24  1  0
  8 25  1  0
  8 26  1  0
  9 27  1  0
  9 28  1  0
 10 29  1  0
 10 30  1  0
 11 31  1  0
 13 32  1  0
 14 33  1  0
 15 34  1  0
 16 35  1  0
 17 36  1  0
M  END
$$$$
