@<TRIPOS>MOLECULE
*****
 41 43 0 0 0
SMALL
GASTEIGER

@<TRIPOS>ATOM
      1 C          -2.6165    0.2627   -0.7180 C.3     1  UNL1        0.1134
      2 C          -3.2974   -0.6463    0.2755 C.3     1  UNL1        0.0878
      3 O          -3.6730    0.1399    1.3563 O.3     1  UNL1       -0.2841
      4 P          -4.4515   -0.6873    2.5787 P.3     1  UNL1        0.4724
      5 O          -4.4881   -2.3551    2.3681 O.3     1  UNL1       -0.3026
      6 O          -6.0209   -0.1561    2.8672 O.3     1  UNL1       -0.3026
      7 O          -3.6628   -0.4433    3.8623 O.2     1  UNL1       -0.2275
      8 O          -1.5041    0.8652   -0.1756 O.3     1  UNL1       -0.3456
      9 C          -0.7118    1.3191   -1.2035 C.3     1  UNL1        0.1667
     10 N           0.6934    1.1700   -0.9860 N.ar    1  UNL1       -0.2855
     11 C           1.5564    1.7988   -1.8114 C.ar    1  UNL1        0.1005
     12 N           2.8094    1.5108   -1.4110 N.ar    1  UNL1       -0.2286
     13 C           2.7606    0.7004   -0.3329 C.ar    1  UNL1        0.1696
     14 C           1.4180    0.5004   -0.0848 C.ar    1  UNL1        0.1693
     15 N           0.9962   -0.2650    0.9283 N.ar    1  UNL1       -0.2158
     16 C           1.9415   -0.8355    1.7006 C.ar    1  UNL1        0.1222
     17 N           3.2667   -0.6833    1.5160 N.ar    1  UNL1       -0.1991
     18 C           3.7114    0.0905    0.4919 C.ar    1  UNL1        0.2553
     19 O           5.0126    0.3741    0.1321 O.3     1  UNL1       -0.3835
     20 P           6.3941   -0.2071    0.9246 P.3     1  UNL1        0.5292
     21 O           6.9215    0.8517    2.1306 O.3     1  UNL1       -0.2930
     22 O           6.0192   -1.6934    1.6395 O.3     1  UNL1       -0.2930
     23 O           7.5539   -0.4056   -0.0276 O.2     1  UNL1       -0.2156
     24 C          -1.0861    0.5296   -2.4411 C.3     1  UNL1        0.1285
     25 O          -1.8281    1.3725   -3.2619 O.3     1  UNL1       -0.3847
     26 C          -1.9935   -0.5323   -1.8549 C.3     1  UNL1        0.1135
     27 O          -2.9506   -0.9602   -2.7667 O.3     1  UNL1       -0.3864
     28 H          -3.2929    1.0442   -1.0950 H       1  UNL1        0.0647
     29 H          -4.2160   -1.0865   -0.1268 H       1  UNL1        0.0592
     30 H          -2.6230   -1.4473    0.5805 H       1  UNL1        0.0592
     31 H          -5.3945   -2.7492    2.3705 H       1  UNL1        0.2220
     32 H          -6.2252    0.7372    2.5407 H       1  UNL1        0.2220
     33 H          -0.9373    2.4056   -1.3303 H       1  UNL1        0.0866
     34 H           1.4424    2.4511   -2.6813 H       1  UNL1        0.1030
     35 H           1.6236   -1.4650    2.5342 H       1  UNL1        0.1049
     36 H           6.7681    1.8010    1.8725 H       1  UNL1        0.2231
     37 H           6.8105   -2.3171    1.5674 H       1  UNL1        0.2231
     38 H          -0.1967    0.0901   -2.9346 H       1  UNL1        0.0665
     39 H          -2.1113    2.2094   -2.7732 H       1  UNL1        0.2101
     40 H          -1.4136   -1.3518   -1.3932 H       1  UNL1        0.0647
     41 H          -3.0047   -1.9370   -2.6969 H       1  UNL1        0.2100
@<TRIPOS>BOND
     1     1     2    1
     2     2     3    1
     3     3     4    1
     4     4     5    1
     5     4     6    1
     6     4     7    2
     7     1     8    1
     8     8     9    1
     9     9    10    1
    10    10    11   ar
    11    11    12   ar
    12    12    13   ar
    13    13    14   ar
    14    14    15   ar
    15    15    16   ar
    16    16    17   ar
    17    17    18   ar
    18    18    19    1
    19    19    20    1
    20    20    21    1
    21    20    22    1
    22    20    23    2
    23     9    24    1
    24    24    25    1
    25    24    26    1
    26    26    27    1
    27    26     1    1
    28    14    10   ar
    29    18    13   ar
    30     1    28    1
    31     2    29    1
    32     2    30    1
    33     5    31    1
    34     6    32    1
    35     9    33    1
    36    11    34    1
    37    16    35    1
    38    21    36    1
    39    22    37    1
    40    24    38    1
    41    25    39    1
    42    26    40    1
    43    27    41    1
