
     RDKit          3D

 41 43  0  0  0  0  0  0  0  0999 V2000
   -2.6165    0.2627   -0.7180 C   0  0  1  0  0  0  0  0  0  0  0  0
   -3.2974   -0.6463    0.2755 C   0  0  0  0  0  0  0  0  0  0  0  0
   -3.6730    0.1399    1.3563 O   0  0  0  0  0  0  0  0  0  0  0  0
   -4.4515   -0.6873    2.5787 P   0  0  0  0  0  0  0  0  0  0  0  0
   -4.4881   -2.3551    2.3681 O   0  0  0  0  0  0  0  0  0  0  0  0
   -6.0209   -0.1561    2.8672 O   0  0  0  0  0  0  0  0  0  0  0  0
   -3.6628   -0.4433    3.8623 O   0  0  0  0  0  0  0  0  0  0  0  0
   -1.5041    0.8652   -0.1756 O   0  0  0  0  0  0  0  0  0  0  0  0
   -0.7118    1.3191   -1.2035 C   0  0  1  0  0  0  0  0  0  0  0  0
    0.6934    1.1700   -0.9860 N   0  0  0  0  0  0  0  0  0  0  0  0
    1.5564    1.7988   -1.8114 C   0  0  0  0  0  0  0  0  0  0  0  0
    2.8094    1.5108   -1.4110 N   0  0  0  0  0  0  0  0  0  0  0  0
    2.7606    0.7004   -0.3329 C   0  0  0  0  0  0  0  0  0  0  0  0
    1.4180    0.5004   -0.0848 C   0  0  0  0  0  0  0  0  0  0  0  0
    0.9962   -0.2650    0.9283 N   0  0  0  0  0  0  0  0  0  0  0  0
    1.9415   -0.8355    1.7006 C   0  0  0  0  0  0  0  0  0  0  0  0
    3.2667   -0.6833    1.5160 N   0  0  0  0  0  0  0  0  0  0  0  0
    3.7114    0.0905    0.4919 C   0  0  0  0  0  0  0  0  0  0  0  0
    5.0126    0.3741    0.1321 O   0  0  0  0  0  0  0  0  0  0  0  0
    6.3941   -0.2071    0.9246 P   0  0  0  0  0  0  0  0  0  0  0  0
    6.9215    0.8517    2.1306 O   0  0  0  0  0  0  0  0  0  0  0  0
    6.0192   -1.6934    1.6395 O   0  0  0  0  0  0  0  0  0  0  0  0
    7.5539   -0.4056   -0.0276 O   0  0  0  0  0  0  0  0  0  0  0  0
   -1.0861    0.5296   -2.4411 C   0  0  2  0  0  0  0  0  0  0  0  0
   -1.8281    1.3725   -3.2619 O   0  0  0  0  0  0  0  0  0  0  0  0
   -1.9935   -0.5323   -1.8549 C   0  0  2  0  0  0  0  0  0  0  0  0
   -2.9506   -0.9602   -2.7667 O   0  0  0  0  0  0  0  0  0  0  0  0
   -3.2929    1.0442   -1.0950 H   0  0  0  0  0  0  0  0  0  0  0  0
   -4.2160   -1.0865   -0.1268 H   0  0  0  0  0  0  0  0  0  0  0  0
   -2.6230   -1.4473    0.5805 H   0  0  0  0  0  0  0  0  0  0  0  0
   -5.3945   -2.7492    2.3705 H   0  0  0  0  0  0  0  0  0  0  0  0
   -6.2252    0.7372    2.5407 H   0  0  0  0  0  0  0  0  0  0  0  0
   -0.9373    2.4056   -1.3303 H   0  0  0  0  0  0  0  0  0  0  0  0
    1.4424    2.4511   -2.6813 H   0  0  0  0  0  0  0  0  0  0  0  0
    1.6236   -1.4650    2.5342 H   0  0  0  0  0  0  0  0  0  0  0  0
    6.7681    1.8010    1.8725 H   0  0  0  0  0  0  0  0  0  0  0  0
    6.8105   -2.3171    1.5674 H   0  0  0  0  0  0  0  0  0  0  0  0
   -0.1967    0.0901   -2.9346 H   0  0  0  0  0  0  0  0  0  0  0  0
   -2.1113    2.2094   -2.7732 H   0  0  0  0  0  0  0  0  0  0  0  0
   -1.4136   -1.3518   -1.3932 H   0  0  0  0  0  0  0  0  0  0  0  0
   -3.0047   -1.9370   -2.6969 H   0  0  0  0  0  0  0  0  0  0  0  0
  1  2  1  0
  2  3  1  0
  3  4  1  0
  4  5  1  0
  4  6  1  0
  4  7  2  0
  1  8  1  0
  8  9  1  0
  9 10  1  0
 10 11  1  0
 11 12  2  0
 12 13  1  0
 13 14  2  0
 14 15  1  0
 15 16  2  0
 16 17  1  0
 17 18  2  0
 18 19  1  0
 19 20  1  0
 20 21  1  0
 20 22  1  0
 20 23  2  0
  9 24  1  0
 24 25  1  0
 24 26  1  0
 26 27  1  0
 26  1  1  0
 14 10  1  0
 18 13  1  0
  1 28  1  6
  2 29  1  0
  2 30  1  0
  5 31  1  0
  6 32  1  0
  9 33  1  6
 11 34  1  0
 16 35  1  0
 21 36  1  0
 22 37  1  0
 24 38  1  6
 25 39  1  0
 26 40  1  1
 27 41  1  0
M  END
$$$$
