@<TRIPOS>MOLECULE
*****
 43 46 0 0 0
SMALL
GASTEIGER

@<TRIPOS>ATOM
      1 C           7.3050    0.0108   -1.1323 C.3     1  UNL1        0.0163
      2 S           6.6808    0.4808    0.5079 S.O     1  UNL1        0.0507
      3 O           6.9447    1.9419    0.7567 O.2     1  UNL1       -0.2524
      4 C           4.9263    0.1914    0.4536 C.ar    1  UNL1        0.0386
      5 C           4.1348    1.2539    0.0213 C.ar    1  UNL1       -0.0453
      6 C           2.7787    1.1004   -0.0453 C.ar    1  UNL1       -0.0500
      7 C           2.1437   -0.0963    0.3078 C.ar    1  UNL1        0.0173
      8 C           2.9364   -1.1219    0.7277 C.ar    1  UNL1       -0.0500
      9 C           4.3117   -0.9929    0.8043 C.ar    1  UNL1       -0.0453
     10 C           0.6877   -0.2333    0.2241 C.ar    1  UNL1        0.1393
     11 N          -0.1423    0.7530   -0.1931 N.ar    1  UNL1       -0.2271
     12 C          -1.4274    0.3060   -0.1566 C.ar    1  UNL1        0.0971
     13 C          -1.3405   -0.9881    0.2989 C.ar    1  UNL1        0.0744
     14 N          -0.0556   -1.3122    0.5290 N.ar    1  UNL1       -0.3374
     15 C          -2.5454   -1.7871    0.4642 C.ar    1  UNL1        0.0033
     16 C          -3.4527   -2.2474   -0.4652 C.ar    1  UNL1       -0.0344
     17 C          -4.5437   -2.9975   -0.0886 C.ar    1  UNL1        0.0282
     18 N          -4.7618   -3.3070    1.1962 N.ar    1  UNL1       -0.2632
     19 C          -3.8873   -2.8697    2.1362 C.ar    1  UNL1        0.0282
     20 C          -2.7774   -2.1130    1.8042 C.ar    1  UNL1       -0.0344
     21 C          -2.4761    1.2282   -0.5729 C.ar    1  UNL1        0.0026
     22 C          -2.6082    2.3504    0.2585 C.ar    1  UNL1       -0.0498
     23 C          -3.5308    3.3236    0.0284 C.ar    1  UNL1       -0.0258
     24 C          -4.3874    3.2232   -1.0679 C.ar    1  UNL1        0.1234
     25 F          -5.3583    4.0949   -1.4428 F       1  UNL1       -0.2055
     26 C          -4.2666    2.1232   -1.8936 C.ar    1  UNL1       -0.0258
     27 C          -3.3216    1.1532   -1.6342 C.ar    1  UNL1       -0.0498
     28 H           7.0175    0.8319   -1.8222 H       1  UNL1        0.0368
     29 H           6.7194   -0.8909   -1.4461 H       1  UNL1        0.0368
     30 H           8.3929   -0.1645   -1.1020 H       1  UNL1        0.0368
     31 H           4.5268    2.1993   -0.2667 H       1  UNL1        0.0629
     32 H           2.1197    1.8921   -0.3733 H       1  UNL1        0.0625
     33 H           2.4984   -2.0737    1.0148 H       1  UNL1        0.0625
     34 H           4.9562   -1.7843    1.1306 H       1  UNL1        0.0629
     35 H           0.2841   -2.2370    0.8803 H       1  UNL1        0.1674
     36 H          -3.1951   -1.9538   -1.4719 H       1  UNL1        0.0639
     37 H          -5.1431   -3.2697   -0.9461 H       1  UNL1        0.0830
     38 H          -4.1675   -3.1834    3.1455 H       1  UNL1        0.0830
     39 H          -2.1935   -1.8534    2.6839 H       1  UNL1        0.0639
     40 H          -2.0083    2.5533    1.1428 H       1  UNL1        0.0625
     41 H          -3.6844    4.2069    0.6228 H       1  UNL1        0.0646
     42 H          -4.8870    1.9613   -2.7666 H       1  UNL1        0.0646
     43 H          -3.2028    0.2974   -2.2522 H       1  UNL1        0.0625
@<TRIPOS>BOND
     1     2     1    1
     2     2     3    2
     3     2     4    1
     4     4     5   ar
     5     5     6   ar
     6     6     7   ar
     7     7     8   ar
     8     8     9   ar
     9     7    10    1
    10    10    11   ar
    11    11    12   ar
    12    12    13   ar
    13    13    14   ar
    14    13    15    1
    15    15    16   ar
    16    16    17   ar
    17    17    18   ar
    18    18    19   ar
    19    19    20   ar
    20    12    21    1
    21    21    22   ar
    22    22    23   ar
    23    23    24   ar
    24    24    25    1
    25    24    26   ar
    26    26    27   ar
    27     9     4   ar
    28    14    10   ar
    29    20    15   ar
    30    27    21   ar
    31     1    28    1
    32     1    29    1
    33     1    30    1
    34     5    31    1
    35     6    32    1
    36     8    33    1
    37     9    34    1
    38    14    35    1
    39    16    36    1
    40    17    37    1
    41    19    38    1
    42    20    39    1
    43    22    40    1
    44    23    41    1
    45    26    42    1
    46    27    43    1
