
     RDKit          3D

 39 39  0  0  0  0  0  0  0  0999 V2000
    4.2522   -1.3062   -0.3540 O   0  0  0  0  0  0  0  0  0  0  0  0
    3.7649   -0.2393   -1.1427 C   0  0  0  0  0  0  0  0  0  0  0  0
    2.5248    0.3538   -0.4871 C   0  0  0  0  0  0  0  0  0  0  0  0
    2.9374    0.9769    0.7916 C   0  0  0  0  0  0  0  0  0  0  0  0
    3.8932    1.9639    0.5064 O   0  0  0  0  0  0  0  0  0  0  0  0
    1.5531   -0.6776   -0.3959 N   0  0  0  0  0  0  0  0  0  0  0  0
    0.2979   -0.2902    0.2044 C   0  0  1  0  0  0  0  0  0  0  0  0
   -0.4027    0.7987   -0.5205 C   0  0  0  0  0  0  0  0  0  0  0  0
   -1.8592    0.6755   -0.7415 C   0  0  2  0  0  0  0  0  0  0  0  0
   -2.1736    0.2085   -2.0206 O   0  0  0  0  0  0  0  0  0  0  0  0
   -2.5677    1.9968   -0.5684 C   0  0  0  0  0  0  0  0  0  0  0  0
   -3.9425    1.8446   -0.6937 O   0  0  0  0  0  0  0  0  0  0  0  0
   -2.5418   -0.3021    0.2248 C   0  0  1  0  0  0  0  0  0  0  0  0
   -3.8789   -0.3586   -0.1223 O   0  0  0  0  0  0  0  0  0  0  0  0
   -1.8318   -1.6232   -0.0961 C   0  0  2  0  0  0  0  0  0  0  0  0
   -2.5286   -2.6399    0.5392 O   0  0  0  0  0  0  0  0  0  0  0  0
   -0.4674   -1.5264    0.5075 C   0  0  1  0  0  0  0  0  0  0  0  0
    0.2259   -2.6862    0.0801 O   0  0  0  0  0  0  0  0  0  0  0  0
    3.4973   -1.7781    0.0671 H   0  0  0  0  0  0  0  0  0  0  0  0
    4.5851    0.4933   -1.2259 H   0  0  0  0  0  0  0  0  0  0  0  0
    3.5501   -0.6673   -2.1361 H   0  0  0  0  0  0  0  0  0  0  0  0
    2.1646    1.1506   -1.1694 H   0  0  0  0  0  0  0  0  0  0  0  0
    3.4444    0.2649    1.4835 H   0  0  0  0  0  0  0  0  0  0  0  0
    2.1329    1.4841    1.3469 H   0  0  0  0  0  0  0  0  0  0  0  0
    3.6795    2.3237   -0.3974 H   0  0  0  0  0  0  0  0  0  0  0  0
    1.4844   -1.2853   -1.2077 H   0  0  0  0  0  0  0  0  0  0  0  0
    0.5962    0.1465    1.2098 H   0  0  0  0  0  0  0  0  0  0  0  0
    0.0778    0.8731   -1.5421 H   0  0  0  0  0  0  0  0  0  0  0  0
   -0.2208    1.8145   -0.0590 H   0  0  0  0  0  0  0  0  0  0  0  0
   -3.1228    0.4642   -2.1736 H   0  0  0  0  0  0  0  0  0  0  0  0
   -2.2010    2.6864   -1.3613 H   0  0  0  0  0  0  0  0  0  0  0  0
   -2.3487    2.3949    0.4553 H   0  0  0  0  0  0  0  0  0  0  0  0
   -4.3704    2.5302   -0.0952 H   0  0  0  0  0  0  0  0  0  0  0  0
   -2.3540   -0.0420    1.2707 H   0  0  0  0  0  0  0  0  0  0  0  0
   -4.4103   -0.1980    0.6993 H   0  0  0  0  0  0  0  0  0  0  0  0
   -1.8118   -1.7637   -1.2112 H   0  0  0  0  0  0  0  0  0  0  0  0
   -2.0073   -3.4804    0.5651 H   0  0  0  0  0  0  0  0  0  0  0  0
   -0.6078   -1.7070    1.6155 H   0  0  0  0  0  0  0  0  0  0  0  0
    0.9875   -2.8736    0.6835 H   0  0  0  0  0  0  0  0  0  0  0  0
  1  2  1  0
  2  3  1  0
  3  4  1  0
  4  5  1  0
  3  6  1  0
  6  7  1  0
  7  8  1  0
  8  9  1  0
  9 10  1  6
  9 11  1  0
 11 12  1  0
  9 13  1  0
 13 14  1  0
 13 15  1  0
 15 16  1  0
 15 17  1  0
 17 18  1  0
 17  7  1  0
  1 19  1  0
  2 20  1  0
  2 21  1  0
  3 22  1  0
  4 23  1  0
  4 24  1  0
  5 25  1  0
  6 26  1  0
  7 27  1  1
  8 28  1  0
  8 29  1  0
 10 30  1  0
 11 31  1  0
 11 32  1  0
 12 33  1  0
 13 34  1  1
 14 35  1  0
 15 36  1  6
 16 37  1  0
 17 38  1  1
 18 39  1  0
M  END
$$$$
