@<TRIPOS>MOLECULE
*****
 39 39 0 0 0
SMALL
GASTEIGER

@<TRIPOS>ATOM
      1 O           4.2522   -1.3062   -0.3540 O.3     1  SER1       -0.3934
      2 C           3.7649   -0.2393   -1.1427 C.3     1  SER1        0.0617
      3 CA          2.5248    0.3538   -0.4871 C.3     1  SER1        0.0544
      4 CB          2.9374    0.9769    0.7916 C.3     1  SER1        0.0617
      5 OG          3.8932    1.9639    0.5064 O.3     1  SER1       -0.3934
      6 N           1.5531   -0.6776   -0.3959 N.3     1  SER1       -0.3039
      7 C           0.2979   -0.2902    0.2044 C.3     0  UNK0        0.0392
      8 C          -0.4027    0.7987   -0.5205 C.3     0  UNK0       -0.0014
      9 C          -1.8592    0.6755   -0.7415 C.3     0  UNK0        0.1186
     10 O          -2.1736    0.2085   -2.0206 O.3     0  UNK0       -0.3836
     11 C          -2.5677    1.9968   -0.5684 C.3     0  UNK0        0.0755
     12 O          -3.9425    1.8446   -0.6937 O.3     0  UNK0       -0.3921
     13 C          -2.5418   -0.3021    0.2248 C.3     0  UNK0        0.1143
     14 O          -3.8789   -0.3586   -0.1223 O.3     0  UNK0       -0.3862
     15 C          -1.8318   -1.6232   -0.0961 C.3     0  UNK0        0.1110
     16 O          -2.5286   -2.6399    0.5392 O.3     0  UNK0       -0.3865
     17 C          -0.4674   -1.5264    0.5075 C.3     0  UNK0        0.0989
     18 O           0.2259   -2.6862    0.0801 O.3     0  UNK0       -0.3876
     19 H           3.4973   -1.7781    0.0671 H       1  SER1        0.2095
     20 H1          4.5851    0.4933   -1.2259 H       1  SER1        0.0573
     21 H2          3.5501   -0.6673   -2.1361 H       1  SER1        0.0573
     22 HA          2.1646    1.1506   -1.1694 H       1  SER1        0.0506
     23 HB1         3.4444    0.2649    1.4835 H       1  SER1        0.0573
     24 HB2         2.1329    1.4841    1.3469 H       1  SER1        0.0573
     25 H           3.6795    2.3237   -0.3974 H       1  SER1        0.2095
     26 H           1.4844   -1.2853   -1.2077 H       1  SER1        0.1227
     27 H           0.5962    0.1465    1.2098 H       0  UNK0        0.0488
     28 H           0.0778    0.8731   -1.5421 H       0  UNK0        0.0310
     29 H          -0.2208    1.8145   -0.0590 H       0  UNK0        0.0310
     30 H          -3.1228    0.4642   -2.1736 H       0  UNK0        0.2104
     31 H          -2.2010    2.6864   -1.3613 H       0  UNK0        0.0587
     32 H          -2.3487    2.3949    0.4553 H       0  UNK0        0.0587
     33 H          -4.3704    2.5302   -0.0952 H       0  UNK0        0.2095
     34 H          -2.3540   -0.0420    1.2707 H       0  UNK0        0.0650
     35 H          -4.4103   -0.1980    0.6993 H       0  UNK0        0.2100
     36 H          -1.8118   -1.7637   -1.2112 H       0  UNK0        0.0646
     37 H          -2.0073   -3.4804    0.5651 H       0  UNK0        0.2100
     38 H          -0.6078   -1.7070    1.6155 H       0  UNK0        0.0636
     39 H           0.9875   -2.8736    0.6835 H       0  UNK0        0.2100
@<TRIPOS>BOND
     1     1     2    1
     2     2     3    1
     3     3     4    1
     4     4     5    1
     5     3     6    1
     6     6     7    1
     7     7     8    1
     8     8     9    1
     9     9    10    1
    10     9    11    1
    11    11    12    1
    12     9    13    1
    13    13    14    1
    14    13    15    1
    15    15    16    1
    16    15    17    1
    17    17    18    1
    18    17     7    1
    19     1    19    1
    20     2    20    1
    21     2    21    1
    22     3    22    1
    23     4    23    1
    24     4    24    1
    25     5    25    1
    26     6    26    1
    27     7    27    1
    28     8    28    1
    29     8    29    1
    30    10    30    1
    31    11    31    1
    32    11    32    1
    33    12    33    1
    34    13    34    1
    35    14    35    1
    36    15    36    1
    37    16    37    1
    38    17    38    1
    39    18    39    1
