@<TRIPOS>MOLECULE
*****
 64 68 0 0 0
SMALL
GASTEIGER

@<TRIPOS>ATOM
      1 O           7.3507   -2.8849    0.3782 O.2     1  UNL1       -0.2451
      2 C           7.0315   -1.8249   -0.2090 C.2     1  UNL1        0.3368
      3 O           7.9422   -1.1624   -1.0093 O.3     1  UNL1       -0.4771
      4 C           5.6778   -1.3203   -0.0195 C.ar    1  UNL1        0.0595
      5 C           5.3173   -0.1432   -0.6692 C.ar    1  UNL1       -0.0460
      6 C           4.0168    0.3270   -0.4774 C.ar    1  UNL1       -0.0392
      7 C           3.1218   -0.3438    0.3223 C.ar    1  UNL1        0.0452
      8 N           1.8158    0.1988    0.4699 N.am    1  UNL1       -0.2833
      9 C           0.7437   -0.1367   -0.4109 C.2     1  UNL1        0.2404
     10 O           1.0998   -0.9633   -1.3321 O.2     1  UNL1       -0.2732
     11 C          -0.6115    0.3773   -0.3136 C.3     1  UNL1        0.1154
     12 C          -0.8578    1.8151   -0.2466 C.3     1  UNL1       -0.0116
     13 C          -2.3539    2.0464   -0.1338 C.3     1  UNL1       -0.0479
     14 C          -2.7252    3.3352   -0.8723 C.3     1  UNL1       -0.0527
     15 C          -1.5676    4.3092   -0.6283 C.3     1  UNL1       -0.0530
     16 C          -1.0348    4.0337    0.7366 C.3     1  UNL1       -0.0527
     17 C          -0.1913    2.7356    0.6714 C.3     1  UNL1       -0.0479
     18 N          -1.5820   -0.5231    0.3277 N.ar    1  UNL1       -0.3113
     19 C          -2.5418   -1.2894   -0.3030 C.ar    1  UNL1        0.1425
     20 C          -2.7696   -1.3756   -1.7327 C.ar    1  UNL1        0.0176
     21 C          -3.8490   -0.8050   -2.3583 C.ar    1  UNL1       -0.0497
     22 C          -4.0154   -0.9289   -3.7453 C.ar    1  UNL1       -0.0427
     23 C          -3.0940   -1.6270   -4.4959 C.ar    1  UNL1        0.0410
     24 CL         -3.3068   -1.7826   -6.2527 Cl      1  UNL1       -0.0835
     25 C          -2.0217   -2.1947   -3.8793 C.ar    1  UNL1       -0.0427
     26 C          -1.8781   -2.0606   -2.5166 C.ar    1  UNL1       -0.0497
     27 N          -3.2336   -1.9729    0.6570 N.ar    1  UNL1       -0.2275
     28 C          -2.7025   -1.6267    1.8285 C.ar    1  UNL1        0.0897
     29 C          -3.0543   -2.0538    3.0875 C.ar    1  UNL1       -0.0342
     30 C          -2.3689   -1.5785    4.2047 C.ar    1  UNL1       -0.0596
     31 C          -1.3458   -0.6857    4.0345 C.ar    1  UNL1       -0.0597
     32 C          -1.0016   -0.2644    2.7705 C.ar    1  UNL1       -0.0360
     33 C          -1.6723   -0.7266    1.6597 C.ar    1  UNL1        0.0698
     34 C           3.4586   -1.4946    0.9637 C.ar    1  UNL1        0.0767
     35 C           2.5210   -2.2522    1.8411 C.3     1  UNL1        0.4191
     36 F           1.3953   -2.6733    1.1674 F       1  UNL1       -0.1658
     37 F           3.1685   -3.3924    2.3089 F       1  UNL1       -0.1658
     38 F           2.1941   -1.5185    2.9717 F       1  UNL1       -0.1658
     39 C           4.7655   -1.9702    0.7729 C.ar    1  UNL1       -0.0343
     40 H           8.9096   -1.5050   -0.9642 H       1  UNL1        0.2954
     41 H           6.0122    0.3814   -1.2927 H       1  UNL1        0.0626
     42 H           3.7299    1.2431   -0.9806 H       1  UNL1        0.0636
     43 H           1.5739    0.8714    1.2171 H       1  UNL1        0.1549
     44 H          -0.9432    0.2040   -1.4327 H       1  UNL1        0.0627
     45 H          -0.6299    2.2699   -1.2851 H       1  UNL1        0.0325
     46 H          -2.9281    1.2507   -0.6007 H       1  UNL1        0.0269
     47 H          -2.6598    2.1309    0.9378 H       1  UNL1        0.0269
     48 H          -2.8938    3.1705   -1.9367 H       1  UNL1        0.0265
     49 H          -3.6040    3.7838   -0.3581 H       1  UNL1        0.0265
     50 H          -0.7902    4.2643   -1.3882 H       1  UNL1        0.0265
     51 H          -1.9656    5.3559   -0.6673 H       1  UNL1        0.0265
     52 H          -1.8201    3.9326    1.5030 H       1  UNL1        0.0265
     53 H          -0.3796    4.8699    1.0772 H       1  UNL1        0.0265
     54 H           0.7730    3.1345    0.2210 H       1  UNL1        0.0269
     55 H          -0.0785    2.4925    1.7178 H       1  UNL1        0.0269
     56 H          -4.5918   -0.2544   -1.8270 H       1  UNL1        0.0625
     57 H          -4.8510   -0.4912   -4.2538 H       1  UNL1        0.0632
     58 H          -1.2821   -2.7507   -4.4557 H       1  UNL1        0.0632
     59 H          -1.0164   -2.5278   -2.0626 H       1  UNL1        0.0625
     60 H          -3.8446   -2.7497    3.2788 H       1  UNL1        0.0639
     61 H          -2.6440   -1.9139    5.2070 H       1  UNL1        0.0618
     62 H          -0.7900   -0.2934    4.8684 H       1  UNL1        0.0618
     63 H          -0.2072    0.4158    2.6424 H       1  UNL1        0.0639
     64 H           5.0803   -2.8872    1.2658 H       1  UNL1        0.0632
@<TRIPOS>BOND
     1     1     2    2
     2     2     3    1
     3     2     4    1
     4     4     5   ar
     5     5     6   ar
     6     6     7   ar
     7     7     8    1
     8     8     9   am
     9     9    10    2
    10     9    11    1
    11    11    12    1
    12    12    13    1
    13    13    14    1
    14    14    15    1
    15    15    16    1
    16    16    17    1
    17    11    18    1
    18    18    19   ar
    19    19    20    1
    20    20    21   ar
    21    21    22   ar
    22    22    23   ar
    23    23    24    1
    24    23    25   ar
    25    25    26   ar
    26    19    27   ar
    27    27    28   ar
    28    28    29   ar
    29    29    30   ar
    30    30    31   ar
    31    31    32   ar
    32    32    33   ar
    33     7    34   ar
    34    34    35    1
    35    35    36    1
    36    35    37    1
    37    35    38    1
    38    34    39   ar
    39    39     4   ar
    40    17    12    1
    41    33    18   ar
    42    26    20   ar
    43    33    28   ar
    44     3    40    1
    45     5    41    1
    46     6    42    1
    47     8    43    1
    48    11    44    1
    49    12    45    1
    50    13    46    1
    51    13    47    1
    52    14    48    1
    53    14    49    1
    54    15    50    1
    55    15    51    1
    56    16    52    1
    57    16    53    1
    58    17    54    1
    59    17    55    1
    60    21    56    1
    61    22    57    1
    62    25    58    1
    63    26    59    1
    64    29    60    1
    65    30    61    1
    66    31    62    1
    67    32    63    1
    68    39    64    1
