@<TRIPOS>MOLECULE
*****
 49 52 0 0 0
SMALL
GASTEIGER

@<TRIPOS>ATOM
      1 O          -0.2457   -2.7854    0.3338 O.2     1  UNL1       -0.2729
      2 C          -0.4186   -1.5394    0.4290 C.2     1  UNL1        0.2487
      3 C           0.5489   -0.5606    0.9228 C.3     1  UNL1        0.1164
      4 C           1.9810   -0.9697    0.7462 C.3     1  UNL1       -0.0216
      5 C           2.3587   -1.1974   -0.6911 C.3     1  UNL1        0.0291
      6 S           4.1110   -1.6854   -0.7604 S.O     1  UNL1        0.0538
      7 O           4.2659   -2.9112    0.1620 O.2     1  UNL1       -0.2521
      8 C           5.1009   -0.3888   -0.0686 C.ar    1  UNL1        0.0388
      9 C           5.5554    0.5958   -0.9437 C.ar    1  UNL1       -0.0459
     10 C           6.3419    1.6552   -0.4835 C.ar    1  UNL1       -0.0606
     11 C           6.6387    1.6672    0.8788 C.ar    1  UNL1       -0.0617
     12 C           6.1971    0.7025    1.7538 C.ar    1  UNL1       -0.0606
     13 C           5.4220   -0.3326    1.2724 C.ar    1  UNL1       -0.0459
     14 C           0.1966    0.6349    0.1107 C.2     1  UNL1        0.2487
     15 O           0.8077    1.6177   -0.3781 O.2     1  UNL1       -0.2729
     16 N          -1.2134    0.5567   -0.1208 N.am    1  UNL1       -0.1804
     17 N          -1.6027   -0.7934    0.0756 N.am    1  UNL1       -0.1804
     18 C          -2.8973   -1.4226   -0.0278 C.ar    1  UNL1        0.0566
     19 C          -3.4110   -1.9796   -1.1785 C.ar    1  UNL1       -0.0386
     20 C          -4.6700   -2.5577   -1.1572 C.ar    1  UNL1       -0.0599
     21 C          -5.4041   -2.5729    0.0170 C.ar    1  UNL1       -0.0616
     22 C          -4.9365   -2.0290    1.1977 C.ar    1  UNL1       -0.0599
     23 C          -3.6680   -1.4607    1.1253 C.ar    1  UNL1       -0.0386
     24 C          -2.2477    1.4812   -0.4830 C.ar    1  UNL1        0.0566
     25 C          -2.6575    1.8054   -1.7615 C.ar    1  UNL1       -0.0386
     26 C          -3.6744    2.7211   -1.9377 C.ar    1  UNL1       -0.0599
     27 C          -4.3237    3.3489   -0.8882 C.ar    1  UNL1       -0.0616
     28 C          -3.9293    3.0394    0.4102 C.ar    1  UNL1       -0.0599
     29 C          -2.9095    2.1205    0.5701 C.ar    1  UNL1       -0.0386
     30 H           0.3418   -0.3378    1.9774 H       1  UNL1        0.0491
     31 H           2.6246   -0.1933    1.1956 H       1  UNL1        0.0286
     32 H           2.1366   -1.9033    1.3158 H       1  UNL1        0.0286
     33 H           1.7307   -1.9227   -1.2039 H       1  UNL1        0.0405
     34 H           2.3069   -0.2074   -1.2112 H       1  UNL1        0.0405
     35 H           5.3120    0.5702   -2.0122 H       1  UNL1        0.0629
     36 H           6.7057    2.4303   -1.1434 H       1  UNL1        0.0618
     37 H           7.2493    2.4684    1.3016 H       1  UNL1        0.0618
     38 H           6.4473    0.7444    2.8042 H       1  UNL1        0.0618
     39 H           5.0509   -1.1211    1.9395 H       1  UNL1        0.0629
     40 H          -2.7776   -1.9300   -2.0602 H       1  UNL1        0.0637
     41 H          -5.0618   -2.9949   -2.0796 H       1  UNL1        0.0618
     42 H          -6.3949   -3.0228    0.0522 H       1  UNL1        0.0618
     43 H          -5.4767   -2.0212    2.1306 H       1  UNL1        0.0618
     44 H          -3.2749   -1.0241    2.0430 H       1  UNL1        0.0637
     45 H          -2.1323    1.3001   -2.5434 H       1  UNL1        0.0637
     46 H          -3.9786    2.9589   -2.9640 H       1  UNL1        0.0618
     47 H          -5.1218    4.0663   -1.0620 H       1  UNL1        0.0618
     48 H          -4.3911    3.4903    1.2740 H       1  UNL1        0.0618
     49 H          -2.6126    1.8894    1.6003 H       1  UNL1        0.0637
@<TRIPOS>BOND
     1     1     2    2
     2     2     3    1
     3     3     4    1
     4     4     5    1
     5     5     6    1
     6     6     7    2
     7     6     8    1
     8     8     9   ar
     9     9    10   ar
    10    10    11   ar
    11    11    12   ar
    12    12    13   ar
    13     3    14    1
    14    14    15    2
    15    14    16   am
    16    16    17    1
    17    17    18    1
    18    18    19   ar
    19    19    20   ar
    20    20    21   ar
    21    21    22   ar
    22    22    23   ar
    23    16    24    1
    24    24    25   ar
    25    25    26   ar
    26    26    27   ar
    27    27    28   ar
    28    28    29   ar
    29    17     2   am
    30    23    18   ar
    31    29    24   ar
    32    13     8   ar
    33     3    30    1
    34     4    31    1
    35     4    32    1
    36     5    33    1
    37     5    34    1
    38     9    35    1
    39    10    36    1
    40    11    37    1
    41    12    38    1
    42    13    39    1
    43    19    40    1
    44    20    41    1
    45    21    42    1
    46    22    43    1
    47    23    44    1
    48    25    45    1
    49    26    46    1
    50    27    47    1
    51    28    48    1
    52    29    49    1
