
     RDKit          3D

 56 60  0  0  0  0  0  0  0  0999 V2000
   -6.5601   -1.9419    2.0227 O   0  0  0  0  0  0  0  0  0  0  0  0
   -7.4413   -1.2345    1.4919 C   0  0  0  0  0  0  0  0  0  0  0  0
   -8.6480   -1.8044    1.1474 O   0  0  0  0  0  0  0  0  0  0  0  0
   -7.1979    0.1918    1.2355 C   0  0  0  0  0  0  0  0  0  0  0  0
   -6.3862    0.4421    0.0024 C   0  0  0  0  0  0  0  0  0  0  0  0
   -6.1803    1.9347   -0.1914 C   0  0  0  0  0  0  0  0  0  0  0  0
   -5.0850    1.9559   -1.0135 O   0  0  0  0  0  0  0  0  0  0  0  0
   -4.1361    1.1034   -0.4958 C   0  0  0  0  0  0  0  0  0  0  0  0
   -3.2872    0.5491   -1.6108 C   0  0  0  0  0  0  0  0  0  0  0  0
   -1.9014    1.1160   -1.5998 C   0  0  0  0  0  0  0  0  0  0  0  0
   -1.2449    0.9954   -0.3396 N   0  0  0  0  0  0  0  0  0  0  0  0
    0.1154    0.6531   -0.2458 C   0  0  0  0  0  0  0  0  0  0  0  0
    0.7831    0.5295    0.9569 C   0  0  0  0  0  0  0  0  0  0  0  0
    2.1137    0.1900    0.9587 C   0  0  0  0  0  0  0  0  0  0  0  0
    2.7918   -0.0291   -0.2216 C   0  0  0  0  0  0  0  0  0  0  0  0
    4.2051   -0.3929   -0.2657 C   0  0  0  0  0  0  0  0  0  0  0  0
    5.0670   -0.5769    0.7254 N   0  0  0  0  0  0  0  0  0  0  0  0
    6.3027   -0.9110    0.2621 C   0  0  0  0  0  0  0  0  0  0  0  0
    7.4998   -1.1953    0.8796 C   0  0  0  0  0  0  0  0  0  0  0  0
    8.6339   -1.5132    0.1531 C   0  0  0  0  0  0  0  0  0  0  0  0
    9.9477   -1.8266    0.7932 C   0  0  0  0  0  0  0  0  0  0  0  0
    9.9459   -3.0880    1.3507 F   0  0  0  0  0  0  0  0  0  0  0  0
   10.9394   -1.7254   -0.1738 F   0  0  0  0  0  0  0  0  0  0  0  0
   10.2402   -0.8807    1.7521 F   0  0  0  0  0  0  0  0  0  0  0  0
    8.4818   -1.5254   -1.2214 C   0  0  0  0  0  0  0  0  0  0  0  0
    7.2940   -1.2442   -1.8570 C   0  0  0  0  0  0  0  0  0  0  0  0
    6.1841   -0.9316   -1.1104 C   0  0  0  0  0  0  0  0  0  0  0  0
    4.9015   -0.6135   -1.3945 N   0  0  0  0  0  0  0  0  0  0  0  0
    2.0525    0.1145   -1.3780 C   0  0  0  0  0  0  0  0  0  0  0  0
    0.7741    0.4398   -1.4019 N   0  0  0  0  0  0  0  0  0  0  0  0
   -2.0061    1.2311    0.8589 C   0  0  0  0  0  0  0  0  0  0  0  0
   -3.3655    1.8228    0.5564 C   0  0  0  0  0  0  0  0  0  0  0  0
   -4.9531   -0.0239    0.1039 C   0  0  0  0  0  0  0  0  0  0  0  0
   -8.7262   -2.7944    0.8637 H   0  0  0  0  0  0  0  0  0  0  0  0
   -8.1847    0.6936    1.0869 H   0  0  0  0  0  0  0  0  0  0  0  0
   -6.7516    0.6317    2.1487 H   0  0  0  0  0  0  0  0  0  0  0  0
   -6.8583    0.0070   -0.8793 H   0  0  0  0  0  0  0  0  0  0  0  0
   -7.0677    2.3395   -0.6774 H   0  0  0  0  0  0  0  0  0  0  0  0
   -6.0234    2.4586    0.7670 H   0  0  0  0  0  0  0  0  0  0  0  0
   -3.2700   -0.5584   -1.5492 H   0  0  0  0  0  0  0  0  0  0  0  0
   -3.7503    0.8123   -2.5934 H   0  0  0  0  0  0  0  0  0  0  0  0
   -1.9303    2.1826   -1.9128 H   0  0  0  0  0  0  0  0  0  0  0  0
   -1.3469    0.5892   -2.4295 H   0  0  0  0  0  0  0  0  0  0  0  0
    0.2097    0.7106    1.8483 H   0  0  0  0  0  0  0  0  0  0  0  0
    2.6361    0.0945    1.9173 H   0  0  0  0  0  0  0  0  0  0  0  0
    7.6032   -1.1819    1.9568 H   0  0  0  0  0  0  0  0  0  0  0  0
    9.3644   -1.7737   -1.8090 H   0  0  0  0  0  0  0  0  0  0  0  0
    7.1991   -1.2598   -2.9299 H   0  0  0  0  0  0  0  0  0  0  0  0
    4.5712   -0.5662   -2.3946 H   0  0  0  0  0  0  0  0  0  0  0  0
    2.6026   -0.0626   -2.3174 H   0  0  0  0  0  0  0  0  0  0  0  0
   -1.4628    1.9814    1.4667 H   0  0  0  0  0  0  0  0  0  0  0  0
   -2.1243    0.3331    1.4857 H   0  0  0  0  0  0  0  0  0  0  0  0
   -3.2130    2.8951    0.3268 H   0  0  0  0  0  0  0  0  0  0  0  0
   -3.9428    1.7643    1.5084 H   0  0  0  0  0  0  0  0  0  0  0  0
   -4.7902   -0.9665   -0.4277 H   0  0  0  0  0  0  0  0  0  0  0  0
   -4.6243   -0.1408    1.1581 H   0  0  0  0  0  0  0  0  0  0  0  0
  1  2  2  0
  2  3  1  0
  2  4  1  0
  4  5  1  0
  5  6  1  0
  6  7  1  0
  7  8  1  0
  8  9  1  0
  9 10  1  0
 10 11  1  0
 11 12  1  0
 12 13  2  0
 13 14  1  0
 14 15  2  0
 15 16  1  0
 16 17  2  0
 17 18  1  0
 18 19  2  0
 19 20  1  0
 20 21  1  0
 21 22  1  0
 21 23  1  0
 21 24  1  0
 20 25  2  0
 25 26  1  0
 26 27  2  0
 27 28  1  0
 15 29  1  0
 29 30  2  0
 11 31  1  0
 31 32  1  0
  8 33  1  0
 33  5  1  0
 32  8  1  0
 30 12  1  0
 28 16  1  0
 27 18  1  0
  3 34  1  0
  4 35  1  0
  4 36  1  0
  5 37  1  0
  6 38  1  0
  6 39  1  0
  9 40  1  0
  9 41  1  0
 10 42  1  0
 10 43  1  0
 13 44  1  0
 14 45  1  0
 19 46  1  0
 25 47  1  0
 26 48  1  0
 28 49  1  0
 29 50  1  0
 31 51  1  0
 31 52  1  0
 32 53  1  0
 32 54  1  0
 33 55  1  0
 33 56  1  0
M  END
$$$$
