@<TRIPOS>MOLECULE
*****
 56 60 0 0 0
SMALL
GASTEIGER

@<TRIPOS>ATOM
      1 O          -6.5601   -1.9419    2.0227 O.2     1  UNL1       -0.2510
      2 C          -7.4413   -1.2345    1.4919 C.2     1  UNL1        0.3050
      3 O          -8.6480   -1.8044    1.1474 O.3     1  UNL1       -0.4806
      4 C          -7.1979    0.1918    1.2355 C.3     1  UNL1        0.0498
      5 C          -6.3862    0.4421    0.0024 C.3     1  UNL1       -0.0049
      6 C          -6.1803    1.9347   -0.1914 C.3     1  UNL1        0.0518
      7 O          -5.0850    1.9559   -1.0135 O.3     1  UNL1       -0.3730
      8 C          -4.1361    1.1034   -0.4958 C.3     1  UNL1        0.0727
      9 C          -3.2872    0.5491   -1.6108 C.3     1  UNL1       -0.0079
     10 C          -1.9014    1.1160   -1.5998 C.3     1  UNL1        0.0161
     11 N          -1.2449    0.9954   -0.3396 N.pl3   1  UNL1       -0.3150
     12 C           0.1154    0.6531   -0.2458 C.ar    1  UNL1        0.1212
     13 C           0.7831    0.5295    0.9569 C.ar    1  UNL1       -0.0210
     14 C           2.1137    0.1900    0.9587 C.ar    1  UNL1       -0.0464
     15 C           2.7918   -0.0291   -0.2216 C.ar    1  UNL1        0.0355
     16 C           4.2051   -0.3929   -0.2657 C.ar    1  UNL1        0.1407
     17 N           5.0670   -0.5769    0.7254 N.ar    1  UNL1       -0.2277
     18 C           6.3027   -0.9110    0.2621 C.ar    1  UNL1        0.0900
     19 C           7.4998   -1.1953    0.8796 C.ar    1  UNL1       -0.0226
     20 C           8.6339   -1.5132    0.1531 C.ar    1  UNL1        0.0569
     21 C           9.9477   -1.8266    0.7932 C.3     1  UNL1        0.4175
     22 F           9.9459   -3.0880    1.3507 F       1  UNL1       -0.1659
     23 F          10.9394   -1.7254   -0.1738 F       1  UNL1       -0.1659
     24 F          10.2402   -0.8807    1.7521 F       1  UNL1       -0.1659
     25 C           8.4818   -1.5254   -1.2214 C.ar    1  UNL1       -0.0480
     26 C           7.2940   -1.2442   -1.8570 C.ar    1  UNL1       -0.0357
     27 C           6.1841   -0.9316   -1.1104 C.ar    1  UNL1        0.0665
     28 N           4.9015   -0.6135   -1.3945 N.ar    1  UNL1       -0.3378
     29 C           2.0525    0.1145   -1.3780 C.ar    1  UNL1        0.0403
     30 N           0.7741    0.4398   -1.4019 N.ar    1  UNL1       -0.2396
     31 C          -2.0061    1.2311    0.8589 C.3     1  UNL1        0.0161
     32 C          -3.3655    1.8228    0.5564 C.3     1  UNL1       -0.0079
     33 C          -4.9531   -0.0239    0.1039 C.3     1  UNL1       -0.0182
     34 H          -8.7262   -2.7944    0.8637 H       1  UNL1        0.2951
     35 H          -8.1847    0.6936    1.0869 H       1  UNL1        0.0381
     36 H          -6.7516    0.6317    2.1487 H       1  UNL1        0.0381
     37 H          -6.8583    0.0070   -0.8793 H       1  UNL1        0.0329
     38 H          -7.0677    2.3395   -0.6774 H       1  UNL1        0.0563
     39 H          -6.0234    2.4586    0.7670 H       1  UNL1        0.0563
     40 H          -3.2700   -0.5584   -1.5492 H       1  UNL1        0.0308
     41 H          -3.7503    0.8123   -2.5934 H       1  UNL1        0.0308
     42 H          -1.9303    2.1826   -1.9128 H       1  UNL1        0.0465
     43 H          -1.3469    0.5892   -2.4295 H       1  UNL1        0.0465
     44 H           0.2097    0.7106    1.8483 H       1  UNL1        0.0652
     45 H           2.6361    0.0945    1.9173 H       1  UNL1        0.0626
     46 H           7.6032   -1.1819    1.9568 H       1  UNL1        0.0645
     47 H           9.3644   -1.7737   -1.8090 H       1  UNL1        0.0624
     48 H           7.1991   -1.2598   -2.9299 H       1  UNL1        0.0639
     49 H           4.5712   -0.5662   -2.3946 H       1  UNL1        0.1674
     50 H           2.6026   -0.0626   -2.3174 H       1  UNL1        0.0837
     51 H          -1.4628    1.9814    1.4667 H       1  UNL1        0.0465
     52 H          -2.1243    0.3331    1.4857 H       1  UNL1        0.0465
     53 H          -3.2130    2.8951    0.3268 H       1  UNL1        0.0308
     54 H          -3.9428    1.7643    1.5084 H       1  UNL1        0.0308
     55 H          -4.7902   -0.9665   -0.4277 H       1  UNL1        0.0296
     56 H          -4.6243   -0.1408    1.1581 H       1  UNL1        0.0296
@<TRIPOS>BOND
     1     1     2    2
     2     2     3    1
     3     2     4    1
     4     4     5    1
     5     5     6    1
     6     6     7    1
     7     7     8    1
     8     8     9    1
     9     9    10    1
    10    10    11    1
    11    11    12    1
    12    12    13   ar
    13    13    14   ar
    14    14    15   ar
    15    15    16    1
    16    16    17   ar
    17    17    18   ar
    18    18    19   ar
    19    19    20   ar
    20    20    21    1
    21    21    22    1
    22    21    23    1
    23    21    24    1
    24    20    25   ar
    25    25    26   ar
    26    26    27   ar
    27    27    28   ar
    28    15    29   ar
    29    29    30   ar
    30    11    31    1
    31    31    32    1
    32     8    33    1
    33    33     5    1
    34    32     8    1
    35    30    12   ar
    36    28    16   ar
    37    27    18   ar
    38     3    34    1
    39     4    35    1
    40     4    36    1
    41     5    37    1
    42     6    38    1
    43     6    39    1
    44     9    40    1
    45     9    41    1
    46    10    42    1
    47    10    43    1
    48    13    44    1
    49    14    45    1
    50    19    46    1
    51    25    47    1
    52    26    48    1
    53    28    49    1
    54    29    50    1
    55    31    51    1
    56    31    52    1
    57    32    53    1
    58    32    54    1
    59    33    55    1
    60    33    56    1
