
     RDKit          3D

 51 55  0  0  0  0  0  0  0  0999 V2000
    4.9491   -0.4293    2.4064 O   0  0  0  0  0  0  0  0  0  0  0  0
    5.8549   -0.4845    1.5607 C   0  0  0  0  0  0  0  0  0  0  0  0
    7.2019   -0.9077    1.8742 N   0  0  0  0  0  0  0  0  0  0  0  0
    7.9702   -0.7573    0.6932 C   0  0  0  0  0  0  0  0  0  0  0  0
    7.0493   -0.3861   -0.4031 C   0  0  0  0  0  0  0  0  0  0  0  0
    7.3124   -0.2425   -1.7764 C   0  0  0  0  0  0  0  0  0  0  0  0
    6.2973    0.1282   -2.6123 C   0  0  0  0  0  0  0  0  0  0  0  0
    5.0756    0.3432   -2.0716 C   0  0  0  0  0  0  0  0  0  0  0  0
    4.7882    0.2057   -0.6890 C   0  0  0  0  0  0  0  0  0  0  0  0
    3.4065    0.4475   -0.2796 C   0  0  0  0  0  0  0  0  0  0  0  0
    2.3024    0.2350   -1.1504 C   0  0  0  0  0  0  0  0  0  0  0  0
    1.1205    0.4658   -0.5059 C   0  0  0  0  0  0  0  0  0  0  0  0
   -0.2258    0.4050   -0.8817 C   0  0  0  0  0  0  0  0  0  0  0  0
   -1.2303    0.7017    0.0130 C   0  0  0  0  0  0  0  0  0  0  0  0
   -2.5758    0.6505   -0.3293 O   0  0  0  0  0  0  0  0  0  0  0  0
   -3.5639    0.9613    0.6148 C   0  0  0  0  0  0  0  0  0  0  0  0
   -4.9320    0.8417    0.0352 C   0  0  0  0  0  0  0  0  0  0  0  0
   -5.2312   -0.4861   -0.4469 N   0  0  0  0  0  0  0  0  0  0  0  0
   -5.3430   -1.4620    0.5923 C   0  0  0  0  0  0  0  0  0  0  0  0
   -6.7084   -1.5484    1.2106 C   0  0  0  0  0  0  0  0  0  0  0  0
   -7.6559   -0.7792    0.5506 O   0  0  0  0  0  0  0  0  0  0  0  0
   -7.6001   -1.0554   -0.8088 C   0  0  0  0  0  0  0  0  0  0  0  0
   -6.3461   -0.4623   -1.3550 C   0  0  0  0  0  0  0  0  0  0  0  0
   -0.8571    1.0602    1.2902 C   0  0  0  0  0  0  0  0  0  0  0  0
    0.4790    1.1233    1.6722 C   0  0  0  0  0  0  0  0  0  0  0  0
    1.4689    0.8245    0.7689 C   0  0  0  0  0  0  0  0  0  0  0  0
    2.8407    0.8020    0.8598 N   0  0  0  0  0  0  0  0  0  0  0  0
    5.7949   -0.1671    0.1455 C   0  0  0  0  0  0  0  0  0  0  0  0
    7.4855   -1.2522    2.8257 H   0  0  0  0  0  0  0  0  0  0  0  0
    8.5248   -1.6918    0.4075 H   0  0  0  0  0  0  0  0  0  0  0  0
    8.7620    0.0251    0.7734 H   0  0  0  0  0  0  0  0  0  0  0  0
    8.2940   -0.4214   -2.1585 H   0  0  0  0  0  0  0  0  0  0  0  0
    6.4137    0.2594   -3.6813 H   0  0  0  0  0  0  0  0  0  0  0  0
    4.2286    0.6460   -2.6933 H   0  0  0  0  0  0  0  0  0  0  0  0
    2.4101   -0.0673   -2.1716 H   0  0  0  0  0  0  0  0  0  0  0  0
   -0.4545    0.1175   -1.8974 H   0  0  0  0  0  0  0  0  0  0  0  0
   -3.4166    2.0511    0.8700 H   0  0  0  0  0  0  0  0  0  0  0  0
   -3.4425    0.4288    1.5797 H   0  0  0  0  0  0  0  0  0  0  0  0
   -5.6948    1.2015    0.7565 H   0  0  0  0  0  0  0  0  0  0  0  0
   -4.9925    1.5257   -0.8375 H   0  0  0  0  0  0  0  0  0  0  0  0
   -5.0377   -2.4499    0.1736 H   0  0  0  0  0  0  0  0  0  0  0  0
   -4.6206   -1.2261    1.4003 H   0  0  0  0  0  0  0  0  0  0  0  0
   -7.0581   -2.6012    1.2152 H   0  0  0  0  0  0  0  0  0  0  0  0
   -6.7181   -1.2176    2.2834 H   0  0  0  0  0  0  0  0  0  0  0  0
   -8.4680   -0.5596   -1.3325 H   0  0  0  0  0  0  0  0  0  0  0  0
   -7.6692   -2.1598   -0.9795 H   0  0  0  0  0  0  0  0  0  0  0  0
   -6.5362    0.5947   -1.6312 H   0  0  0  0  0  0  0  0  0  0  0  0
   -6.1011   -0.9864   -2.3234 H   0  0  0  0  0  0  0  0  0  0  0  0
   -1.6068    1.2992    2.0186 H   0  0  0  0  0  0  0  0  0  0  0  0
    0.7590    1.4082    2.6848 H   0  0  0  0  0  0  0  0  0  0  0  0
    3.2966    1.0883    1.7396 H   0  0  0  0  0  0  0  0  0  0  0  0
  1  2  2  0
  2  3  1  0
  3  4  1  0
  4  5  1  0
  5  6  2  0
  6  7  1  0
  7  8  2  0
  8  9  1  0
  9 10  1  0
 10 11  2  0
 11 12  1  0
 12 13  2  0
 13 14  1  0
 14 15  1  0
 15 16  1  0
 16 17  1  0
 17 18  1  0
 18 19  1  0
 19 20  1  0
 20 21  1  0
 21 22  1  0
 22 23  1  0
 14 24  2  0
 24 25  1  0
 25 26  2  0
 26 27  1  0
  9 28  2  0
 28  2  1  0
 28  5  1  0
 27 10  1  0
 26 12  1  0
 23 18  1  0
  3 29  1  0
  4 30  1  0
  4 31  1  0
  6 32  1  0
  7 33  1  0
  8 34  1  0
 11 35  1  0
 13 36  1  0
 16 37  1  0
 16 38  1  0
 17 39  1  0
 17 40  1  0
 19 41  1  0
 19 42  1  0
 20 43  1  0
 20 44  1  0
 22 45  1  0
 22 46  1  0
 23 47  1  0
 23 48  1  0
 24 49  1  0
 25 50  1  0
 27 51  1  0
M  END
$$$$
