@<TRIPOS>MOLECULE
*****
 51 55 0 0 0
SMALL
GASTEIGER

@<TRIPOS>ATOM
      1 O           4.9491   -0.4293    2.4064 O.2     1  UNL1       -0.2702
      2 C           5.8549   -0.4845    1.5607 C.2     1  UNL1        0.2453
      3 N           7.2019   -0.9077    1.8742 N.am    1  UNL1       -0.3072
      4 C           7.9702   -0.7573    0.6932 C.3     1  UNL1        0.0379
      5 C           7.0493   -0.3861   -0.4031 C.ar    1  UNL1       -0.0176
      6 C           7.3124   -0.2425   -1.7764 C.ar    1  UNL1       -0.0563
      7 C           6.2973    0.1282   -2.6123 C.ar    1  UNL1       -0.0608
      8 C           5.0756    0.3432   -2.0716 C.ar    1  UNL1       -0.0519
      9 C           4.7882    0.2057   -0.6890 C.ar    1  UNL1        0.0107
     10 C           3.4065    0.4475   -0.2796 C.ar    1  UNL1        0.0482
     11 C           2.3024    0.2350   -1.1504 C.ar    1  UNL1       -0.0285
     12 C           1.1205    0.4658   -0.5059 C.ar    1  UNL1        0.0037
     13 C          -0.2258    0.4050   -0.8817 C.ar    1  UNL1       -0.0108
     14 C          -1.2303    0.7017    0.0130 C.ar    1  UNL1        0.1212
     15 O          -2.5758    0.6505   -0.3293 O.3     1  UNL1       -0.4907
     16 C          -3.5639    0.9613    0.6148 C.3     1  UNL1        0.1022
     17 C          -4.9320    0.8417    0.0352 C.3     1  UNL1        0.0333
     18 N          -5.2312   -0.4861   -0.4469 N.3     1  UNL1       -0.2948
     19 C          -5.3430   -1.4620    0.5923 C.3     1  UNL1        0.0225
     20 C          -6.7084   -1.5484    1.2106 C.3     1  UNL1        0.0604
     21 O          -7.6559   -0.7792    0.5506 O.3     1  UNL1       -0.3772
     22 C          -7.6001   -1.0554   -0.8088 C.3     1  UNL1        0.0604
     23 C          -6.3461   -0.4623   -1.3550 C.3     1  UNL1        0.0225
     24 C          -0.8571    1.0602    1.2902 C.ar    1  UNL1       -0.0180
     25 C           0.4790    1.1233    1.6722 C.ar    1  UNL1       -0.0343
     26 C           1.4689    0.8245    0.7689 C.ar    1  UNL1        0.0471
     27 N           2.8407    0.8020    0.8598 N.ar    1  UNL1       -0.3541
     28 C           5.7949   -0.1671    0.1455 C.ar    1  UNL1        0.0504
     29 H           7.4855   -1.2522    2.8257 H       1  UNL1        0.1493
     30 H           8.5248   -1.6918    0.4075 H       1  UNL1        0.0512
     31 H           8.7620    0.0251    0.7734 H       1  UNL1        0.0512
     32 H           8.2940   -0.4214   -2.1585 H       1  UNL1        0.0621
     33 H           6.4137    0.2594   -3.6813 H       1  UNL1        0.0618
     34 H           4.2286    0.6460   -2.6933 H       1  UNL1        0.0624
     35 H           2.4101   -0.0673   -2.1716 H       1  UNL1        0.0645
     36 H          -0.4545    0.1175   -1.8974 H       1  UNL1        0.0661
     37 H          -3.4166    2.0511    0.8700 H       1  UNL1        0.0709
     38 H          -3.4425    0.4288    1.5797 H       1  UNL1        0.0709
     39 H          -5.6948    1.2015    0.7565 H       1  UNL1        0.0460
     40 H          -4.9925    1.5257   -0.8375 H       1  UNL1        0.0460
     41 H          -5.0377   -2.4499    0.1736 H       1  UNL1        0.0449
     42 H          -4.6206   -1.2261    1.4003 H       1  UNL1        0.0449
     43 H          -7.0581   -2.6012    1.2152 H       1  UNL1        0.0572
     44 H          -6.7181   -1.2176    2.2834 H       1  UNL1        0.0572
     45 H          -8.4680   -0.5596   -1.3325 H       1  UNL1        0.0572
     46 H          -7.6692   -2.1598   -0.9795 H       1  UNL1        0.0572
     47 H          -6.5362    0.5947   -1.6312 H       1  UNL1        0.0449
     48 H          -6.1011   -0.9864   -2.3234 H       1  UNL1        0.0449
     49 H          -1.6068    1.2992    2.0186 H       1  UNL1        0.0655
     50 H           0.7590    1.4082    2.6848 H       1  UNL1        0.0639
     51 H           3.2966    1.0883    1.7396 H       1  UNL1        0.1659
@<TRIPOS>BOND
     1     1     2    2
     2     2     3   am
     3     3     4    1
     4     4     5    1
     5     5     6   ar
     6     6     7   ar
     7     7     8   ar
     8     8     9   ar
     9     9    10    1
    10    10    11   ar
    11    11    12   ar
    12    12    13   ar
    13    13    14   ar
    14    14    15    1
    15    15    16    1
    16    16    17    1
    17    17    18    1
    18    18    19    1
    19    19    20    1
    20    20    21    1
    21    21    22    1
    22    22    23    1
    23    14    24   ar
    24    24    25   ar
    25    25    26   ar
    26    26    27   ar
    27     9    28   ar
    28    28     2    1
    29    28     5   ar
    30    27    10   ar
    31    26    12   ar
    32    23    18    1
    33     3    29    1
    34     4    30    1
    35     4    31    1
    36     6    32    1
    37     7    33    1
    38     8    34    1
    39    11    35    1
    40    13    36    1
    41    16    37    1
    42    16    38    1
    43    17    39    1
    44    17    40    1
    45    19    41    1
    46    19    42    1
    47    20    43    1
    48    20    44    1
    49    22    45    1
    50    22    46    1
    51    23    47    1
    52    23    48    1
    53    24    49    1
    54    25    50    1
    55    27    51    1
