@<TRIPOS>MOLECULE
*****
 52 53 0 0 0
SMALL
GASTEIGER

@<TRIPOS>ATOM
      1 C           9.4018    0.4830    1.4779 C.2     1  UNL1       -0.0938
      2 C           8.7113    0.1239    0.4186 C.2     1  UNL1       -0.0066
      3 C           7.2560    0.3384    0.3262 C.2     1  UNL1        0.2405
      4 O           6.6806    0.8769    1.2890 O.2     1  UNL1       -0.2705
      5 N           6.5166   -0.0493   -0.8152 N.am    1  UNL1       -0.2819
      6 C           5.1446    0.0911   -1.0387 C.ar    1  UNL1        0.0365
      7 C           4.6449   -0.3761   -2.2628 C.ar    1  UNL1       -0.0384
      8 C           3.2849   -0.2642   -2.5432 C.ar    1  UNL1       -0.0308
      9 C           2.4101    0.2987   -1.6406 C.ar    1  UNL1        0.1406
     10 S           0.7318    0.3789   -2.0277 S.O2    1  UNL1        0.0637
     11 O           0.2842    1.8247   -1.7870 O.2     1  UNL1       -0.1528
     12 O           0.4804    0.1586   -3.5023 O.2     1  UNL1       -0.1528
     13 N          -0.1764   -0.6229   -1.0456 N.3     1  UNL1       -0.1735
     14 C          -0.2345   -0.4529    0.3279 C.3     1  UNL1        0.0365
     15 C          -1.3394   -1.3529    0.9009 C.3     1  UNL1        0.0323
     16 N          -2.5619   -0.9687    0.2331 N.am    1  UNL1       -0.2649
     17 C          -3.6515   -0.4564    0.9802 C.2     1  UNL1        0.4034
     18 O          -3.5958   -0.3194    2.2335 O.2     1  UNL1       -0.2262
     19 O          -4.8491   -0.0735    0.3767 O.3     1  UNL1       -0.4445
     20 C          -5.9001    0.4261    1.1412 C.3     1  UNL1        0.1068
     21 C          -7.0469    0.7439    0.1767 C.3     1  UNL1       -0.0253
     22 C          -5.5653    1.7213    1.8428 C.3     1  UNL1       -0.0253
     23 C          -6.3520   -0.6211    2.1227 C.3     1  UNL1       -0.0253
     24 C          -2.5713   -1.1467   -1.2044 C.3     1  UNL1        0.0323
     25 C          -1.1684   -1.4162   -1.6977 C.3     1  UNL1        0.0365
     26 C           2.9140    0.7425   -0.4690 C.ar    1  UNL1        0.1514
     27 F           2.1223    1.3294    0.4458 F       1  UNL1       -0.2034
     28 C           4.2853    0.6445   -0.1524 C.ar    1  UNL1       -0.0032
     29 H           8.8726    0.9530    2.3077 H       1  UNL1        0.0536
     30 H          10.4632    0.3063    1.5006 H       1  UNL1        0.0536
     31 H           9.1984   -0.3399   -0.4139 H       1  UNL1        0.0663
     32 H           7.1057   -0.4993   -1.5777 H       1  UNL1        0.1551
     33 H           5.3245   -0.8186   -2.9754 H       1  UNL1        0.0637
     34 H           2.9223   -0.6281   -3.4863 H       1  UNL1        0.0638
     35 H           0.6943   -0.8516    0.8159 H       1  UNL1        0.0459
     36 H          -0.3885    0.5736    0.7175 H       1  UNL1        0.0459
     37 H          -1.0712   -2.4115    0.7163 H       1  UNL1        0.0479
     38 H          -1.3753   -1.1419    1.9936 H       1  UNL1        0.0479
     39 H          -6.7118    1.5294   -0.5193 H       1  UNL1        0.0268
     40 H          -7.9553    1.0713    0.7193 H       1  UNL1        0.0268
     41 H          -7.3085   -0.1447   -0.4334 H       1  UNL1        0.0268
     42 H          -6.5251    2.1962    2.1454 H       1  UNL1        0.0268
     43 H          -4.9677    1.5734    2.7479 H       1  UNL1        0.0268
     44 H          -5.0997    2.4039    1.1048 H       1  UNL1        0.0268
     45 H          -5.7108   -1.5254    2.1275 H       1  UNL1        0.0268
     46 H          -7.3897   -0.9916    1.9035 H       1  UNL1        0.0268
     47 H          -6.3252   -0.2044    3.1567 H       1  UNL1        0.0268
     48 H          -2.9429   -0.2257   -1.6933 H       1  UNL1        0.0479
     49 H          -3.1968   -2.0404   -1.4729 H       1  UNL1        0.0479
     50 H          -1.1278   -1.2593   -2.7832 H       1  UNL1        0.0459
     51 H          -0.9465   -2.4838   -1.5006 H       1  UNL1        0.0459
     52 H           4.6057    1.0166    0.7927 H       1  UNL1        0.0665
@<TRIPOS>BOND
     1     1     2    2
     2     2     3    1
     3     3     4    2
     4     3     5   am
     5     5     6    1
     6     6     7   ar
     7     7     8   ar
     8     8     9   ar
     9     9    10    1
    10    10    11    2
    11    10    12    2
    12    10    13    1
    13    13    14    1
    14    14    15    1
    15    15    16    1
    16    16    17   am
    17    17    18    2
    18    17    19    1
    19    19    20    1
    20    20    21    1
    21    20    22    1
    22    20    23    1
    23    16    24    1
    24    24    25    1
    25     9    26   ar
    26    26    27    1
    27    26    28   ar
    28    28     6   ar
    29    25    13    1
    30     1    29    1
    31     1    30    1
    32     2    31    1
    33     5    32    1
    34     7    33    1
    35     8    34    1
    36    14    35    1
    37    14    36    1
    38    15    37    1
    39    15    38    1
    40    21    39    1
    41    21    40    1
    42    21    41    1
    43    22    42    1
    44    22    43    1
    45    22    44    1
    46    23    45    1
    47    23    46    1
    48    23    47    1
    49    24    48    1
    50    24    49    1
    51    25    50    1
    52    25    51    1
    53    28    52    1
