@<TRIPOS>MOLECULE
*****
 66 70 0 0 0
SMALL
GASTEIGER

@<TRIPOS>ATOM
      1 C          -6.1185   -3.8412    1.0542 C.3     1  UNL1       -0.0386
      2 C          -4.7003   -3.4554    0.7060 C.ar    1  UNL1       -0.0350
      3 C          -3.7518   -4.4126    0.4133 C.ar    1  UNL1       -0.0570
      4 C          -2.4470   -3.9898    0.1117 C.ar    1  UNL1       -0.0493
      5 C          -2.1306   -2.6593    0.1116 C.ar    1  UNL1        0.0382
      6 C          -0.8134   -2.1961   -0.2638 C.2     1  UNL1        0.2483
      7 O          -0.1799   -2.8852   -1.1100 O.2     1  UNL1       -0.2699
      8 N          -0.1855   -1.0307    0.2524 N.am    1  UNL1       -0.2815
      9 C           1.1379   -0.6527   -0.2077 C.ar    1  UNL1        0.0342
     10 C           1.2646    0.2498   -1.2265 C.ar    1  UNL1       -0.0401
     11 C           2.4838    0.6283   -1.7081 C.ar    1  UNL1       -0.0551
     12 C           3.6481    0.0653   -1.1299 C.ar    1  UNL1       -0.0216
     13 C           4.9481    0.6047   -1.5956 C.3     1  UNL1        0.0247
     14 N           5.3003    1.8858   -1.1235 N.3     1  UNL1       -0.2957
     15 C           5.2336    2.1361    0.2473 C.3     1  UNL1        0.0120
     16 C           6.5864    2.1902    0.9331 C.3     1  UNL1        0.0114
     17 N           7.6241    1.5620    0.2260 N.3     1  UNL1       -0.3029
     18 C           8.4783    0.6627    0.8995 C.3     1  UNL1       -0.0127
     19 C           7.6572    1.5928   -1.1776 C.3     1  UNL1        0.0114
     20 C           6.5053    2.3570   -1.7631 C.3     1  UNL1        0.0120
     21 C           3.5678   -0.8428   -0.1126 C.ar    1  UNL1        0.0609
     22 C           4.7427   -1.5579    0.4600 C.3     1  UNL1        0.4178
     23 F           5.4123   -2.2742   -0.5297 F       1  UNL1       -0.1659
     24 F           4.2499   -2.5504    1.3486 F       1  UNL1       -0.1659
     25 F           5.5280   -0.7708    1.2158 F       1  UNL1       -0.1659
     26 C           2.2807   -1.1828    0.3320 C.ar    1  UNL1       -0.0285
     27 C          -3.1041   -1.7374    0.4097 C.ar    1  UNL1       -0.0339
     28 C          -4.4224   -2.1018    0.7150 C.ar    1  UNL1        0.0289
     29 C          -5.4220   -1.1050    0.9685 C.1     1  UNL1       -0.0592
     30 C          -6.2870   -0.2668    1.1972 C.1     1  UNL1       -0.0395
     31 C          -7.2853    0.7344    1.4702 C.ar    1  UNL1        0.1356
     32 C          -7.7927    1.1587    2.6756 C.ar    1  UNL1        0.0639
     33 N          -8.7223    2.1368    2.4583 N.ar    1  UNL1       -0.2334
     34 C          -8.7983    2.3253    1.1403 C.ar    1  UNL1        0.1554
     35 C          -9.6009    3.2129    0.4136 C.ar    1  UNL1       -0.0159
     36 C          -9.4756    3.1955   -0.9572 C.ar    1  UNL1       -0.0384
     37 C          -8.5799    2.3184   -1.5295 C.ar    1  UNL1        0.0485
     38 N          -7.8352    1.4881   -0.7808 N.ar    1  UNL1       -0.1723
     39 N          -7.9394    1.4867    0.5460 N.ar    1  UNL1       -0.2049
     40 H          -6.3592   -4.7810    0.5611 H       1  UNL1        0.0278
     41 H          -6.8299   -3.0573    0.6549 H       1  UNL1        0.0278
     42 H          -6.1909   -3.9100    2.1586 H       1  UNL1        0.0278
     43 H          -3.9971   -5.4590    0.4152 H       1  UNL1        0.0621
     44 H          -1.7205   -4.7637   -0.1167 H       1  UNL1        0.0625
     45 H          -0.7126   -0.4747    0.9603 H       1  UNL1        0.1551
     46 H           0.3682    0.6999   -1.6902 H       1  UNL1        0.0636
     47 H           2.5867    1.3498   -2.5163 H       1  UNL1        0.0621
     48 H           4.9638    0.5851   -2.7317 H       1  UNL1        0.0476
     49 H           5.7349   -0.1754   -1.3359 H       1  UNL1        0.0476
     50 H           4.8180    3.2041    0.3521 H       1  UNL1        0.0439
     51 H           4.4791    1.5481    0.8097 H       1  UNL1        0.0439
     52 H           6.4598    1.6476    1.9137 H       1  UNL1        0.0439
     53 H           6.7889    3.2368    1.2404 H       1  UNL1        0.0439
     54 H           9.5048    0.7575    0.4393 H       1  UNL1        0.0391
     55 H           8.6001    0.9932    1.9610 H       1  UNL1        0.0391
     56 H           8.1628   -0.3995    0.8295 H       1  UNL1        0.0391
     57 H           8.5985    2.1208   -1.5134 H       1  UNL1        0.0439
     58 H           7.6859    0.5679   -1.6231 H       1  UNL1        0.0439
     59 H           6.6492    3.4435   -1.6422 H       1  UNL1        0.0439
     60 H           6.4407    2.0664   -2.8409 H       1  UNL1        0.0439
     61 H           2.2202   -1.8936    1.1388 H       1  UNL1        0.0642
     62 H          -2.9255   -0.6540    0.4316 H       1  UNL1        0.0637
     63 H          -7.4903    0.7633    3.6426 H       1  UNL1        0.0859
     64 H         -10.2893    3.8854    0.8906 H       1  UNL1        0.0655
     65 H         -10.0801    3.8707   -1.5895 H       1  UNL1        0.0634
     66 H          -8.5231    2.3495   -2.6263 H       1  UNL1        0.0847
@<TRIPOS>BOND
     1     1     2    1
     2     2     3   ar
     3     3     4   ar
     4     4     5   ar
     5     5     6    1
     6     6     7    2
     7     6     8   am
     8     8     9    1
     9     9    10   ar
    10    10    11   ar
    11    11    12   ar
    12    12    13    1
    13    13    14    1
    14    14    15    1
    15    15    16    1
    16    16    17    1
    17    17    18    1
    18    17    19    1
    19    19    20    1
    20    12    21   ar
    21    21    22    1
    22    22    23    1
    23    22    24    1
    24    22    25    1
    25    21    26   ar
    26     5    27   ar
    27    27    28   ar
    28    28    29    1
    29    29    30    3
    30    30    31    1
    31    31    32   ar
    32    32    33   ar
    33    33    34   ar
    34    34    35   ar
    35    35    36   ar
    36    36    37   ar
    37    37    38   ar
    38    38    39   ar
    39    28     2   ar
    40    39    31   ar
    41    26     9   ar
    42    39    34   ar
    43    20    14    1
    44     1    40    1
    45     1    41    1
    46     1    42    1
    47     3    43    1
    48     4    44    1
    49     8    45    1
    50    10    46    1
    51    11    47    1
    52    13    48    1
    53    13    49    1
    54    15    50    1
    55    15    51    1
    56    16    52    1
    57    16    53    1
    58    18    54    1
    59    18    55    1
    60    18    56    1
    61    19    57    1
    62    19    58    1
    63    20    59    1
    64    20    60    1
    65    26    61    1
    66    27    62    1
    67    32    63    1
    68    35    64    1
    69    36    65    1
    70    37    66    1
