
     RDKit          3D

 66 70  0  0  0  0  0  0  0  0999 V2000
   -6.1185   -3.8412    1.0542 C   0  0  0  0  0  0  0  0  0  0  0  0
   -4.7003   -3.4554    0.7060 C   0  0  0  0  0  0  0  0  0  0  0  0
   -3.7518   -4.4126    0.4133 C   0  0  0  0  0  0  0  0  0  0  0  0
   -2.4470   -3.9898    0.1117 C   0  0  0  0  0  0  0  0  0  0  0  0
   -2.1306   -2.6593    0.1116 C   0  0  0  0  0  0  0  0  0  0  0  0
   -0.8134   -2.1961   -0.2638 C   0  0  0  0  0  0  0  0  0  0  0  0
   -0.1799   -2.8852   -1.1100 O   0  0  0  0  0  0  0  0  0  0  0  0
   -0.1855   -1.0307    0.2524 N   0  0  0  0  0  0  0  0  0  0  0  0
    1.1379   -0.6527   -0.2077 C   0  0  0  0  0  0  0  0  0  0  0  0
    1.2646    0.2498   -1.2265 C   0  0  0  0  0  0  0  0  0  0  0  0
    2.4838    0.6283   -1.7081 C   0  0  0  0  0  0  0  0  0  0  0  0
    3.6481    0.0653   -1.1299 C   0  0  0  0  0  0  0  0  0  0  0  0
    4.9481    0.6047   -1.5956 C   0  0  0  0  0  0  0  0  0  0  0  0
    5.3003    1.8858   -1.1235 N   0  0  0  0  0  0  0  0  0  0  0  0
    5.2336    2.1361    0.2473 C   0  0  0  0  0  0  0  0  0  0  0  0
    6.5864    2.1902    0.9331 C   0  0  0  0  0  0  0  0  0  0  0  0
    7.6241    1.5620    0.2260 N   0  0  0  0  0  0  0  0  0  0  0  0
    8.4783    0.6627    0.8995 C   0  0  0  0  0  0  0  0  0  0  0  0
    7.6572    1.5928   -1.1776 C   0  0  0  0  0  0  0  0  0  0  0  0
    6.5053    2.3570   -1.7631 C   0  0  0  0  0  0  0  0  0  0  0  0
    3.5678   -0.8428   -0.1126 C   0  0  0  0  0  0  0  0  0  0  0  0
    4.7427   -1.5579    0.4600 C   0  0  0  0  0  0  0  0  0  0  0  0
    5.4123   -2.2742   -0.5297 F   0  0  0  0  0  0  0  0  0  0  0  0
    4.2499   -2.5504    1.3486 F   0  0  0  0  0  0  0  0  0  0  0  0
    5.5280   -0.7708    1.2158 F   0  0  0  0  0  0  0  0  0  0  0  0
    2.2807   -1.1828    0.3320 C   0  0  0  0  0  0  0  0  0  0  0  0
   -3.1041   -1.7374    0.4097 C   0  0  0  0  0  0  0  0  0  0  0  0
   -4.4224   -2.1018    0.7150 C   0  0  0  0  0  0  0  0  0  0  0  0
   -5.4220   -1.1050    0.9685 C   0  0  0  0  0  0  0  0  0  0  0  0
   -6.2870   -0.2668    1.1972 C   0  0  0  0  0  0  0  0  0  0  0  0
   -7.2853    0.7344    1.4702 C   0  0  0  0  0  0  0  0  0  0  0  0
   -7.7927    1.1587    2.6756 C   0  0  0  0  0  0  0  0  0  0  0  0
   -8.7223    2.1368    2.4583 N   0  0  0  0  0  0  0  0  0  0  0  0
   -8.7983    2.3253    1.1403 C   0  0  0  0  0  0  0  0  0  0  0  0
   -9.6009    3.2129    0.4136 C   0  0  0  0  0  0  0  0  0  0  0  0
   -9.4756    3.1955   -0.9572 C   0  0  0  0  0  0  0  0  0  0  0  0
   -8.5799    2.3184   -1.5295 C   0  0  0  0  0  0  0  0  0  0  0  0
   -7.8352    1.4881   -0.7808 N   0  0  0  0  0  0  0  0  0  0  0  0
   -7.9394    1.4867    0.5460 N   0  0  0  0  0  0  0  0  0  0  0  0
   -6.3592   -4.7810    0.5611 H   0  0  0  0  0  0  0  0  0  0  0  0
   -6.8299   -3.0573    0.6549 H   0  0  0  0  0  0  0  0  0  0  0  0
   -6.1909   -3.9100    2.1586 H   0  0  0  0  0  0  0  0  0  0  0  0
   -3.9971   -5.4590    0.4152 H   0  0  0  0  0  0  0  0  0  0  0  0
   -1.7205   -4.7637   -0.1167 H   0  0  0  0  0  0  0  0  0  0  0  0
   -0.7126   -0.4747    0.9603 H   0  0  0  0  0  0  0  0  0  0  0  0
    0.3682    0.6999   -1.6902 H   0  0  0  0  0  0  0  0  0  0  0  0
    2.5867    1.3498   -2.5163 H   0  0  0  0  0  0  0  0  0  0  0  0
    4.9638    0.5851   -2.7317 H   0  0  0  0  0  0  0  0  0  0  0  0
    5.7349   -0.1754   -1.3359 H   0  0  0  0  0  0  0  0  0  0  0  0
    4.8180    3.2041    0.3521 H   0  0  0  0  0  0  0  0  0  0  0  0
    4.4791    1.5481    0.8097 H   0  0  0  0  0  0  0  0  0  0  0  0
    6.4598    1.6476    1.9137 H   0  0  0  0  0  0  0  0  0  0  0  0
    6.7889    3.2368    1.2404 H   0  0  0  0  0  0  0  0  0  0  0  0
    9.5048    0.7575    0.4393 H   0  0  0  0  0  0  0  0  0  0  0  0
    8.6001    0.9932    1.9610 H   0  0  0  0  0  0  0  0  0  0  0  0
    8.1628   -0.3995    0.8295 H   0  0  0  0  0  0  0  0  0  0  0  0
    8.5985    2.1208   -1.5134 H   0  0  0  0  0  0  0  0  0  0  0  0
    7.6859    0.5679   -1.6231 H   0  0  0  0  0  0  0  0  0  0  0  0
    6.6492    3.4435   -1.6422 H   0  0  0  0  0  0  0  0  0  0  0  0
    6.4407    2.0664   -2.8409 H   0  0  0  0  0  0  0  0  0  0  0  0
    2.2202   -1.8936    1.1388 H   0  0  0  0  0  0  0  0  0  0  0  0
   -2.9255   -0.6540    0.4316 H   0  0  0  0  0  0  0  0  0  0  0  0
   -7.4903    0.7633    3.6426 H   0  0  0  0  0  0  0  0  0  0  0  0
  -10.2893    3.8854    0.8906 H   0  0  0  0  0  0  0  0  0  0  0  0
  -10.0801    3.8707   -1.5895 H   0  0  0  0  0  0  0  0  0  0  0  0
   -8.5231    2.3495   -2.6263 H   0  0  0  0  0  0  0  0  0  0  0  0
  1  2  1  0
  2  3  2  0
  3  4  1  0
  4  5  2  0
  5  6  1  0
  6  7  2  0
  6  8  1  0
  8  9  1  0
  9 10  2  0
 10 11  1  0
 11 12  2  0
 12 13  1  0
 13 14  1  0
 14 15  1  0
 15 16  1  0
 16 17  1  0
 17 18  1  0
 17 19  1  0
 19 20  1  0
 12 21  1  0
 21 22  1  0
 22 23  1  0
 22 24  1  0
 22 25  1  0
 21 26  2  0
  5 27  1  0
 27 28  2  0
 28 29  1  0
 29 30  3  0
 30 31  1  0
 31 32  2  0
 32 33  1  0
 33 34  2  0
 34 35  1  0
 35 36  2  0
 36 37  1  0
 37 38  2  0
 38 39  1  0
 28  2  1  0
 39 31  1  0
 26  9  1  0
 39 34  1  0
 20 14  1  0
  1 40  1  0
  1 41  1  0
  1 42  1  0
  3 43  1  0
  4 44  1  0
  8 45  1  0
 10 46  1  0
 11 47  1  0
 13 48  1  0
 13 49  1  0
 15 50  1  0
 15 51  1  0
 16 52  1  0
 16 53  1  0
 18 54  1  0
 18 55  1  0
 18 56  1  0
 19 57  1  0
 19 58  1  0
 20 59  1  0
 20 60  1  0
 26 61  1  0
 27 62  1  0
 32 63  1  0
 35 64  1  0
 36 65  1  0
 37 66  1  0
M  END
$$$$
