
     RDKit          3D

 57 60  0  0  0  0  0  0  0  0999 V2000
   -4.4834    1.8033   -1.5375 C   0  0  0  0  0  0  0  0  0  0  0  0
   -4.9694    0.6550   -0.6542 C   0  0  0  0  0  0  0  0  0  0  0  0
   -5.3113    1.2448    0.6934 C   0  0  0  0  0  0  0  0  0  0  0  0
   -6.2291    0.1090   -1.2686 C   0  0  0  0  0  0  0  0  0  0  0  0
   -3.9029   -0.3652   -0.5726 C   0  0  0  0  0  0  0  0  0  0  0  0
   -3.9039   -1.3631   -1.5219 C   0  0  0  0  0  0  0  0  0  0  0  0
   -2.9172   -2.3207   -1.4600 C   0  0  0  0  0  0  0  0  0  0  0  0
   -1.9276   -2.3351   -0.4991 C   0  0  0  0  0  0  0  0  0  0  0  0
   -1.9487   -1.3190    0.4457 C   0  0  0  0  0  0  0  0  0  0  0  0
   -2.9245   -0.3513    0.4044 C   0  0  0  0  0  0  0  0  0  0  0  0
   -0.8862   -1.3445    1.4680 C   0  0  0  0  0  0  0  0  0  0  0  0
   -0.8524   -0.4143    2.3880 C   0  0  0  0  0  0  0  0  0  0  0  0
    0.1453   -0.4063    3.3783 N   0  0  0  0  0  0  0  0  0  0  0  0
    1.1684    0.5928    3.4980 C   0  0  0  0  0  0  0  0  0  0  0  0
    2.0510    0.7387    2.3380 C   0  0  0  0  0  0  0  0  0  0  0  0
    3.2128   -0.0035    2.2972 C   0  0  0  0  0  0  0  0  0  0  0  0
    4.0744    0.1100    1.2123 C   0  0  0  0  0  0  0  0  0  0  0  0
    5.2292   -0.6556    1.2159 O   0  0  0  0  0  0  0  0  0  0  0  0
    3.8053    0.9539    0.1542 C   0  0  0  0  0  0  0  0  0  0  0  0
    4.7327    1.0471   -0.9670 C   0  0  0  0  0  0  0  0  0  0  0  0
    4.2299    1.0305   -2.2549 C   0  0  0  0  0  0  0  0  0  0  0  0
    5.0468    1.1154   -3.3740 C   0  0  0  0  0  0  0  0  0  0  0  0
    6.4094    1.2200   -3.1868 C   0  0  0  0  0  0  0  0  0  0  0  0
    6.9274    1.2379   -1.9071 C   0  0  0  0  0  0  0  0  0  0  0  0
    6.0880    1.1518   -0.8161 C   0  0  0  0  0  0  0  0  0  0  0  0
    2.6323    1.6770    0.2370 C   0  0  0  0  0  0  0  0  0  0  0  0
    1.7973    1.5609    1.2981 N   0  0  0  0  0  0  0  0  0  0  0  0
    0.1413   -2.3784    1.4971 C   0  0  0  0  0  0  0  0  0  0  0  0
    1.0348   -2.3785    2.3767 O   0  0  0  0  0  0  0  0  0  0  0  0
    0.1125   -3.3901    0.5071 N   0  0  0  0  0  0  0  0  0  0  0  0
   -0.8994   -3.3825   -0.4820 C   0  0  0  0  0  0  0  0  0  0  0  0
   -0.9635   -4.2589   -1.3781 O   0  0  0  0  0  0  0  0  0  0  0  0
   -3.6758    1.4087   -2.1895 H   0  0  0  0  0  0  0  0  0  0  0  0
   -5.3007    2.1401   -2.2042 H   0  0  0  0  0  0  0  0  0  0  0  0
   -4.1312    2.6345   -0.9126 H   0  0  0  0  0  0  0  0  0  0  0  0
   -5.5614    0.4963    1.4528 H   0  0  0  0  0  0  0  0  0  0  0  0
   -6.1758    1.9395    0.5119 H   0  0  0  0  0  0  0  0  0  0  0  0
   -4.4833    1.9113    1.0612 H   0  0  0  0  0  0  0  0  0  0  0  0
   -6.0904    0.1192   -2.3717 H   0  0  0  0  0  0  0  0  0  0  0  0
   -7.0999    0.7352   -0.9825 H   0  0  0  0  0  0  0  0  0  0  0  0
   -6.4614   -0.9235   -0.9328 H   0  0  0  0  0  0  0  0  0  0  0  0
   -4.6770   -1.3843   -2.3037 H   0  0  0  0  0  0  0  0  0  0  0  0
   -2.9108   -3.1137   -2.2072 H   0  0  0  0  0  0  0  0  0  0  0  0
   -2.9525    0.4293    1.1187 H   0  0  0  0  0  0  0  0  0  0  0  0
   -1.5765    0.3754    2.4280 H   0  0  0  0  0  0  0  0  0  0  0  0
    0.1470   -1.1712    4.0912 H   0  0  0  0  0  0  0  0  0  0  0  0
    0.6222    1.5771    3.6095 H   0  0  0  0  0  0  0  0  0  0  0  0
    1.7503    0.5022    4.4395 H   0  0  0  0  0  0  0  0  0  0  0  0
    3.4698   -0.6843    3.1090 H   0  0  0  0  0  0  0  0  0  0  0  0
    5.8468   -0.5649    2.0276 H   0  0  0  0  0  0  0  0  0  0  0  0
    3.1478    0.9477   -2.4239 H   0  0  0  0  0  0  0  0  0  0  0  0
    4.5758    1.0959   -4.3553 H   0  0  0  0  0  0  0  0  0  0  0  0
    7.0635    1.2873   -4.0502 H   0  0  0  0  0  0  0  0  0  0  0  0
    8.0070    1.3198   -1.7308 H   0  0  0  0  0  0  0  0  0  0  0  0
    6.5204    1.1681    0.1612 H   0  0  0  0  0  0  0  0  0  0  0  0
    2.4080    2.3448   -0.5883 H   0  0  0  0  0  0  0  0  0  0  0  0
    0.8187   -4.1715    0.4600 H   0  0  0  0  0  0  0  0  0  0  0  0
  1  2  1  0
  2  3  1  0
  2  4  1  0
  2  5  1  0
  5  6  2  0
  6  7  1  0
  7  8  2  0
  8  9  1  0
  9 10  2  0
  9 11  1  0
 11 12  2  3
 12 13  1  0
 13 14  1  0
 14 15  1  0
 15 16  2  0
 16 17  1  0
 17 18  1  0
 17 19  2  0
 19 20  1  0
 20 21  2  0
 21 22  1  0
 22 23  2  0
 23 24  1  0
 24 25  2  0
 19 26  1  0
 26 27  2  0
 11 28  1  0
 28 29  2  0
 28 30  1  0
 30 31  1  0
 31 32  2  0
 10  5  1  0
 27 15  1  0
 31  8  1  0
 25 20  1  0
  1 33  1  0
  1 34  1  0
  1 35  1  0
  3 36  1  0
  3 37  1  0
  3 38  1  0
  4 39  1  0
  4 40  1  0
  4 41  1  0
  6 42  1  0
  7 43  1  0
 10 44  1  0
 12 45  1  0
 13 46  1  0
 14 47  1  0
 14 48  1  0
 16 49  1  0
 18 50  1  0
 21 51  1  0
 22 52  1  0
 23 53  1  0
 24 54  1  0
 25 55  1  0
 26 56  1  0
 30 57  1  0
M  END
$$$$
