@<TRIPOS>MOLECULE
*****
 57 60 0 0 0
SMALL
GASTEIGER

@<TRIPOS>ATOM
      1 C          -4.4834    1.8033   -1.5375 C.3     1  UNL1       -0.0560
      2 C          -4.9694    0.6550   -0.6542 C.3     1  UNL1       -0.0127
      3 C          -5.3113    1.2448    0.6934 C.3     1  UNL1       -0.0560
      4 C          -6.2291    0.1090   -1.2686 C.3     1  UNL1       -0.0560
      5 C          -3.9029   -0.3652   -0.5726 C.ar    1  UNL1       -0.0414
      6 C          -3.9039   -1.3631   -1.5219 C.ar    1  UNL1       -0.0573
      7 C          -2.9172   -2.3207   -1.4600 C.ar    1  UNL1       -0.0488
      8 C          -1.9276   -2.3351   -0.4991 C.ar    1  UNL1        0.0450
      9 C          -1.9487   -1.3190    0.4457 C.ar    1  UNL1        0.0007
     10 C          -2.9245   -0.3513    0.4044 C.ar    1  UNL1       -0.0494
     11 C          -0.8862   -1.3445    1.4680 C.2     1  UNL1        0.0584
     12 C          -0.8524   -0.4143    2.3880 C.2     1  UNL1        0.0026
     13 N           0.1453   -0.4063    3.3783 N.pl3   1  UNL1       -0.3434
     14 C           1.1684    0.5928    3.4980 C.3     1  UNL1        0.0511
     15 C           2.0510    0.7387    2.3380 C.ar    1  UNL1        0.0617
     16 C           3.2128   -0.0035    2.2972 C.ar    1  UNL1        0.0033
     17 C           4.0744    0.1100    1.2123 C.ar    1  UNL1        0.1277
     18 O           5.2292   -0.6556    1.2159 O.3     1  UNL1       -0.5061
     19 C           3.8053    0.9539    0.1542 C.ar    1  UNL1        0.0416
     20 C           4.7327    1.0471   -0.9670 C.ar    1  UNL1       -0.0129
     21 C           4.2299    1.0305   -2.2549 C.ar    1  UNL1       -0.0539
     22 C           5.0468    1.1154   -3.3740 C.ar    1  UNL1       -0.0612
     23 C           6.4094    1.2200   -3.1868 C.ar    1  UNL1       -0.0617
     24 C           6.9274    1.2379   -1.9071 C.ar    1  UNL1       -0.0612
     25 C           6.0880    1.1518   -0.8161 C.ar    1  UNL1       -0.0539
     26 C           2.6323    1.6770    0.2370 C.ar    1  UNL1        0.0391
     27 N           1.7973    1.5609    1.2981 N.ar    1  UNL1       -0.2575
     28 C           0.1413   -2.3784    1.4971 C.2     1  UNL1        0.2523
     29 O           1.0348   -2.3785    2.3767 O.2     1  UNL1       -0.2697
     30 N           0.1125   -3.3901    0.5071 N.am    1  UNL1       -0.2483
     31 C          -0.8994   -3.3825   -0.4820 C.2     1  UNL1        0.2511
     32 O          -0.9635   -4.2589   -1.3781 O.2     1  UNL1       -0.2698
     33 H          -3.6758    1.4087   -2.1895 H       1  UNL1        0.0238
     34 H          -5.3007    2.1401   -2.2042 H       1  UNL1        0.0238
     35 H          -4.1312    2.6345   -0.9126 H       1  UNL1        0.0238
     36 H          -5.5614    0.4963    1.4528 H       1  UNL1        0.0238
     37 H          -6.1758    1.9395    0.5119 H       1  UNL1        0.0238
     38 H          -4.4833    1.9113    1.0612 H       1  UNL1        0.0238
     39 H          -6.0904    0.1192   -2.3717 H       1  UNL1        0.0238
     40 H          -7.0999    0.7352   -0.9825 H       1  UNL1        0.0238
     41 H          -6.4614   -0.9235   -0.9328 H       1  UNL1        0.0238
     42 H          -4.6770   -1.3843   -2.3037 H       1  UNL1        0.0621
     43 H          -2.9108   -3.1137   -2.2072 H       1  UNL1        0.0625
     44 H          -2.9525    0.4293    1.1187 H       1  UNL1        0.0627
     45 H          -1.5765    0.3754    2.4280 H       1  UNL1        0.0786
     46 H           0.1470   -1.1712    4.0912 H       1  UNL1        0.1459
     47 H           0.6222    1.5771    3.6095 H       1  UNL1        0.0526
     48 H           1.7503    0.5022    4.4395 H       1  UNL1        0.0526
     49 H           3.4698   -0.6843    3.1090 H       1  UNL1        0.0673
     50 H           5.8468   -0.5649    2.0276 H       1  UNL1        0.2922
     51 H           3.1478    0.9477   -2.4239 H       1  UNL1        0.0624
     52 H           4.5758    1.0959   -4.3553 H       1  UNL1        0.0618
     53 H           7.0635    1.2873   -4.0502 H       1  UNL1        0.0618
     54 H           8.0070    1.3198   -1.7308 H       1  UNL1        0.0618
     55 H           6.5204    1.1681    0.1612 H       1  UNL1        0.0624
     56 H           2.4080    2.3448   -0.5883 H       1  UNL1        0.0837
     57 H           0.8187   -4.1715    0.4600 H       1  UNL1        0.1581
@<TRIPOS>BOND
     1     1     2    1
     2     2     3    1
     3     2     4    1
     4     2     5    1
     5     5     6   ar
     6     6     7   ar
     7     7     8   ar
     8     8     9   ar
     9     9    10   ar
    10     9    11    1
    11    11    12    2
    12    12    13    1
    13    13    14    1
    14    14    15    1
    15    15    16   ar
    16    16    17   ar
    17    17    18    1
    18    17    19   ar
    19    19    20    1
    20    20    21   ar
    21    21    22   ar
    22    22    23   ar
    23    23    24   ar
    24    24    25   ar
    25    19    26   ar
    26    26    27   ar
    27    11    28    1
    28    28    29    2
    29    28    30   am
    30    30    31   am
    31    31    32    2
    32    10     5   ar
    33    27    15   ar
    34    31     8    1
    35    25    20   ar
    36     1    33    1
    37     1    34    1
    38     1    35    1
    39     3    36    1
    40     3    37    1
    41     3    38    1
    42     4    39    1
    43     4    40    1
    44     4    41    1
    45     6    42    1
    46     7    43    1
    47    10    44    1
    48    12    45    1
    49    13    46    1
    50    14    47    1
    51    14    48    1
    52    16    49    1
    53    18    50    1
    54    21    51    1
    55    22    52    1
    56    23    53    1
    57    24    54    1
    58    25    55    1
    59    26    56    1
    60    30    57    1
