@<TRIPOS>MOLECULE
*****
 65 68 0 0 0
SMALL
GASTEIGER

@<TRIPOS>ATOM
      1 C           8.7201    0.1147    0.5680 C.3     1  UNL1       -0.0223
      2 C           7.3709   -0.4942    0.5653 C.ar    1  UNL1        0.0391
      3 C           6.2240    0.1857    0.2334 C.ar    1  UNL1       -0.0329
      4 C           4.9766   -0.4004    0.2371 C.ar    1  UNL1       -0.0145
      5 C           3.7532    0.3284   -0.1175 C.ar    1  UNL1       -0.0178
      6 C           2.6924   -0.3210   -0.7123 C.ar    1  UNL1       -0.0537
      7 C           1.5397    0.3591   -1.0475 C.ar    1  UNL1       -0.0562
      8 C           1.3862    1.7110   -0.8089 C.ar    1  UNL1       -0.0271
      9 C           0.1163    2.3990   -1.1917 C.3     1  UNL1        0.0515
     10 C           0.1467    3.7902   -0.6081 C.3     1  UNL1       -0.0421
     11 N          -1.0399    1.6521   -0.8151 N.am    1  UNL1       -0.2605
     12 C          -1.9683    1.1875   -1.8082 C.3     1  UNL1        0.0224
     13 C          -3.3740    1.1716   -1.2443 C.3     1  UNL1        0.0075
     14 C          -3.5082    0.3163    0.0001 C.3     1  UNL1        0.1415
     15 C          -3.4805   -1.1192   -0.4799 C.3     1  UNL1       -0.0064
     16 C          -3.6093   -2.1513    0.5781 C.3     1  UNL1       -0.0258
     17 C          -3.5250   -3.5239   -0.1155 C.3     1  UNL1        0.0443
     18 O          -3.6394   -4.5405    0.8299 O.3     1  UNL1       -0.3950
     19 C          -4.8462    0.5753    0.5814 C.ar    1  UNL1       -0.0041
     20 C          -5.2000    0.1494    1.8492 C.ar    1  UNL1       -0.0548
     21 C          -6.4795    0.3955    2.3607 C.ar    1  UNL1       -0.0614
     22 C          -7.4253    1.0693    1.6193 C.ar    1  UNL1       -0.0617
     23 C          -7.0768    1.4932    0.3623 C.ar    1  UNL1       -0.0614
     24 C          -5.8118    1.2442   -0.1314 C.ar    1  UNL1       -0.0548
     25 O          -2.4728    0.6075    0.8870 O.3     1  UNL1       -0.4388
     26 C          -1.3201    1.3407    0.5399 C.2     1  UNL1        0.4042
     27 O          -0.5729    1.6931    1.4848 O.2     1  UNL1       -0.2262
     28 C           2.4494    2.3572   -0.2139 C.ar    1  UNL1       -0.0562
     29 C           3.6148    1.6784    0.1269 C.ar    1  UNL1       -0.0537
     30 C           4.9204   -1.7329    0.5966 C.ar    1  UNL1       -0.0329
     31 C           6.0798   -2.4248    0.9334 C.ar    1  UNL1        0.0391
     32 C           5.9970   -3.8559    1.3168 C.3     1  UNL1       -0.0223
     33 N           7.2620   -1.7900    0.9080 N.ar    1  UNL1       -0.2570
     34 H           9.3178   -0.4184   -0.2183 H       1  UNL1        0.0292
     35 H           9.2756   -0.0836    1.5226 H       1  UNL1        0.0292
     36 H           8.7124    1.1796    0.3055 H       1  UNL1        0.0292
     37 H           6.3245    1.2346   -0.0424 H       1  UNL1        0.0641
     38 H           2.7809   -1.3878   -0.9141 H       1  UNL1        0.0624
     39 H           0.6938   -0.1625   -1.5224 H       1  UNL1        0.0621
     40 H           0.1283    2.5180   -2.2884 H       1  UNL1        0.0549
     41 H           0.4140    3.7247    0.4659 H       1  UNL1        0.0251
     42 H          -0.8359    4.2955   -0.6577 H       1  UNL1        0.0251
     43 H           0.9450    4.3735   -1.1056 H       1  UNL1        0.0251
     44 H          -2.0208    1.8637   -2.6928 H       1  UNL1        0.0467
     45 H          -1.6504    0.1687   -2.1055 H       1  UNL1        0.0467
     46 H          -4.0201    0.7054   -2.0404 H       1  UNL1        0.0322
     47 H          -3.6538    2.2235   -1.0531 H       1  UNL1        0.0322
     48 H          -4.2780   -1.3032   -1.2362 H       1  UNL1        0.0308
     49 H          -2.5222   -1.3178   -1.0396 H       1  UNL1        0.0308
     50 H          -4.6576   -2.1611    0.9994 H       1  UNL1        0.0289
     51 H          -2.8310   -2.0538    1.3331 H       1  UNL1        0.0289
     52 H          -4.4103   -3.5757   -0.7750 H       1  UNL1        0.0557
     53 H          -2.6137   -3.6293   -0.7018 H       1  UNL1        0.0557
     54 H          -2.7333   -4.8565    1.0354 H       1  UNL1        0.2094
     55 H          -4.4797   -0.3722    2.4717 H       1  UNL1        0.0622
     56 H          -6.7598    0.0641    3.3501 H       1  UNL1        0.0618
     57 H          -8.4227    1.2552    2.0322 H       1  UNL1        0.0618
     58 H          -7.8312    2.0211   -0.2067 H       1  UNL1        0.0618
     59 H          -5.5771    1.5949   -1.1260 H       1  UNL1        0.0622
     60 H           2.3730    3.4236   -0.0067 H       1  UNL1        0.0621
     61 H           4.4542    2.1962    0.5983 H       1  UNL1        0.0624
     62 H           3.9954   -2.2879    0.6324 H       1  UNL1        0.0641
     63 H           6.9822   -4.3403    1.1777 H       1  UNL1        0.0292
     64 H           5.7690   -3.9424    2.4062 H       1  UNL1        0.0292
     65 H           5.2322   -4.4149    0.7380 H       1  UNL1        0.0292
@<TRIPOS>BOND
     1     1     2    1
     2     2     3   ar
     3     3     4   ar
     4     4     5    1
     5     5     6   ar
     6     6     7   ar
     7     7     8   ar
     8     8     9    1
     9     9    10    1
    10     9    11    1
    11    11    12    1
    12    12    13    1
    13    13    14    1
    14    14    15    1
    15    15    16    1
    16    16    17    1
    17    17    18    1
    18    14    19    1
    19    19    20   ar
    20    20    21   ar
    21    21    22   ar
    22    22    23   ar
    23    23    24   ar
    24    14    25    1
    25    25    26    1
    26    26    27    2
    27     8    28   ar
    28    28    29   ar
    29     4    30   ar
    30    30    31   ar
    31    31    32    1
    32    31    33   ar
    33    33     2   ar
    34    29     5   ar
    35    26    11   am
    36    24    19   ar
    37     1    34    1
    38     1    35    1
    39     1    36    1
    40     3    37    1
    41     6    38    1
    42     7    39    1
    43     9    40    1
    44    10    41    1
    45    10    42    1
    46    10    43    1
    47    12    44    1
    48    12    45    1
    49    13    46    1
    50    13    47    1
    51    15    48    1
    52    15    49    1
    53    16    50    1
    54    16    51    1
    55    17    52    1
    56    17    53    1
    57    18    54    1
    58    20    55    1
    59    21    56    1
    60    22    57    1
    61    23    58    1
    62    24    59    1
    63    28    60    1
    64    29    61    1
    65    30    62    1
    66    32    63    1
    67    32    64    1
    68    32    65    1
