@<TRIPOS>MOLECULE
*****
 42 45 0 0 0
SMALL
GASTEIGER

@<TRIPOS>ATOM
      1 N           4.5777   -2.3295   -1.3758 N.am    1  UNL1       -0.3241
      2 C           3.3905   -1.6233   -1.1090 C.2     1  UNL1        0.2599
      3 O           2.5362   -1.4947   -2.0081 O.2     1  UNL1       -0.2687
      4 C           3.1554   -1.0488    0.1949 C.ar    1  UNL1        0.1280
      5 C           4.0639   -1.1737    1.2497 C.ar    1  UNL1        0.0588
      6 N           3.5121   -0.5212    2.2787 N.ar    1  UNL1       -0.2353
      7 C           2.3259   -0.0169    1.8891 C.ar    1  UNL1        0.1381
      8 C           1.3638    0.7319    2.5550 C.ar    1  UNL1       -0.0182
      9 C           0.2109    1.1256    1.8962 C.ar    1  UNL1       -0.0477
     10 C          -0.0196    0.7941    0.5763 C.ar    1  UNL1        0.0173
     11 C          -1.2291    1.2321   -0.0948 C.ar    1  UNL1        0.0781
     12 C          -2.3307    0.4843   -0.4424 C.ar    1  UNL1        0.0995
     13 C          -2.5767   -0.9470   -0.2254 C.ar    1  UNL1        0.0392
     14 C          -1.8180   -1.9341   -0.8117 C.ar    1  UNL1       -0.0286
     15 C          -2.0883   -3.2807   -0.5777 C.ar    1  UNL1        0.0769
     16 CL         -1.1090   -4.5276   -1.3344 Cl      1  UNL1       -0.0806
     17 C          -3.1194   -3.6759    0.2444 C.ar    1  UNL1        0.1444
     18 F          -3.3749   -5.0040    0.4622 F       1  UNL1       -0.2039
     19 C          -3.8817   -2.6908    0.8337 C.ar    1  UNL1        0.0109
     20 C          -3.6114   -1.3541    0.5999 C.ar    1  UNL1        0.1354
     21 F          -4.3623   -0.3840    1.1778 F       1  UNL1       -0.2047
     22 N          -3.1780    1.3577   -1.0475 N.ar    1  UNL1       -0.2350
     23 C          -2.6694    2.5888   -1.0932 C.ar    1  UNL1        0.0972
     24 N          -1.4674    2.5155   -0.5067 N.ar    1  UNL1       -0.3241
     25 C          -0.5654    3.6539   -0.3525 C.3     1  UNL1        0.0852
     26 C           0.3508    3.7731   -1.5511 C.3     1  UNL1        0.2569
     27 F          -0.3336    3.9560   -2.7176 F       1  UNL1       -0.2073
     28 F           1.2274    4.8116   -1.3448 F       1  UNL1       -0.2073
     29 C           0.9579    0.0508   -0.0510 C.ar    1  UNL1        0.0211
     30 N           2.0874   -0.3309    0.6077 N.ar    1  UNL1       -0.2949
     31 H           4.6496   -3.1323   -2.0383 H       1  UNL1        0.1453
     32 H           5.4685   -2.0563   -0.8932 H       1  UNL1        0.1453
     33 H           5.0172   -1.6815    1.2656 H       1  UNL1        0.0853
     34 H           1.5831    0.9700    3.5849 H       1  UNL1        0.0654
     35 H          -0.4946    1.7075    2.4721 H       1  UNL1        0.0626
     36 H          -1.0127   -1.6524   -1.4569 H       1  UNL1        0.0640
     37 H          -4.6932   -3.0120    1.4800 H       1  UNL1        0.0676
     38 H          -3.1708    3.4523   -1.5335 H       1  UNL1        0.1029
     39 H           0.0044    3.4936    0.5831 H       1  UNL1        0.0548
     40 H          -1.1731    4.5824   -0.2854 H       1  UNL1        0.0548
     41 H           0.9436    2.8300   -1.6007 H       1  UNL1        0.1037
     42 H           0.8532   -0.2398   -1.0746 H       1  UNL1        0.0820
@<TRIPOS>BOND
     1     1     2   am
     2     2     3    2
     3     2     4    1
     4     4     5   ar
     5     5     6   ar
     6     6     7   ar
     7     7     8   ar
     8     8     9   ar
     9     9    10   ar
    10    10    11    1
    11    11    12   ar
    12    12    13    1
    13    13    14   ar
    14    14    15   ar
    15    15    16    1
    16    15    17   ar
    17    17    18    1
    18    17    19   ar
    19    19    20   ar
    20    20    21    1
    21    12    22   ar
    22    22    23   ar
    23    23    24   ar
    24    24    25    1
    25    25    26    1
    26    26    27    1
    27    26    28    1
    28    10    29   ar
    29    29    30   ar
    30    30     4   ar
    31    30     7   ar
    32    24    11   ar
    33    20    13   ar
    34     1    31    1
    35     1    32    1
    36     5    33    1
    37     8    34    1
    38     9    35    1
    39    14    36    1
    40    19    37    1
    41    23    38    1
    42    25    39    1
    43    25    40    1
    44    26    41    1
    45    29    42    1
