
     RDKit          3D

 42 45  0  0  0  0  0  0  0  0999 V2000
    4.5777   -2.3295   -1.3758 N   0  0  0  0  0  0  0  0  0  0  0  0
    3.3905   -1.6233   -1.1090 C   0  0  0  0  0  0  0  0  0  0  0  0
    2.5362   -1.4947   -2.0081 O   0  0  0  0  0  0  0  0  0  0  0  0
    3.1554   -1.0488    0.1949 C   0  0  0  0  0  0  0  0  0  0  0  0
    4.0639   -1.1737    1.2497 C   0  0  0  0  0  0  0  0  0  0  0  0
    3.5121   -0.5212    2.2787 N   0  0  0  0  0  0  0  0  0  0  0  0
    2.3259   -0.0169    1.8891 C   0  0  0  0  0  0  0  0  0  0  0  0
    1.3638    0.7319    2.5550 C   0  0  0  0  0  0  0  0  0  0  0  0
    0.2109    1.1256    1.8962 C   0  0  0  0  0  0  0  0  0  0  0  0
   -0.0196    0.7941    0.5763 C   0  0  0  0  0  0  0  0  0  0  0  0
   -1.2291    1.2321   -0.0948 C   0  0  0  0  0  0  0  0  0  0  0  0
   -2.3307    0.4843   -0.4424 C   0  0  0  0  0  0  0  0  0  0  0  0
   -2.5767   -0.9470   -0.2254 C   0  0  0  0  0  0  0  0  0  0  0  0
   -1.8180   -1.9341   -0.8117 C   0  0  0  0  0  0  0  0  0  0  0  0
   -2.0883   -3.2807   -0.5777 C   0  0  0  0  0  0  0  0  0  0  0  0
   -1.1090   -4.5276   -1.3344 Cl  0  0  0  0  0  0  0  0  0  0  0  0
   -3.1194   -3.6759    0.2444 C   0  0  0  0  0  0  0  0  0  0  0  0
   -3.3749   -5.0040    0.4622 F   0  0  0  0  0  0  0  0  0  0  0  0
   -3.8817   -2.6908    0.8337 C   0  0  0  0  0  0  0  0  0  0  0  0
   -3.6114   -1.3541    0.5999 C   0  0  0  0  0  0  0  0  0  0  0  0
   -4.3623   -0.3840    1.1778 F   0  0  0  0  0  0  0  0  0  0  0  0
   -3.1780    1.3577   -1.0475 N   0  0  0  0  0  0  0  0  0  0  0  0
   -2.6694    2.5888   -1.0932 C   0  0  0  0  0  0  0  0  0  0  0  0
   -1.4674    2.5155   -0.5067 N   0  0  0  0  0  0  0  0  0  0  0  0
   -0.5654    3.6539   -0.3525 C   0  0  0  0  0  0  0  0  0  0  0  0
    0.3508    3.7731   -1.5511 C   0  0  0  0  0  0  0  0  0  0  0  0
   -0.3336    3.9560   -2.7176 F   0  0  0  0  0  0  0  0  0  0  0  0
    1.2274    4.8116   -1.3448 F   0  0  0  0  0  0  0  0  0  0  0  0
    0.9579    0.0508   -0.0510 C   0  0  0  0  0  0  0  0  0  0  0  0
    2.0874   -0.3309    0.6077 N   0  0  0  0  0  0  0  0  0  0  0  0
    4.6496   -3.1323   -2.0383 H   0  0  0  0  0  0  0  0  0  0  0  0
    5.4685   -2.0563   -0.8932 H   0  0  0  0  0  0  0  0  0  0  0  0
    5.0172   -1.6815    1.2656 H   0  0  0  0  0  0  0  0  0  0  0  0
    1.5831    0.9700    3.5849 H   0  0  0  0  0  0  0  0  0  0  0  0
   -0.4946    1.7075    2.4721 H   0  0  0  0  0  0  0  0  0  0  0  0
   -1.0127   -1.6524   -1.4569 H   0  0  0  0  0  0  0  0  0  0  0  0
   -4.6932   -3.0120    1.4800 H   0  0  0  0  0  0  0  0  0  0  0  0
   -3.1708    3.4523   -1.5335 H   0  0  0  0  0  0  0  0  0  0  0  0
    0.0044    3.4936    0.5831 H   0  0  0  0  0  0  0  0  0  0  0  0
   -1.1731    4.5824   -0.2854 H   0  0  0  0  0  0  0  0  0  0  0  0
    0.9436    2.8300   -1.6007 H   0  0  0  0  0  0  0  0  0  0  0  0
    0.8532   -0.2398   -1.0746 H   0  0  0  0  0  0  0  0  0  0  0  0
  1  2  1  0
  2  3  2  0
  2  4  1  0
  4  5  2  0
  5  6  1  0
  6  7  2  0
  7  8  1  0
  8  9  2  0
  9 10  1  0
 10 11  1  0
 11 12  2  0
 12 13  1  0
 13 14  2  0
 14 15  1  0
 15 16  1  0
 15 17  2  0
 17 18  1  0
 17 19  1  0
 19 20  2  0
 20 21  1  0
 12 22  1  0
 22 23  2  0
 23 24  1  0
 24 25  1  0
 25 26  1  0
 26 27  1  0
 26 28  1  0
 10 29  2  0
 29 30  1  0
 30  4  1  0
 30  7  1  0
 24 11  1  0
 20 13  1  0
  1 31  1  0
  1 32  1  0
  5 33  1  0
  8 34  1  0
  9 35  1  0
 14 36  1  0
 19 37  1  0
 23 38  1  0
 25 39  1  0
 25 40  1  0
 26 41  1  0
 29 42  1  0
M  END
$$$$
