@<TRIPOS>MOLECULE
*****
 69 73 0 0 0
SMALL
GASTEIGER

@<TRIPOS>ATOM
      1 C          11.9347    1.6462    1.5838 C.3     1  UNL1        0.0788
      2 O          11.5929    0.8473    0.4757 O.3     1  UNL1       -0.4950
      3 C          10.2302    0.5813    0.2429 C.ar    1  UNL1        0.1221
      4 C           9.2501    1.0820    1.0687 C.ar    1  UNL1       -0.0192
      5 C           7.9170    0.8230    0.8423 C.ar    1  UNL1       -0.0456
      6 C           7.5088    0.0447   -0.2299 C.ar    1  UNL1        0.0429
      7 C           6.1708   -0.2045   -0.4426 C.ar    1  UNL1        0.1391
      8 O           5.2334    0.3120    0.4018 O.3     1  UNL1       -0.4538
      9 C           3.8618    0.1497    0.3134 C.ar    1  UNL1        0.1466
     10 C           3.0914    1.0460   -0.3979 C.ar    1  UNL1       -0.0146
     11 C           1.6989    0.9163   -0.5105 C.ar    1  UNL1       -0.0180
     12 C           1.0790   -0.1196    0.0945 C.ar    1  UNL1        0.1253
     13 N          -0.2979   -0.3718    0.0712 N.am    1  UNL1       -0.2662
     14 C          -1.2821    0.4096   -0.5653 C.2     1  UNL1        0.2563
     15 O          -0.9435    1.4515   -1.1896 O.2     1  UNL1       -0.2696
     16 C          -2.6917    0.0170   -0.5045 C.ar    1  UNL1        0.1235
     17 C          -3.7520    0.7254   -1.0934 C.ar    1  UNL1        0.0508
     18 C          -3.5496    1.9814   -1.8697 C.3     1  UNL1       -0.0218
     19 N          -4.8948    0.0787   -0.8353 N.ar    1  UNL1       -0.2776
     20 C          -6.1863    0.5174   -1.2790 C.3     1  UNL1        0.0687
     21 C          -6.9014    1.4271   -0.3277 C.3     1  UNL1        0.0798
     22 C          -7.1646    0.8127    1.0223 C.3     1  UNL1       -0.0346
     23 C          -6.1848    2.7337   -0.0754 C.3     1  UNL1       -0.0346
     24 O          -8.1609    1.7006   -0.8942 O.3     1  UNL1       -0.3873
     25 N          -4.6521   -1.0124   -0.1133 N.ar    1  UNL1       -0.2163
     26 C          -5.5546   -1.9865    0.3753 C.ar    1  UNL1        0.0674
     27 C          -6.2817   -2.7746   -0.4815 C.ar    1  UNL1       -0.0362
     28 C          -7.1683   -3.7388   -0.0204 C.ar    1  UNL1       -0.0598
     29 C          -7.3128   -3.8980    1.3408 C.ar    1  UNL1       -0.0616
     30 C          -6.5931   -3.1181    2.2345 C.ar    1  UNL1       -0.0598
     31 C          -5.7187   -2.1675    1.7282 C.ar    1  UNL1       -0.0362
     32 C          -3.2971   -1.0502    0.0902 C.ar    1  UNL1        0.2843
     33 O          -2.7439   -1.9739    0.7480 O.2     1  UNL1       -0.2650
     34 N           1.8537   -1.0086    0.8013 N.ar    1  UNL1       -0.2365
     35 C           3.1749   -0.8829    0.9067 C.ar    1  UNL1        0.0719
     36 C           5.8542   -0.9864   -1.5314 C.ar    1  UNL1       -0.0006
     37 C           6.8512   -1.4926   -2.3668 C.ar    1  UNL1        0.0318
     38 N           8.1345   -1.2204   -2.1149 N.ar    1  UNL1       -0.2546
     39 C           8.4939   -0.4662   -1.0706 C.ar    1  UNL1        0.0779
     40 C           9.8344   -0.1954   -0.8284 C.ar    1  UNL1        0.0061
     41 H          11.6405    2.6939    1.3449 H       1  UNL1        0.0660
     42 H          13.0488    1.6331    1.6871 H       1  UNL1        0.0660
     43 H          11.4904    1.2769    2.5211 H       1  UNL1        0.0660
     44 H           9.5110    1.6933    1.9171 H       1  UNL1        0.0654
     45 H           7.1136    1.2093    1.4834 H       1  UNL1        0.0626
     46 H           3.5671    1.8842   -0.8910 H       1  UNL1        0.0656
     47 H           1.1795    1.6637   -1.0866 H       1  UNL1        0.0653
     48 H          -0.6501   -1.2485    0.5900 H       1  UNL1        0.1566
     49 H          -3.2152    2.7830   -1.1934 H       1  UNL1        0.0293
     50 H          -2.7245    1.8606   -2.6305 H       1  UNL1        0.0293
     51 H          -4.4926    2.2014   -2.4025 H       1  UNL1        0.0293
     52 H          -6.1473    1.0395   -2.2612 H       1  UNL1        0.0537
     53 H          -6.8517   -0.3787   -1.4096 H       1  UNL1        0.0537
     54 H          -7.7154   -0.1401    0.9553 H       1  UNL1        0.0258
     55 H          -7.8227    1.5420    1.5699 H       1  UNL1        0.0258
     56 H          -6.2334    0.7462    1.6130 H       1  UNL1        0.0258
     57 H          -5.2291    2.5335    0.4164 H       1  UNL1        0.0258
     58 H          -6.8227    3.3061    0.6522 H       1  UNL1        0.0258
     59 H          -6.0186    3.3415   -0.9624 H       1  UNL1        0.0258
     60 H          -8.1102    1.7330   -1.8688 H       1  UNL1        0.2102
     61 H          -6.1903   -2.6742   -1.5516 H       1  UNL1        0.0639
     62 H          -7.7228   -4.3395   -0.7339 H       1  UNL1        0.0618
     63 H          -7.9900   -4.6353    1.7546 H       1  UNL1        0.0618
     64 H          -6.6997   -3.2370    3.3081 H       1  UNL1        0.0618
     65 H          -5.1783   -1.5805    2.4581 H       1  UNL1        0.0639
     66 H           3.7525   -1.5999    1.4706 H       1  UNL1        0.0868
     67 H           4.8441   -1.2377   -1.7838 H       1  UNL1        0.0670
     68 H           6.6225   -2.1092   -3.2285 H       1  UNL1        0.0831
     69 H          10.6109   -0.5959   -1.4883 H       1  UNL1        0.0676
@<TRIPOS>BOND
     1     1     2    1
     2     2     3    1
     3     3     4   ar
     4     4     5   ar
     5     5     6   ar
     6     6     7   ar
     7     7     8    1
     8     8     9    1
     9     9    10   ar
    10    10    11   ar
    11    11    12   ar
    12    12    13    1
    13    13    14   am
    14    14    15    2
    15    14    16    1
    16    16    17   ar
    17    17    18    1
    18    17    19   ar
    19    19    20    1
    20    20    21    1
    21    21    22    1
    22    21    23    1
    23    21    24    1
    24    19    25   ar
    25    25    26    1
    26    26    27   ar
    27    27    28   ar
    28    28    29   ar
    29    29    30   ar
    30    30    31   ar
    31    25    32   ar
    32    32    33    2
    33    12    34   ar
    34    34    35   ar
    35     7    36   ar
    36    36    37   ar
    37    37    38   ar
    38    38    39   ar
    39    39    40   ar
    40    40     3   ar
    41    39     6   ar
    42    35     9   ar
    43    32    16   ar
    44    31    26   ar
    45     1    41    1
    46     1    42    1
    47     1    43    1
    48     4    44    1
    49     5    45    1
    50    10    46    1
    51    11    47    1
    52    13    48    1
    53    18    49    1
    54    18    50    1
    55    18    51    1
    56    20    52    1
    57    20    53    1
    58    22    54    1
    59    22    55    1
    60    22    56    1
    61    23    57    1
    62    23    58    1
    63    23    59    1
    64    24    60    1
    65    27    61    1
    66    28    62    1
    67    29    63    1
    68    30    64    1
    69    31    65    1
    70    35    66    1
    71    36    67    1
    72    37    68    1
    73    40    69    1
