
     RDKit          3D

 69 73  0  0  0  0  0  0  0  0999 V2000
   11.9347    1.6462    1.5838 C   0  0  0  0  0  0  0  0  0  0  0  0
   11.5929    0.8473    0.4757 O   0  0  0  0  0  0  0  0  0  0  0  0
   10.2302    0.5813    0.2429 C   0  0  0  0  0  0  0  0  0  0  0  0
    9.2501    1.0820    1.0687 C   0  0  0  0  0  0  0  0  0  0  0  0
    7.9170    0.8230    0.8423 C   0  0  0  0  0  0  0  0  0  0  0  0
    7.5088    0.0447   -0.2299 C   0  0  0  0  0  0  0  0  0  0  0  0
    6.1708   -0.2045   -0.4426 C   0  0  0  0  0  0  0  0  0  0  0  0
    5.2334    0.3120    0.4018 O   0  0  0  0  0  0  0  0  0  0  0  0
    3.8618    0.1497    0.3134 C   0  0  0  0  0  0  0  0  0  0  0  0
    3.0914    1.0460   -0.3979 C   0  0  0  0  0  0  0  0  0  0  0  0
    1.6989    0.9163   -0.5105 C   0  0  0  0  0  0  0  0  0  0  0  0
    1.0790   -0.1196    0.0945 C   0  0  0  0  0  0  0  0  0  0  0  0
   -0.2979   -0.3718    0.0712 N   0  0  0  0  0  0  0  0  0  0  0  0
   -1.2821    0.4096   -0.5653 C   0  0  0  0  0  0  0  0  0  0  0  0
   -0.9435    1.4515   -1.1896 O   0  0  0  0  0  0  0  0  0  0  0  0
   -2.6917    0.0170   -0.5045 C   0  0  0  0  0  0  0  0  0  0  0  0
   -3.7520    0.7254   -1.0934 C   0  0  0  0  0  0  0  0  0  0  0  0
   -3.5496    1.9814   -1.8697 C   0  0  0  0  0  0  0  0  0  0  0  0
   -4.8948    0.0787   -0.8353 N   0  0  0  0  0  0  0  0  0  0  0  0
   -6.1863    0.5174   -1.2790 C   0  0  0  0  0  0  0  0  0  0  0  0
   -6.9014    1.4271   -0.3277 C   0  0  0  0  0  0  0  0  0  0  0  0
   -7.1646    0.8127    1.0223 C   0  0  0  0  0  0  0  0  0  0  0  0
   -6.1848    2.7337   -0.0754 C   0  0  0  0  0  0  0  0  0  0  0  0
   -8.1609    1.7006   -0.8942 O   0  0  0  0  0  0  0  0  0  0  0  0
   -4.6521   -1.0124   -0.1133 N   0  0  0  0  0  0  0  0  0  0  0  0
   -5.5546   -1.9865    0.3753 C   0  0  0  0  0  0  0  0  0  0  0  0
   -6.2817   -2.7746   -0.4815 C   0  0  0  0  0  0  0  0  0  0  0  0
   -7.1683   -3.7388   -0.0204 C   0  0  0  0  0  0  0  0  0  0  0  0
   -7.3128   -3.8980    1.3408 C   0  0  0  0  0  0  0  0  0  0  0  0
   -6.5931   -3.1181    2.2345 C   0  0  0  0  0  0  0  0  0  0  0  0
   -5.7187   -2.1675    1.7282 C   0  0  0  0  0  0  0  0  0  0  0  0
   -3.2971   -1.0502    0.0902 C   0  0  0  0  0  0  0  0  0  0  0  0
   -2.7439   -1.9739    0.7480 O   0  0  0  0  0  0  0  0  0  0  0  0
    1.8537   -1.0086    0.8013 N   0  0  0  0  0  0  0  0  0  0  0  0
    3.1749   -0.8829    0.9067 C   0  0  0  0  0  0  0  0  0  0  0  0
    5.8542   -0.9864   -1.5314 C   0  0  0  0  0  0  0  0  0  0  0  0
    6.8512   -1.4926   -2.3668 C   0  0  0  0  0  0  0  0  0  0  0  0
    8.1345   -1.2204   -2.1149 N   0  0  0  0  0  0  0  0  0  0  0  0
    8.4939   -0.4662   -1.0706 C   0  0  0  0  0  0  0  0  0  0  0  0
    9.8344   -0.1954   -0.8284 C   0  0  0  0  0  0  0  0  0  0  0  0
   11.6405    2.6939    1.3449 H   0  0  0  0  0  0  0  0  0  0  0  0
   13.0488    1.6331    1.6871 H   0  0  0  0  0  0  0  0  0  0  0  0
   11.4904    1.2769    2.5211 H   0  0  0  0  0  0  0  0  0  0  0  0
    9.5110    1.6933    1.9171 H   0  0  0  0  0  0  0  0  0  0  0  0
    7.1136    1.2093    1.4834 H   0  0  0  0  0  0  0  0  0  0  0  0
    3.5671    1.8842   -0.8910 H   0  0  0  0  0  0  0  0  0  0  0  0
    1.1795    1.6637   -1.0866 H   0  0  0  0  0  0  0  0  0  0  0  0
   -0.6501   -1.2485    0.5900 H   0  0  0  0  0  0  0  0  0  0  0  0
   -3.2152    2.7830   -1.1934 H   0  0  0  0  0  0  0  0  0  0  0  0
   -2.7245    1.8606   -2.6305 H   0  0  0  0  0  0  0  0  0  0  0  0
   -4.4926    2.2014   -2.4025 H   0  0  0  0  0  0  0  0  0  0  0  0
   -6.1473    1.0395   -2.2612 H   0  0  0  0  0  0  0  0  0  0  0  0
   -6.8517   -0.3787   -1.4096 H   0  0  0  0  0  0  0  0  0  0  0  0
   -7.7154   -0.1401    0.9553 H   0  0  0  0  0  0  0  0  0  0  0  0
   -7.8227    1.5420    1.5699 H   0  0  0  0  0  0  0  0  0  0  0  0
   -6.2334    0.7462    1.6130 H   0  0  0  0  0  0  0  0  0  0  0  0
   -5.2291    2.5335    0.4164 H   0  0  0  0  0  0  0  0  0  0  0  0
   -6.8227    3.3061    0.6522 H   0  0  0  0  0  0  0  0  0  0  0  0
   -6.0186    3.3415   -0.9624 H   0  0  0  0  0  0  0  0  0  0  0  0
   -8.1102    1.7330   -1.8688 H   0  0  0  0  0  0  0  0  0  0  0  0
   -6.1903   -2.6742   -1.5516 H   0  0  0  0  0  0  0  0  0  0  0  0
   -7.7228   -4.3395   -0.7339 H   0  0  0  0  0  0  0  0  0  0  0  0
   -7.9900   -4.6353    1.7546 H   0  0  0  0  0  0  0  0  0  0  0  0
   -6.6997   -3.2370    3.3081 H   0  0  0  0  0  0  0  0  0  0  0  0
   -5.1783   -1.5805    2.4581 H   0  0  0  0  0  0  0  0  0  0  0  0
    3.7525   -1.5999    1.4706 H   0  0  0  0  0  0  0  0  0  0  0  0
    4.8441   -1.2377   -1.7838 H   0  0  0  0  0  0  0  0  0  0  0  0
    6.6225   -2.1092   -3.2285 H   0  0  0  0  0  0  0  0  0  0  0  0
   10.6109   -0.5959   -1.4883 H   0  0  0  0  0  0  0  0  0  0  0  0
  1  2  1  0
  2  3  1  0
  3  4  2  0
  4  5  1  0
  5  6  2  0
  6  7  1  0
  7  8  1  0
  8  9  1  0
  9 10  2  0
 10 11  1  0
 11 12  2  0
 12 13  1  0
 13 14  1  0
 14 15  2  0
 14 16  1  0
 16 17  2  0
 17 18  1  0
 17 19  1  0
 19 20  1  0
 20 21  1  0
 21 22  1  0
 21 23  1  0
 21 24  1  0
 19 25  1  0
 25 26  1  0
 26 27  2  0
 27 28  1  0
 28 29  2  0
 29 30  1  0
 30 31  2  0
 25 32  1  0
 32 33  2  0
 12 34  1  0
 34 35  2  0
  7 36  2  0
 36 37  1  0
 37 38  2  0
 38 39  1  0
 39 40  2  0
 40  3  1  0
 39  6  1  0
 35  9  1  0
 32 16  1  0
 31 26  1  0
  1 41  1  0
  1 42  1  0
  1 43  1  0
  4 44  1  0
  5 45  1  0
 10 46  1  0
 11 47  1  0
 13 48  1  0
 18 49  1  0
 18 50  1  0
 18 51  1  0
 20 52  1  0
 20 53  1  0
 22 54  1  0
 22 55  1  0
 22 56  1  0
 23 57  1  0
 23 58  1  0
 23 59  1  0
 24 60  1  0
 27 61  1  0
 28 62  1  0
 29 63  1  0
 30 64  1  0
 31 65  1  0
 35 66  1  0
 36 67  1  0
 37 68  1  0
 40 69  1  0
M  END
$$$$
