@<TRIPOS>MOLECULE
*****
 62 66 0 0 0
SMALL
GASTEIGER

@<TRIPOS>ATOM
      1 C          -2.4396    4.3181    0.2541 C.3     1  UNL1       -0.0653
      2 C          -3.4774    3.2730    0.6868 C.3     1  UNL1       -0.0556
      3 C          -3.0747    2.5165    1.8792 C.3     1  UNL1       -0.0478
      4 C          -1.9022    1.6175    1.8483 C.3     1  UNL1       -0.0084
      5 C          -2.1241    0.4666    0.9247 C.ar    1  UNL1        0.0677
      6 N          -2.7278   -0.7038    1.3624 N.ar    1  UNL1       -0.1703
      7 N          -2.8771   -1.5408    0.3731 N.ar    1  UNL1       -0.2252
      8 C          -3.4662   -2.8603    0.4579 C.ar    1  UNL1        0.0663
      9 C          -2.8041   -3.8828    1.0951 C.ar    1  UNL1       -0.0362
     10 C          -3.3600   -5.1402    1.1782 C.ar    1  UNL1       -0.0598
     11 C          -4.5938   -5.4071    0.6255 C.ar    1  UNL1       -0.0616
     12 C          -5.2359   -4.3750   -0.0042 C.ar    1  UNL1       -0.0598
     13 C          -4.6941   -3.1157   -0.0952 C.ar    1  UNL1       -0.0362
     14 C          -2.3958   -1.0002   -0.7612 C.ar    1  UNL1        0.1547
     15 C          -2.4078   -1.6537   -2.0718 C.2     1  UNL1        0.3557
     16 O          -2.8979   -2.8383   -2.1521 O.2     1  UNL1       -0.2434
     17 O          -1.9514   -1.1425   -3.2452 O.3     1  UNL1       -0.4761
     18 C          -1.9213    0.2628   -0.4038 C.ar    1  UNL1        0.0123
     19 C          -1.2421    1.1664   -1.3603 C.3     1  UNL1        0.0016
     20 C           0.2601    1.1320   -1.2076 C.ar    1  UNL1       -0.0429
     21 C           1.0070    0.0842   -1.7034 C.ar    1  UNL1       -0.0577
     22 C           2.3905    0.0233   -1.5955 C.ar    1  UNL1       -0.0537
     23 C           3.0845    1.0366   -0.9719 C.ar    1  UNL1       -0.0172
     24 C           4.5479    1.0173   -0.8364 C.ar    1  UNL1       -0.0072
     25 C           5.2697    1.9761   -1.5126 C.ar    1  UNL1       -0.0534
     26 C           6.6389    2.0766   -1.4852 C.ar    1  UNL1       -0.0611
     27 C           7.3037    1.1349   -0.7171 C.ar    1  UNL1       -0.0611
     28 C           6.6014    0.1664   -0.0320 C.ar    1  UNL1       -0.0504
     29 C           5.2093    0.0870   -0.0764 C.ar    1  UNL1        0.0282
     30 C           4.4950   -0.9424    0.6708 C.ar    1  UNL1        0.1799
     31 N           3.1977   -1.1523    0.7753 N.ar    1  UNL1       -0.1084
     32 N           2.9846   -2.2067    1.5718 N.ar    1  UNL1       -0.0229
     33 N           4.1521   -2.6468    1.9578 N.ar    1  UNL1       -0.0464
     34 N           5.0868   -1.8914    1.4212 N.ar    1  UNL1       -0.2388
     35 C           2.3375    2.0847   -0.4761 C.ar    1  UNL1       -0.0537
     36 C           0.9584    2.1466   -0.5832 C.ar    1  UNL1       -0.0577
     37 H          -2.7712    5.3498    0.5820 H       1  UNL1        0.0230
     38 H          -2.3789    4.4029   -0.8464 H       1  UNL1        0.0230
     39 H          -1.4665    4.1291    0.7043 H       1  UNL1        0.0230
     40 H          -3.7212    2.6125   -0.1837 H       1  UNL1        0.0263
     41 H          -4.4227    3.8643    0.8623 H       1  UNL1        0.0263
     42 H          -2.8577    3.2963    2.6892 H       1  UNL1        0.0269
     43 H          -3.9975    2.0011    2.2764 H       1  UNL1        0.0269
     44 H          -1.0131    2.2212    1.5209 H       1  UNL1        0.0329
     45 H          -1.6600    1.1855    2.8485 H       1  UNL1        0.0329
     46 H          -1.8239   -3.7241    1.5497 H       1  UNL1        0.0639
     47 H          -2.8556   -5.9660    1.6768 H       1  UNL1        0.0618
     48 H          -5.0494   -6.3890    0.6797 H       1  UNL1        0.0618
     49 H          -6.2146   -4.6184   -0.4342 H       1  UNL1        0.0618
     50 H          -5.2682   -2.3438   -0.6134 H       1  UNL1        0.0639
     51 H          -1.5387   -1.6576   -4.0095 H       1  UNL1        0.2955
     52 H          -1.6196    2.1911   -1.2376 H       1  UNL1        0.0363
     53 H          -1.5313    0.8697   -2.3821 H       1  UNL1        0.0363
     54 H           0.4955   -0.7267   -2.1961 H       1  UNL1        0.0621
     55 H           2.9696   -0.8039   -1.9886 H       1  UNL1        0.0624
     56 H           4.7242    2.7141   -2.1149 H       1  UNL1        0.0624
     57 H           7.1534    2.8591   -2.0424 H       1  UNL1        0.0618
     58 H           8.3815    1.1909   -0.6768 H       1  UNL1        0.0618
     59 H           7.1007   -0.5834    0.5763 H       1  UNL1        0.0625
     60 H           6.0987   -2.0426    1.5806 H       1  UNL1        0.1923
     61 H           2.9197    2.8795    0.0159 H       1  UNL1        0.0624
     62 H           0.4152    3.0015   -0.1811 H       1  UNL1        0.0621
@<TRIPOS>BOND
     1     1     2    1
     2     2     3    1
     3     3     4    1
     4     4     5    1
     5     5     6   ar
     6     6     7   ar
     7     7     8    1
     8     8     9   ar
     9     9    10   ar
    10    10    11   ar
    11    11    12   ar
    12    12    13   ar
    13     7    14   ar
    14    14    15    1
    15    15    16    2
    16    15    17    1
    17    14    18   ar
    18    18    19    1
    19    19    20    1
    20    20    21   ar
    21    21    22   ar
    22    22    23   ar
    23    23    24    1
    24    24    25   ar
    25    25    26   ar
    26    26    27   ar
    27    27    28   ar
    28    28    29   ar
    29    29    30    1
    30    30    31   ar
    31    31    32   ar
    32    32    33   ar
    33    33    34   ar
    34    23    35   ar
    35    35    36   ar
    36    18     5   ar
    37    36    20   ar
    38    13     8   ar
    39    29    24   ar
    40    34    30   ar
    41     1    37    1
    42     1    38    1
    43     1    39    1
    44     2    40    1
    45     2    41    1
    46     3    42    1
    47     3    43    1
    48     4    44    1
    49     4    45    1
    50     9    46    1
    51    10    47    1
    52    11    48    1
    53    12    49    1
    54    13    50    1
    55    17    51    1
    56    19    52    1
    57    19    53    1
    58    21    54    1
    59    22    55    1
    60    25    56    1
    61    26    57    1
    62    27    58    1
    63    28    59    1
    64    34    60    1
    65    35    61    1
    66    36    62    1
