@<TRIPOS>MOLECULE
*****
 61 65 0 0 0
SMALL
GASTEIGER

@<TRIPOS>ATOM
      1 C           2.8355    3.3049    1.7261 C.3     1  UNL1       -0.0376
      2 C           2.7818    1.9713    1.0983 C.ar    1  UNL1       -0.0213
      3 C           3.9345    1.2307    1.0179 C.ar    1  UNL1       -0.0356
      4 C           3.9548   -0.0377    0.4374 C.ar    1  UNL1        0.0321
      5 N           5.1511   -0.7732    0.3692 N.pl3   1  UNL1       -0.3283
      6 C           5.3023   -2.0832   -0.2014 C.3     1  UNL1        0.0137
      7 C           6.6075   -1.9171   -0.9910 C.3     1  UNL1       -0.0205
      8 C           7.4193   -1.0604   -0.0676 C.3     1  UNL1        0.0221
      9 N           8.1895   -0.1123   -0.8503 N.3     1  UNL1       -0.3259
     10 C           6.4416   -0.3656    0.8504 C.3     1  UNL1        0.0274
     11 C           2.7585   -0.5153   -0.0541 C.ar    1  UNL1       -0.0152
     12 C           1.5811    0.2006    0.0093 C.ar    1  UNL1        0.0685
     13 N           0.2937   -0.0330   -0.3909 N.ar    1  UNL1       -0.3376
     14 C          -0.4840    0.9956   -0.0901 C.ar    1  UNL1        0.1463
     15 C          -1.8631    1.3570   -0.3389 C.ar    1  UNL1        0.1022
     16 C          -2.7948    0.5205   -0.8781 C.ar    1  UNL1        0.0446
     17 N          -2.5551   -0.8734   -0.9066 N.pl3   1  UNL1       -0.3403
     18 C          -3.5138   -1.7863   -1.4910 C.3     1  UNL1        0.0393
     19 C          -4.4414   -2.3959   -0.4928 C.3     1  UNL1        0.0956
     20 O          -3.7193   -3.1553    0.4500 O.3     1  UNL1       -0.3856
     21 C          -5.3269   -1.4959    0.2417 C.ar    1  UNL1       -0.0163
     22 C          -4.9458   -0.8202    1.3831 C.ar    1  UNL1       -0.0560
     23 C          -5.8275    0.0101    2.0257 C.ar    1  UNL1       -0.0600
     24 C          -7.1109    0.2015    1.5661 C.ar    1  UNL1       -0.0434
     25 C          -7.5042   -0.4649    0.4306 C.ar    1  UNL1        0.0413
     26 CL         -9.1473   -0.2330   -0.1760 Cl      1  UNL1       -0.0835
     27 C          -6.6214   -1.2964   -0.2131 C.ar    1  UNL1       -0.0377
     28 C          -4.0583    1.0035   -1.2803 C.ar    1  UNL1       -0.0239
     29 C          -4.3544    2.3447   -1.1157 C.ar    1  UNL1        0.0067
     30 N          -3.4515    3.1574   -0.5849 N.ar    1  UNL1       -0.3284
     31 C          -2.2537    2.7073   -0.2062 C.ar    1  UNL1        0.2612
     32 O          -1.3902    3.4957    0.3041 O.2     1  UNL1       -0.2671
     33 N           0.3720    1.8961    0.5182 N.ar    1  UNL1       -0.2272
     34 C           1.6052    1.4425    0.5876 C.ar    1  UNL1        0.0925
     35 H           2.0321    3.9823    1.3773 H       1  UNL1        0.0278
     36 H           2.8210    3.1658    2.8297 H       1  UNL1        0.0278
     37 H           3.8201    3.7607    1.4445 H       1  UNL1        0.0278
     38 H           4.8941    1.5938    1.4028 H       1  UNL1        0.0639
     39 H           4.5399   -2.3566   -0.9336 H       1  UNL1        0.0464
     40 H           5.4289   -2.8713    0.5720 H       1  UNL1        0.0464
     41 H           6.3514   -1.3084   -1.8847 H       1  UNL1        0.0296
     42 H           7.0574   -2.8797   -1.2307 H       1  UNL1        0.0296
     43 H           8.1493   -1.6535    0.5202 H       1  UNL1        0.0474
     44 H           7.6579    0.2421   -1.6829 H       1  UNL1        0.1185
     45 H           8.5626    0.6776   -0.2782 H       1  UNL1        0.1185
     46 H           6.6307    0.7110    0.7907 H       1  UNL1        0.0479
     47 H           6.6202   -0.7042    1.8941 H       1  UNL1        0.0479
     48 H           2.7357   -1.5029   -0.5148 H       1  UNL1        0.0657
     49 H           0.0761   -0.8954   -0.8847 H       1  UNL1        0.1674
     50 H          -1.7266   -1.3230   -0.4654 H       1  UNL1        0.1462
     51 H          -4.0657   -1.2678   -2.2865 H       1  UNL1        0.0490
     52 H          -2.9500   -2.6149   -2.0381 H       1  UNL1        0.0490
     53 H          -5.0879   -3.1383   -1.0445 H       1  UNL1        0.0659
     54 H          -3.3216   -3.9118   -0.0579 H       1  UNL1        0.2103
     55 H          -3.9460   -0.9435    1.7766 H       1  UNL1        0.0621
     56 H          -5.5399    0.5588    2.9402 H       1  UNL1        0.0618
     57 H          -7.8160    0.8676    2.0828 H       1  UNL1        0.0632
     58 H          -6.9790   -1.8010   -1.1065 H       1  UNL1        0.0636
     59 H          -4.7913    0.3583   -1.7266 H       1  UNL1        0.0651
     60 H          -5.3460    2.6727   -1.4416 H       1  UNL1        0.0808
     61 H          -3.6722    4.1615   -0.4597 H       1  UNL1        0.1683
@<TRIPOS>BOND
     1     1     2    1
     2     2     3   ar
     3     3     4   ar
     4     4     5    1
     5     5     6    1
     6     6     7    1
     7     7     8    1
     8     8     9    1
     9     8    10    1
    10     4    11   ar
    11    11    12   ar
    12    12    13   ar
    13    13    14   ar
    14    14    15    1
    15    15    16   ar
    16    16    17    1
    17    17    18    1
    18    18    19    1
    19    19    20    1
    20    19    21    1
    21    21    22   ar
    22    22    23   ar
    23    23    24   ar
    24    24    25   ar
    25    25    26    1
    26    25    27   ar
    27    16    28   ar
    28    28    29   ar
    29    29    30   ar
    30    30    31   ar
    31    31    32    2
    32    14    33   ar
    33    33    34   ar
    34    34     2   ar
    35    10     5    1
    36    34    12   ar
    37    31    15   ar
    38    27    21   ar
    39     1    35    1
    40     1    36    1
    41     1    37    1
    42     3    38    1
    43     6    39    1
    44     6    40    1
    45     7    41    1
    46     7    42    1
    47     8    43    1
    48     9    44    1
    49     9    45    1
    50    10    46    1
    51    10    47    1
    52    11    48    1
    53    13    49    1
    54    17    50    1
    55    18    51    1
    56    18    52    1
    57    19    53    1
    58    20    54    1
    59    22    55    1
    60    23    56    1
    61    24    57    1
    62    27    58    1
    63    28    59    1
    64    29    60    1
    65    30    61    1
