@<TRIPOS>MOLECULE
*****
 52 54 0 0 0
SMALL
GASTEIGER

@<TRIPOS>ATOM
      1 C          -3.4561   -4.1689    0.0605 C.3     1  UNL1       -0.0635
      2 C          -2.0411   -3.7346   -0.0929 C.3     1  UNL1       -0.0352
      3 CA         -1.9165   -2.2308   -0.3307 C.3     1  UNL1        0.0461
      4 C          -2.6645   -1.8581   -1.5952 C.3     1  UNL1        0.0626
      5 O          -2.6209   -0.5125   -1.8806 O.3     1  UNL1       -0.3932
      6 N          -0.5370   -1.8639   -0.4866 N.pl3   1  UNL1       -0.3083
      7 C          -0.1217   -0.5182   -0.4589 C.ar    1  UNL1        0.2191
      8 N           1.1893   -0.2066   -0.7266 N.ar    1  UNL1       -0.1974
      9 C           1.6678    1.0374   -0.6986 C.ar    1  UNL1        0.1519
     10 N           3.0117    1.3317   -0.9815 N.pl3   1  UNL1       -0.3231
     11 C           4.0670    0.4489   -1.3220 C.3     1  UNL1        0.0357
     12 C           4.3091   -0.4880   -0.2007 C.ar    1  UNL1       -0.0304
     13 C           3.7335   -1.7323   -0.2315 C.ar    1  UNL1       -0.0571
     14 C           3.9794   -2.5755    0.8618 C.ar    1  UNL1       -0.0615
     15 C           4.7605   -2.1648    1.9061 C.ar    1  UNL1       -0.0617
     16 C           5.3178   -0.9027    1.8896 C.ar    1  UNL1       -0.0615
     17 C           5.1017   -0.0479    0.8400 C.ar    1  UNL1       -0.0571
     18 C           0.7540    2.0258   -0.3776 C.ar    1  UNL1        0.1476
     19 N           0.8673    3.3552   -0.2551 N.ar    1  UNL1       -0.2306
     20 C          -0.3362    3.9063    0.0841 C.ar    1  UNL1        0.0985
     21 N          -1.2217    2.9003    0.1759 N.ar    1  UNL1       -0.3123
     22 C          -2.6221    3.0127    0.5121 C.3     1  UNL1        0.0317
     23 C          -3.3575    3.7411   -0.5900 C.3     1  UNL1       -0.0444
     24 C          -2.8052    3.7502    1.8450 C.3     1  UNL1       -0.0444
     25 C          -0.5739    1.7547   -0.1016 C.ar    1  UNL1        0.1674
     26 N          -0.9795    0.4556   -0.1528 N.ar    1  UNL1       -0.1947
     27 H          -3.8383   -4.7121   -0.8403 H       1  UNL1        0.0230
     28 H          -4.1455   -3.3311    0.3426 H       1  UNL1        0.0230
     29 H          -3.5161   -4.9047    0.8890 H       1  UNL1        0.0230
     30 H          -1.5679   -4.3056   -0.9142 H       1  UNL1        0.0281
     31 H          -1.4870   -3.9723    0.8403 H       1  UNL1        0.0281
     32 HA         -2.3489   -1.6860    0.5200 H       1  UNL1        0.0521
     33 H1         -2.1993   -2.3807   -2.4826 H       1  UNL1        0.0575
     34 H2         -3.7160   -2.2065   -1.5876 H       1  UNL1        0.0575
     35 H          -3.5173   -0.1436   -2.0362 H       1  UNL1        0.2095
     36 H           0.1773   -2.6302   -0.6252 H       1  UNL1        0.1493
     37 H           3.3006    2.3728   -0.9379 H       1  UNL1        0.1479
     38 H           4.9946    1.0333   -1.5554 H       1  UNL1        0.0511
     39 H           3.8684   -0.1805   -2.2150 H       1  UNL1        0.0511
     40 H           3.1166   -2.1005   -1.0500 H       1  UNL1        0.0621
     41 H           3.5445   -3.5633    0.8763 H       1  UNL1        0.0618
     42 H           4.9340   -2.8375    2.7402 H       1  UNL1        0.0618
     43 H           5.9356   -0.5748    2.7118 H       1  UNL1        0.0618
     44 H           5.5300    0.9524    0.8043 H       1  UNL1        0.0621
     45 H          -0.4868    4.9672    0.2371 H       1  UNL1        0.1029
     46 H          -3.0503    2.0047    0.6598 H       1  UNL1        0.0523
     47 H          -3.6347    4.7435   -0.2055 H       1  UNL1        0.0249
     48 H          -2.7224    3.8531   -1.4839 H       1  UNL1        0.0249
     49 H          -4.2501    3.1634   -0.8621 H       1  UNL1        0.0249
     50 H          -3.8716    3.9338    1.9941 H       1  UNL1        0.0249
     51 H          -2.3629    3.1077    2.6391 H       1  UNL1        0.0249
     52 H          -2.1920    4.6826    1.8497 H       1  UNL1        0.0249
@<TRIPOS>BOND
     1     1     2    1
     2     2     3    1
     3     3     4    1
     4     4     5    1
     5     3     6    1
     6     6     7    1
     7     7     8   ar
     8     8     9   ar
     9     9    10    1
    10    10    11    1
    11    11    12    1
    12    12    13   ar
    13    13    14   ar
    14    14    15   ar
    15    15    16   ar
    16    16    17   ar
    17     9    18   ar
    18    18    19   ar
    19    19    20   ar
    20    20    21   ar
    21    21    22    1
    22    22    23    1
    23    22    24    1
    24    21    25   ar
    25    25    26   ar
    26    26     7   ar
    27    17    12   ar
    28    25    18   ar
    29     1    27    1
    30     1    28    1
    31     1    29    1
    32     2    30    1
    33     2    31    1
    34     3    32    1
    35     4    33    1
    36     4    34    1
    37     5    35    1
    38     6    36    1
    39    10    37    1
    40    11    38    1
    41    11    39    1
    42    13    40    1
    43    14    41    1
    44    15    42    1
    45    16    43    1
    46    17    44    1
    47    20    45    1
    48    22    46    1
    49    23    47    1
    50    23    48    1
    51    23    49    1
    52    24    50    1
    53    24    51    1
    54    24    52    1
