@<TRIPOS>MOLECULE
*****
 15 14 0 0 0
SMALL
GASTEIGER

@<TRIPOS>ATOM
      1 C1         -0.5263   -0.5126    0.4385 C.3     1  <1>         0.1144
      2 N1         -0.8626   -0.9469   -0.9067 N.3     1  <1>        -0.3177
      3 C2          0.9684   -0.5894    0.6606 C.3     1  <1>         0.0461
      4 S1          1.7655    0.4746   -0.5283 S.O     1  <1>         0.0106
      5 O1          1.5686    0.0601   -1.9570 O.2     1  <1>        -0.2603
      6 C3         -0.9944    0.8934    0.6021 C.2     1  <1>         0.3226
      7 O2         -1.6307    1.5653   -0.4302 O.3     1  <1>        -0.4795
      8 O3         -0.8804    1.6064    1.6304 O.2     1  <1>        -0.2492
      9 H1         -1.0138   -1.1542    1.1869 H       1  <1>         0.0583
     10 H2         -1.8533   -1.1911   -1.0167 H       1  <1>         0.1190
     11 H3         -0.2061   -1.6731   -1.2618 H       1  <1>         0.1190
     12 H4          1.2905   -1.6436    0.6071 H       1  <1>         0.0419
     13 H5          1.1797   -0.1628    1.6628 H       1  <1>         0.0419
     14 H6          3.0858    0.7390   -0.2586 H       1  <1>         0.1379
     15 H7         -1.8910    2.5350   -0.4291 H       1  <1>         0.2951
@<TRIPOS>BOND
     1     1     2    1
     2     1     3    1
     3     3     4    1
     4     4     5    2
     5     1     6    1
     6     6     7    1
     7     6     8    2
     8     1     9    1
     9     2    10    1
    10     2    11    1
    11     3    12    1
    12     3    13    1
    13     4    14    1
    14     7    15    1
