@<TRIPOS>MOLECULE
*****
 50 53 0 0 0
SMALL
GASTEIGER

@<TRIPOS>ATOM
      1 N          -1.7093    0.7877    2.0682 N.3     1  UNL1       -0.3265
      2 C          -2.1129    1.4392    0.8534 C.3     1  UNL1        0.0172
      3 C          -1.8568    0.6212   -0.3699 C.3     1  UNL1        0.0396
      4 C          -0.3975    0.3084   -0.5177 C.2     1  UNL1        0.2177
      5 O           0.3546    0.7662    0.3772 O.2     1  UNL1       -0.2755
      6 N           0.1000   -0.4507   -1.5916 N.am    1  UNL1       -0.2897
      7 C          -0.6866   -1.0207   -2.6542 C.3     1  UNL1        0.0155
      8 C           0.1984   -0.8350   -3.8535 C.3     1  UNL1       -0.0350
      9 C           1.5849   -0.5462   -3.3344 C.3     1  UNL1       -0.0241
     10 C           1.4505   -0.8149   -1.8505 C.3     1  UNL1        0.1048
     11 C           2.4695   -0.0656   -1.0741 C.ar    1  UNL1        0.2483
     12 N           3.5139   -0.6130   -0.4013 N.ar    1  UNL1       -0.1871
     13 C           4.2413    0.3519    0.1914 C.ar    1  UNL1        0.2393
     14 C           5.4432    0.2404    1.0132 C.ar    1  UNL1        0.2010
     15 N           5.4861   -0.5877    2.0707 N.ar    1  UNL1       -0.2330
     16 C           6.5800   -0.7140    2.8501 C.ar    1  UNL1        0.0315
     17 C           7.7185    0.0185    2.5837 C.ar    1  UNL1       -0.0254
     18 C           7.6680    0.8670    1.4966 C.ar    1  UNL1        0.0315
     19 N           6.5524    0.9582    0.7485 N.ar    1  UNL1       -0.2330
     20 N           3.6057    1.5042   -0.1426 N.ar    1  UNL1       -0.0527
     21 O           2.5739    1.2231   -0.8830 O.2     1  UNL1       -0.3356
     22 C          -3.5694    1.8149    0.9642 C.3     1  UNL1       -0.0092
     23 C          -4.4625    0.6482    1.1741 C.ar    1  UNL1       -0.0078
     24 C          -5.2142    0.1460    0.1116 C.ar    1  UNL1       -0.0176
     25 C          -6.0519   -0.9238    0.2266 C.ar    1  UNL1        0.1588
     26 F          -6.7503   -1.3503   -0.8621 F       1  UNL1       -0.2025
     27 C          -6.1606   -1.5378    1.4517 C.ar    1  UNL1        0.1611
     28 F          -6.9966   -2.6056    1.5665 F       1  UNL1       -0.2024
     29 C          -5.4282   -1.0615    2.5204 C.ar    1  UNL1        0.0119
     30 C          -4.5871    0.0194    2.3879 C.ar    1  UNL1        0.1295
     31 F          -3.8904    0.4523    3.4733 F       1  UNL1       -0.2051
     32 H          -0.7797    1.1363    2.4259 H       1  UNL1        0.1185
     33 H          -1.6184   -0.2508    1.9325 H       1  UNL1        0.1185
     34 H          -1.5157    2.3725    0.7800 H       1  UNL1        0.0466
     35 H          -2.2657    1.0894   -1.2692 H       1  UNL1        0.0374
     36 H          -2.3855   -0.3495   -0.2440 H       1  UNL1        0.0374
     37 H          -0.7822   -2.1299   -2.4974 H       1  UNL1        0.0465
     38 H          -1.6832   -0.5448   -2.7572 H       1  UNL1        0.0465
     39 H           0.2505   -1.7248   -4.5084 H       1  UNL1        0.0281
     40 H          -0.1764   -0.0051   -4.4979 H       1  UNL1        0.0281
     41 H           1.8336    0.5248   -3.4519 H       1  UNL1        0.0288
     42 H           2.3491   -1.2149   -3.7803 H       1  UNL1        0.0288
     43 H           1.5502   -1.9101   -1.7130 H       1  UNL1        0.0599
     44 H           6.6096   -1.3900    3.7101 H       1  UNL1        0.0831
     45 H           8.6180   -0.0513    3.1821 H       1  UNL1        0.0648
     46 H           8.5682    1.4504    1.2805 H       1  UNL1        0.0831
     47 H          -3.8455    2.2970   -0.0125 H       1  UNL1        0.0329
     48 H          -3.7243    2.6041    1.7311 H       1  UNL1        0.0329
     49 H          -5.1221    0.6371   -0.8514 H       1  UNL1        0.0651
     50 H          -5.5473   -1.5805    3.4714 H       1  UNL1        0.0676
@<TRIPOS>BOND
     1     1     2    1
     2     2     3    1
     3     3     4    1
     4     4     5    2
     5     4     6   am
     6     6     7    1
     7     7     8    1
     8     8     9    1
     9     9    10    1
    10    10    11    1
    11    11    12   ar
    12    12    13   ar
    13    13    14    1
    14    14    15   ar
    15    15    16   ar
    16    16    17   ar
    17    17    18   ar
    18    18    19   ar
    19    13    20   ar
    20    20    21   ar
    21     2    22    1
    22    22    23    1
    23    23    24   ar
    24    24    25   ar
    25    25    26    1
    26    25    27   ar
    27    27    28    1
    28    27    29   ar
    29    29    30   ar
    30    30    31    1
    31    10     6    1
    32    21    11   ar
    33    30    23   ar
    34    19    14   ar
    35     1    32    1
    36     1    33    1
    37     2    34    1
    38     3    35    1
    39     3    36    1
    40     7    37    1
    41     7    38    1
    42     8    39    1
    43     8    40    1
    44     9    41    1
    45     9    42    1
    46    10    43    1
    47    16    44    1
    48    17    45    1
    49    18    46    1
    50    22    47    1
    51    22    48    1
    52    24    49    1
    53    29    50    1
