@<TRIPOS>MOLECULE
*****
 53 55 0 0 0
SMALL
GASTEIGER

@<TRIPOS>ATOM
      1 C          -5.5977   -2.9529   -0.8166 C.3     1  UNL1        0.0788
      2 O          -4.4114   -2.2010   -0.7225 O.3     1  UNL1       -0.4949
      3 C          -4.4153   -1.0620    0.0926 C.ar    1  UNL1        0.1251
      4 C          -5.5610   -0.7071    0.7666 C.ar    1  UNL1        0.0012
      5 C          -5.5420    0.4248    1.5694 C.ar    1  UNL1        0.0438
      6 C          -6.7773    0.8394    2.3164 C.3     1  UNL1       -0.0222
      7 N          -4.4200    1.1186    1.6549 N.ar    1  UNL1       -0.2369
      8 C          -3.2801    0.8143    1.0195 C.ar    1  UNL1        0.1267
      9 N          -2.1211    1.6239    1.2300 N.pl3   1  UNL1       -0.2975
     10 C          -0.9386    1.4146    0.4743 C.ar    1  UNL1        0.0650
     11 C           0.1840    0.9567    1.1255 C.ar    1  UNL1       -0.0159
     12 C           1.3895    0.7203    0.4516 C.ar    1  UNL1        0.0476
     13 N           2.5232    0.2579    1.1096 N.pl3   1  UNL1       -0.3367
     14 C           3.8201   -0.0727    0.6575 C.3     1  UNL1        0.0551
     15 C           4.5898    1.0054   -0.0659 C.3     1  UNL1        0.0854
     16 S           6.3326    0.5923    0.2063 S.O2    1  UNL1       -0.0292
     17 O           6.6294    0.9631    1.6282 O.2     1  UNL1       -0.1743
     18 O           7.1882    1.3601   -0.7612 O.2     1  UNL1       -0.1743
     19 C           6.4940   -1.1358   -0.1012 C.3     1  UNL1        0.0673
     20 C           5.3258   -1.9642    0.3062 C.3     1  UNL1       -0.0166
     21 C           3.9783   -1.3641   -0.0846 C.3     1  UNL1        0.0263
     22 N           4.0356   -1.1727   -1.5168 N.3     1  UNL1       -0.3256
     23 C           1.3499    0.9815   -0.8875 C.ar    1  UNL1        0.0494
     24 N           0.2470    1.4316   -1.5188 N.ar    1  UNL1       -0.2467
     25 C          -0.9229    1.6629   -0.8682 C.ar    1  UNL1        0.1463
     26 C          -2.0369    2.2135   -1.6265 C.2     1  UNL1        0.2617
     27 N          -1.9294    2.3438   -3.0210 N.am    1  UNL1       -0.3240
     28 O          -3.0787    2.5683   -1.0520 O.2     1  UNL1       -0.2687
     29 C          -3.2737   -0.2952    0.2222 C.ar    1  UNL1        0.0202
     30 H          -5.3799   -3.9282   -1.3150 H       1  UNL1        0.0660
     31 H          -6.3623   -2.3658   -1.3314 H       1  UNL1        0.0660
     32 H          -5.9077   -3.1560    0.2455 H       1  UNL1        0.0660
     33 H          -6.4914   -1.2659    0.7058 H       1  UNL1        0.0672
     34 H          -7.6383    0.2996    1.8500 H       1  UNL1        0.0293
     35 H          -6.6554    0.4346    3.3481 H       1  UNL1        0.0293
     36 H          -6.9695    1.9082    2.2664 H       1  UNL1        0.0293
     37 H          -2.1879    2.3661    1.9605 H       1  UNL1        0.1536
     38 H           0.1572    0.7669    2.1878 H       1  UNL1        0.0656
     39 H           2.3676    0.1257    2.1889 H       1  UNL1        0.1465
     40 H           4.4564   -0.2318    1.6130 H       1  UNL1        0.0529
     41 H           4.3645    2.0212    0.2630 H       1  UNL1        0.0519
     42 H           4.4709    0.8458   -1.1676 H       1  UNL1        0.0519
     43 H           6.6966   -1.2745   -1.1825 H       1  UNL1        0.0500
     44 H           7.3812   -1.5327    0.4435 H       1  UNL1        0.0500
     45 H           5.4490   -2.9594   -0.1819 H       1  UNL1        0.0296
     46 H           5.3459   -2.1618    1.3970 H       1  UNL1        0.0296
     47 H           3.2141   -2.1158    0.1736 H       1  UNL1        0.0477
     48 H           4.7687   -1.7889   -1.9234 H       1  UNL1        0.1185
     49 H           3.1063   -1.3967   -1.9556 H       1  UNL1        0.1185
     50 H           2.2054    0.8419   -1.5088 H       1  UNL1        0.0848
     51 H          -2.2976    3.1866   -3.4966 H       1  UNL1        0.1453
     52 H          -1.4825    1.6001   -3.5789 H       1  UNL1        0.1453
     53 H          -2.3928   -0.5844   -0.3091 H       1  UNL1        0.0689
@<TRIPOS>BOND
     1     1     2    1
     2     2     3    1
     3     3     4   ar
     4     4     5   ar
     5     5     6    1
     6     5     7   ar
     7     7     8   ar
     8     8     9    1
     9     9    10    1
    10    10    11   ar
    11    11    12   ar
    12    12    13    1
    13    13    14    1
    14    14    15    1
    15    15    16    1
    16    16    17    2
    17    16    18    2
    18    16    19    1
    19    19    20    1
    20    20    21    1
    21    21    22    1
    22    12    23   ar
    23    23    24   ar
    24    24    25   ar
    25    25    26    1
    26    26    27   am
    27    26    28    2
    28     8    29   ar
    29    29     3   ar
    30    25    10   ar
    31    21    14    1
    32     1    30    1
    33     1    31    1
    34     1    32    1
    35     4    33    1
    36     6    34    1
    37     6    35    1
    38     6    36    1
    39     9    37    1
    40    11    38    1
    41    13    39    1
    42    14    40    1
    43    15    41    1
    44    15    42    1
    45    19    43    1
    46    19    44    1
    47    20    45    1
    48    20    46    1
    49    21    47    1
    50    22    48    1
    51    22    49    1
    52    23    50    1
    53    27    51    1
    54    27    52    1
    55    29    53    1
