@<TRIPOS>MOLECULE
*****
 22 21 0 0 0
SMALL
GASTEIGER

@<TRIPOS>ATOM
      1 C          -2.2231    0.8627   -0.7855 C.3     1  UNL1       -0.0626
      2 C          -1.1232    0.4702    0.1927 C.3     1  UNL1       -0.0453
      3 C          -1.6187   -0.6476    1.0759 C.3     1  UNL1       -0.0626
      4 C           0.0542    0.0410   -0.6345 C.3     1  UNL1       -0.0357
      5 C           1.2128   -0.3731    0.2463 C.3     1  UNL1        0.0022
      6 C           2.3916   -0.8029   -0.6004 C.3     1  UNL1       -0.0499
      7 N           1.6050    0.7909    1.0483 N.3     1  UNL1       -0.3275
      8 H          -3.1790    0.8122   -0.2238 H       1  UNL1        0.0232
      9 H          -2.2421    0.1638   -1.6429 H       1  UNL1        0.0232
     10 H          -2.1089    1.9202   -1.1195 H       1  UNL1        0.0232
     11 H          -0.8391    1.3402    0.8118 H       1  UNL1        0.0296
     12 H          -1.2433   -1.6038    0.6449 H       1  UNL1        0.0232
     13 H          -1.2532   -0.5458    2.1060 H       1  UNL1        0.0232
     14 H          -2.7396   -0.6717    1.0192 H       1  UNL1        0.0232
     15 H           0.3421    0.8836   -1.2811 H       1  UNL1        0.0283
     16 H          -0.1996   -0.8398   -1.2577 H       1  UNL1        0.0283
     17 H           0.8628   -1.1357    0.9437 H       1  UNL1        0.0455
     18 H           3.0095    0.0655   -0.9008 H       1  UNL1        0.0245
     19 H           3.0558   -1.5034   -0.0422 H       1  UNL1        0.0245
     20 H           2.0239   -1.3862   -1.4824 H       1  UNL1        0.0245
     21 H           1.6949    1.5781    0.3481 H       1  UNL1        0.1185
     22 H           2.5173    0.5816    1.5337 H       1  UNL1        0.1185
@<TRIPOS>BOND
     1     1     2    1
     2     2     3    1
     3     2     4    1
     4     4     5    1
     5     5     6    1
     6     5     7    1
     7     1     8    1
     8     1     9    1
     9     1    10    1
    10     2    11    1
    11     3    12    1
    12     3    13    1
    13     3    14    1
    14     4    15    1
    15     4    16    1
    16     5    17    1
    17     6    18    1
    18     6    19    1
    19     6    20    1
    20     7    21    1
    21     7    22    1
