@<TRIPOS>MOLECULE
*****
 66 71 0 0 0
SMALL
GASTEIGER

@<TRIPOS>ATOM
      1 O           2.9836    1.8162   -0.9911 O.2     1  UNL1       -0.2463
      2 C           3.2695    0.6114   -0.7536 C.ar    1  UNL1        0.3305
      3 N           4.5319    0.1000   -0.8134 N.ar    1  UNL1       -0.2895
      4 C           5.7826    0.7391   -1.1123 C.3     1  UNL1        0.0563
      5 C           6.5568    1.1792    0.0984 C.3     1  UNL1        0.0962
      6 O           7.7610    1.8145   -0.3067 O.3     1  UNL1       -0.3878
      7 C           5.8308    2.1283    1.0039 C.3     1  UNL1        0.0718
      8 O           4.6555    1.5725    1.5011 O.3     1  UNL1       -0.3924
      9 C           4.4439   -1.2103   -0.5011 C.ar    1  UNL1        0.0700
     10 C           5.3832   -2.2253   -0.3993 C.ar    1  UNL1       -0.0360
     11 C           5.0006   -3.5118   -0.0495 C.ar    1  UNL1       -0.0597
     12 C           3.6835   -3.7816    0.1973 C.ar    1  UNL1       -0.0597
     13 C           2.7618   -2.7722    0.0945 C.ar    1  UNL1       -0.0360
     14 C           3.1329   -1.4789   -0.2550 C.ar    1  UNL1        0.0702
     15 N           2.4006   -0.3371   -0.4140 N.ar    1  UNL1       -0.2889
     16 C           0.9909   -0.3049   -0.2396 C.3     1  UNL1        0.0417
     17 C           0.2994    0.4636   -1.3814 C.3     1  UNL1       -0.0191
     18 C          -1.1449    0.1426   -1.2258 C.3     1  UNL1        0.0008
     19 N          -1.7385    0.4635    0.0350 N.3     1  UNL1       -0.3019
     20 C          -2.8252   -0.4771    0.2828 C.3     1  UNL1        0.0025
     21 C          -3.9579   -0.3093   -0.6512 C.3     1  UNL1       -0.0195
     22 C          -5.0851   -1.2918   -0.4046 C.3     1  UNL1       -0.0363
     23 C          -5.8198   -0.9767    0.8647 C.3     1  UNL1       -0.0496
     24 C          -6.7527    0.2046    0.5599 C.3     1  UNL1       -0.0494
     25 C          -6.1786    0.6647   -0.7608 C.3     1  UNL1       -0.0348
     26 C          -6.0698   -0.7073   -1.4432 C.3     1  UNL1       -0.0465
     27 C          -4.7246    0.9915   -0.5237 C.3     1  UNL1       -0.0221
     28 C          -4.1422    2.2944   -0.7989 C.3     1  UNL1       -0.0463
     29 C          -4.4178    1.8428    0.6541 C.3     1  UNL1       -0.0463
     30 C          -0.9111    0.5081    1.1705 C.3     1  UNL1        0.0008
     31 C           0.5651    0.3972    0.9944 C.3     1  UNL1       -0.0191
     32 H           6.4587    0.0218   -1.6624 H       1  UNL1        0.0520
     33 H           5.5948    1.6401   -1.7457 H       1  UNL1        0.0520
     34 H           6.9124    0.3063    0.6980 H       1  UNL1        0.0634
     35 H           8.3399    1.2088   -0.8095 H       1  UNL1        0.2100
     36 H           6.5505    2.3919    1.8226 H       1  UNL1        0.0583
     37 H           5.5895    3.0512    0.4146 H       1  UNL1        0.0583
     38 H           4.7133    1.6463    2.5044 H       1  UNL1        0.2095
     39 H           6.4295   -2.0450   -0.5899 H       1  UNL1        0.0639
     40 H           5.7227   -4.3055    0.0311 H       1  UNL1        0.0618
     41 H           3.3788   -4.7815    0.4714 H       1  UNL1        0.0618
     42 H           1.7236   -3.0157    0.2973 H       1  UNL1        0.0639
     43 H           0.5293   -1.3299   -0.2963 H       1  UNL1        0.0530
     44 H           0.4611    1.5463   -1.1782 H       1  UNL1        0.0298
     45 H           0.6405    0.1403   -2.3633 H       1  UNL1        0.0298
     46 H          -1.2602   -0.9540   -1.4727 H       1  UNL1        0.0427
     47 H          -1.6962    0.6824   -2.0245 H       1  UNL1        0.0427
     48 H          -2.4065   -1.4923    0.1466 H       1  UNL1        0.0429
     49 H          -3.1104   -0.3745    1.3427 H       1  UNL1        0.0429
     50 H          -3.6273   -0.4699   -1.6952 H       1  UNL1        0.0321
     51 H          -4.8515   -2.3227   -0.5859 H       1  UNL1        0.0304
     52 H          -6.3748   -1.8442    1.2420 H       1  UNL1        0.0268
     53 H          -5.1447   -0.6131    1.6680 H       1  UNL1        0.0268
     54 H          -7.7942   -0.1739    0.4261 H       1  UNL1        0.0268
     55 H          -6.7419    0.9642    1.3415 H       1  UNL1        0.0268
     56 H          -6.7506    1.3842   -1.3061 H       1  UNL1        0.0306
     57 H          -7.0272   -1.2487   -1.4187 H       1  UNL1        0.0271
     58 H          -5.6047   -0.6517   -2.4307 H       1  UNL1        0.0271
     59 H          -3.0922    2.3866   -1.1004 H       1  UNL1        0.0271
     60 H          -4.7830    3.1257   -1.1513 H       1  UNL1        0.0271
     61 H          -3.5232    1.7272    1.2611 H       1  UNL1        0.0271
     62 H          -5.2519    2.3302    1.1758 H       1  UNL1        0.0271
     63 H          -1.2076   -0.2825    1.9235 H       1  UNL1        0.0427
     64 H          -1.1090    1.4673    1.7207 H       1  UNL1        0.0427
     65 H           1.0120    1.4306    0.9637 H       1  UNL1        0.0298
     66 H           1.0350   -0.0967    1.8712 H       1  UNL1        0.0298
@<TRIPOS>BOND
     1     1     2    2
     2     2     3   ar
     3     3     4    1
     4     4     5    1
     5     5     6    1
     6     5     7    1
     7     7     8    1
     8     3     9   ar
     9     9    10   ar
    10    10    11   ar
    11    11    12   ar
    12    12    13   ar
    13    13    14   ar
    14    14    15   ar
    15    15    16    1
    16    16    17    1
    17    17    18    1
    18    18    19    1
    19    19    20    1
    20    20    21    1
    21    21    22    1
    22    22    23    1
    23    23    24    1
    24    24    25    1
    25    25    26    1
    26    25    27    1
    27    27    28    1
    28    28    29    1
    29    19    30    1
    30    30    31    1
    31    15     2   ar
    32    31    16    1
    33    14     9   ar
    34    27    21    1
    35    26    22    1
    36    29    27    1
    37     4    32    1
    38     4    33    1
    39     5    34    1
    40     6    35    1
    41     7    36    1
    42     7    37    1
    43     8    38    1
    44    10    39    1
    45    11    40    1
    46    12    41    1
    47    13    42    1
    48    16    43    1
    49    17    44    1
    50    17    45    1
    51    18    46    1
    52    18    47    1
    53    20    48    1
    54    20    49    1
    55    21    50    1
    56    22    51    1
    57    23    52    1
    58    23    53    1
    59    24    54    1
    60    24    55    1
    61    25    56    1
    62    26    57    1
    63    26    58    1
    64    28    59    1
    65    28    60    1
    66    29    61    1
    67    29    62    1
    68    30    63    1
    69    30    64    1
    70    31    65    1
    71    31    66    1
