
     RDKit          3D

 56 57  0  0  0  0  0  0  0  0999 V2000
   -6.0243   -1.3167    3.2085 C   0  0  0  0  0  0  0  0  0  0  0  0
   -5.9618   -2.0438    1.8827 C   0  0  0  0  0  0  0  0  0  0  0  0
   -4.8378   -1.4698    1.0323 C   0  0  0  0  0  0  0  0  0  0  0  0
   -5.0282   -0.0218    0.7503 C   0  0  0  0  0  0  0  0  0  0  0  0
   -3.9096    0.4999   -0.1063 C   0  0  0  0  0  0  0  0  0  0  0  0
   -2.6119    0.3203    0.5963 C   0  0  0  0  0  0  0  0  0  0  0  0
   -1.4809    0.8211   -0.1662 N   0  0  0  0  0  0  0  0  0  0  0  0
   -0.2952    0.5748    0.6476 C   0  0  0  0  0  0  0  0  0  0  0  0
    0.6539   -0.3731   -0.1005 C   0  0  0  0  0  0  0  0  0  0  0  0
    0.9905    0.2654   -1.3257 N   0  0  0  0  0  0  0  0  0  0  0  0
    2.3720   -0.4018   -2.0947 S   0  0  0  0  0  6  0  0  0  0  0  0
    2.1930   -1.8585   -2.4100 O   0  0  0  0  0  0  0  0  0  0  0  0
    2.6121    0.3572   -3.3664 O   0  0  0  0  0  0  0  0  0  0  0  0
    3.7678   -0.2283   -1.0760 C   0  0  0  0  0  0  0  0  0  0  0  0
    4.0723   -1.2337   -0.1758 C   0  0  0  0  0  0  0  0  0  0  0  0
    5.1881   -1.0912    0.6360 C   0  0  0  0  0  0  0  0  0  0  0  0
    6.0139    0.0089    0.5906 C   0  0  0  0  0  0  0  0  0  0  0  0
    7.1250    0.1771    1.3820 O   0  0  0  0  0  0  0  0  0  0  0  0
    7.5617   -0.7556    2.3421 C   0  0  0  0  0  0  0  0  0  0  0  0
    5.6996    1.0052   -0.3116 C   0  0  0  0  0  0  0  0  0  0  0  0
    4.5921    0.8791   -1.1274 C   0  0  0  0  0  0  0  0  0  0  0  0
   -0.1388    0.3904   -2.1706 C   0  0  0  0  0  0  0  0  0  0  0  0
   -0.1866    1.6889   -2.8990 C   0  0  0  0  0  0  0  0  0  0  0  0
   -1.1152    1.9312   -3.7112 O   0  0  0  0  0  0  0  0  0  0  0  0
    0.8057    2.6831   -2.7001 N   0  0  0  0  0  0  0  0  0  0  0  0
    0.7030    3.8571   -3.4032 O   0  0  0  0  0  0  0  0  0  0  0  0
   -1.4031    0.1124   -1.4292 C   0  0  0  0  0  0  0  0  0  0  0  0
   -6.6312   -1.8773    3.9380 H   0  0  0  0  0  0  0  0  0  0  0  0
   -5.0273   -1.1547    3.6449 H   0  0  0  0  0  0  0  0  0  0  0  0
   -6.5157   -0.3205    3.0577 H   0  0  0  0  0  0  0  0  0  0  0  0
   -6.9349   -1.9143    1.3563 H   0  0  0  0  0  0  0  0  0  0  0  0
   -5.8137   -3.1111    2.0695 H   0  0  0  0  0  0  0  0  0  0  0  0
   -3.9177   -1.6329    1.6489 H   0  0  0  0  0  0  0  0  0  0  0  0
   -4.6902   -2.0388    0.0969 H   0  0  0  0  0  0  0  0  0  0  0  0
   -4.9567    0.5145    1.7406 H   0  0  0  0  0  0  0  0  0  0  0  0
   -6.0299    0.2233    0.3408 H   0  0  0  0  0  0  0  0  0  0  0  0
   -3.9542   -0.0786   -1.0619 H   0  0  0  0  0  0  0  0  0  0  0  0
   -4.0484    1.5724   -0.3779 H   0  0  0  0  0  0  0  0  0  0  0  0
   -2.4135   -0.7910    0.6726 H   0  0  0  0  0  0  0  0  0  0  0  0
   -2.6211    0.8235    1.5671 H   0  0  0  0  0  0  0  0  0  0  0  0
    0.2526    1.5531    0.6899 H   0  0  0  0  0  0  0  0  0  0  0  0
   -0.5388    0.1829    1.6467 H   0  0  0  0  0  0  0  0  0  0  0  0
    0.1264   -1.3233   -0.3102 H   0  0  0  0  0  0  0  0  0  0  0  0
    1.5302   -0.5960    0.5459 H   0  0  0  0  0  0  0  0  0  0  0  0
    3.4616   -2.1267   -0.0906 H   0  0  0  0  0  0  0  0  0  0  0  0
    5.4112   -1.8780    1.3281 H   0  0  0  0  0  0  0  0  0  0  0  0
    7.9736   -1.6762    1.8914 H   0  0  0  0  0  0  0  0  0  0  0  0
    8.3825   -0.2968    2.9276 H   0  0  0  0  0  0  0  0  0  0  0  0
    6.7602   -1.0617    3.0389 H   0  0  0  0  0  0  0  0  0  0  0  0
    6.3353    1.8966   -0.3755 H   0  0  0  0  0  0  0  0  0  0  0  0
    4.3664    1.6888   -1.8365 H   0  0  0  0  0  0  0  0  0  0  0  0
   -0.0505   -0.4071   -2.9662 H   0  0  0  0  0  0  0  0  0  0  0  0
    1.5882    2.5250   -2.0377 H   0  0  0  0  0  0  0  0  0  0  0  0
    0.4416    3.6275   -4.3378 H   0  0  0  0  0  0  0  0  0  0  0  0
   -1.6174   -0.9520   -1.2466 H   0  0  0  0  0  0  0  0  0  0  0  0
   -2.2262    0.5832   -2.0554 H   0  0  0  0  0  0  0  0  0  0  0  0
  1  2  1  0
  2  3  1  0
  3  4  1  0
  4  5  1  0
  5  6  1  0
  6  7  1  0
  7  8  1  0
  8  9  1  0
  9 10  1  0
 10 11  1  0
 11 12  2  0
 11 13  2  0
 11 14  1  0
 14 15  2  0
 15 16  1  0
 16 17  2  0
 17 18  1  0
 18 19  1  0
 17 20  1  0
 20 21  2  0
 10 22  1  0
 22 23  1  0
 23 24  2  0
 23 25  1  0
 25 26  1  0
 22 27  1  0
 27  7  1  0
 21 14  1  0
  1 28  1  0
  1 29  1  0
  1 30  1  0
  2 31  1  0
  2 32  1  0
  3 33  1  0
  3 34  1  0
  4 35  1  0
  4 36  1  0
  5 37  1  0
  5 38  1  0
  6 39  1  0
  6 40  1  0
  8 41  1  0
  8 42  1  0
  9 43  1  0
  9 44  1  0
 15 45  1  0
 16 46  1  0
 19 47  1  0
 19 48  1  0
 19 49  1  0
 20 50  1  0
 21 51  1  0
 22 52  1  0
 25 53  1  0
 26 54  1  0
 27 55  1  0
 27 56  1  0
M  END
$$$$
