@<TRIPOS>MOLECULE
*****
 56 57 0 0 0
SMALL
GASTEIGER

@<TRIPOS>ATOM
      1 C          -6.0243   -1.3167    3.2085 C.3     1  UNL1       -0.0653
      2 C          -5.9618   -2.0438    1.8827 C.3     1  UNL1       -0.0559
      3 C          -4.8378   -1.4698    1.0323 C.3     1  UNL1       -0.0533
      4 C          -5.0282   -0.0218    0.7503 C.3     1  UNL1       -0.0519
      5 C          -3.9096    0.4999   -0.1063 C.3     1  UNL1       -0.0402
      6 C          -2.6119    0.3203    0.5963 C.3     1  UNL1       -0.0010
      7 N          -1.4809    0.8211   -0.1662 N.3     1  UNL1       -0.2991
      8 C          -0.2952    0.5748    0.6476 C.3     1  UNL1        0.0134
      9 C           0.6539   -0.3731   -0.1005 C.3     1  UNL1        0.0341
     10 N           0.9905    0.2654   -1.3257 N.3     1  UNL1       -0.1622
     11 S           2.3720   -0.4018   -2.0947 S.O2    1  UNL1        0.0616
     12 O           2.1930   -1.8585   -2.4100 O.2     1  UNL1       -0.1528
     13 O           2.6121    0.3572   -3.3664 O.2     1  UNL1       -0.1528
     14 C           3.7678   -0.2283   -1.0760 C.ar    1  UNL1        0.1057
     15 C           4.0723   -1.2337   -0.1758 C.ar    1  UNL1       -0.0319
     16 C           5.1881   -1.0912    0.6360 C.ar    1  UNL1       -0.0181
     17 C           6.0139    0.0089    0.5906 C.ar    1  UNL1        0.1202
     18 O           7.1250    0.1771    1.3820 O.3     1  UNL1       -0.4951
     19 C           7.5617   -0.7556    2.3421 C.3     1  UNL1        0.0788
     20 C           5.6996    1.0052   -0.3116 C.ar    1  UNL1       -0.0181
     21 C           4.5921    0.8791   -1.1274 C.ar    1  UNL1       -0.0319
     22 C          -0.1388    0.3904   -2.1706 C.3     1  UNL1        0.1223
     23 C          -0.1866    1.6889   -2.8990 C.2     1  UNL1        0.2556
     24 O          -1.1152    1.9312   -3.7112 O.2     1  UNL1       -0.2719
     25 N           0.8057    2.6831   -2.7001 N.am    1  UNL1       -0.1961
     26 O           0.7030    3.8571   -3.4032 O.3     1  UNL1       -0.2951
     27 C          -1.4031    0.1124   -1.4292 C.3     1  UNL1        0.0247
     28 H          -6.6312   -1.8773    3.9380 H       1  UNL1        0.0230
     29 H          -5.0273   -1.1547    3.6449 H       1  UNL1        0.0230
     30 H          -6.5157   -0.3205    3.0577 H       1  UNL1        0.0230
     31 H          -6.9349   -1.9143    1.3563 H       1  UNL1        0.0263
     32 H          -5.8137   -3.1111    2.0695 H       1  UNL1        0.0263
     33 H          -3.9177   -1.6329    1.6489 H       1  UNL1        0.0265
     34 H          -4.6902   -2.0388    0.0969 H       1  UNL1        0.0265
     35 H          -4.9567    0.5145    1.7406 H       1  UNL1        0.0266
     36 H          -6.0299    0.2233    0.3408 H       1  UNL1        0.0266
     37 H          -3.9542   -0.0786   -1.0619 H       1  UNL1        0.0278
     38 H          -4.0484    1.5724   -0.3779 H       1  UNL1        0.0278
     39 H          -2.4135   -0.7910    0.6726 H       1  UNL1        0.0426
     40 H          -2.6211    0.8235    1.5671 H       1  UNL1        0.0426
     41 H           0.2526    1.5531    0.6899 H       1  UNL1        0.0440
     42 H          -0.5388    0.1829    1.6467 H       1  UNL1        0.0440
     43 H           0.1264   -1.3233   -0.3102 H       1  UNL1        0.0457
     44 H           1.5302   -0.5960    0.5459 H       1  UNL1        0.0457
     45 H           3.4616   -2.1267   -0.0906 H       1  UNL1        0.0638
     46 H           5.4112   -1.8780    1.3281 H       1  UNL1        0.0655
     47 H           7.9736   -1.6762    1.8914 H       1  UNL1        0.0660
     48 H           8.3825   -0.2968    2.9276 H       1  UNL1        0.0660
     49 H           6.7602   -1.0617    3.0389 H       1  UNL1        0.0660
     50 H           6.3353    1.8966   -0.3755 H       1  UNL1        0.0655
     51 H           4.3664    1.6888   -1.8365 H       1  UNL1        0.0638
     52 H          -0.0505   -0.4071   -2.9662 H       1  UNL1        0.0589
     53 H           1.5882    2.5250   -2.0377 H       1  UNL1        0.1822
     54 H           0.4416    3.6275   -4.3378 H       1  UNL1        0.2414
     55 H          -1.6174   -0.9520   -1.2466 H       1  UNL1        0.0447
     56 H          -2.2262    0.5832   -2.0554 H       1  UNL1        0.0447
@<TRIPOS>BOND
     1     1     2    1
     2     2     3    1
     3     3     4    1
     4     4     5    1
     5     5     6    1
     6     6     7    1
     7     7     8    1
     8     8     9    1
     9     9    10    1
    10    10    11    1
    11    11    12    2
    12    11    13    2
    13    11    14    1
    14    14    15   ar
    15    15    16   ar
    16    16    17   ar
    17    17    18    1
    18    18    19    1
    19    17    20   ar
    20    20    21   ar
    21    10    22    1
    22    22    23    1
    23    23    24    2
    24    23    25   am
    25    25    26    1
    26    22    27    1
    27    27     7    1
    28    21    14   ar
    29     1    28    1
    30     1    29    1
    31     1    30    1
    32     2    31    1
    33     2    32    1
    34     3    33    1
    35     3    34    1
    36     4    35    1
    37     4    36    1
    38     5    37    1
    39     5    38    1
    40     6    39    1
    41     6    40    1
    42     8    41    1
    43     8    42    1
    44     9    43    1
    45     9    44    1
    46    15    45    1
    47    16    46    1
    48    19    47    1
    49    19    48    1
    50    19    49    1
    51    20    50    1
    52    21    51    1
    53    22    52    1
    54    25    53    1
    55    26    54    1
    56    27    55    1
    57    27    56    1
