
     RDKit          3D

 45 48  0  0  0  0  0  0  0  0999 V2000
    7.6333    0.6064    0.0568 C   0  0  0  0  0  0  0  0  0  0  0  0
    7.2972   -0.7398    1.1205 S   0  0  0  0  0  0  0  0  0  0  0  0
    7.4989   -2.0287    0.3648 O   0  0  0  0  0  0  0  0  0  0  0  0
    8.3202   -0.7531    2.2372 O   0  0  0  0  0  0  0  0  0  0  0  0
    5.7125   -0.7054    1.7827 N   0  0  0  0  0  0  0  0  0  0  0  0
    4.5889   -0.7665    0.9468 C   0  0  0  0  0  0  0  0  0  0  0  0
    3.5699    0.1293    1.2378 C   0  0  0  0  0  0  0  0  0  0  0  0
    2.4212    0.1214    0.4447 C   0  0  0  0  0  0  0  0  0  0  0  0
    1.3705    1.0353    0.7363 N   0  0  0  0  0  0  0  0  0  0  0  0
    0.1469    1.1291    0.0059 C   0  0  0  0  0  0  0  0  0  0  0  0
   -0.8768    0.3504    0.4215 N   0  0  0  0  0  0  0  0  0  0  0  0
   -2.0572    0.3897   -0.2212 C   0  0  0  0  0  0  0  0  0  0  0  0
   -3.0749   -0.4521    0.2716 N   0  0  0  0  0  0  0  0  0  0  0  0
   -4.4025   -0.6155   -0.2026 C   0  0  0  0  0  0  0  0  0  0  0  0
   -4.7518   -1.5539   -1.1752 C   0  0  0  0  0  0  0  0  0  0  0  0
   -3.5108   -2.5753   -1.8453 Cl  0  0  0  0  0  0  0  0  0  0  0  0
   -6.0406   -1.6927   -1.6159 C   0  0  0  0  0  0  0  0  0  0  0  0
   -7.0492   -0.9142   -1.1204 C   0  0  0  0  0  0  0  0  0  0  0  0
   -6.7282    0.0191   -0.1595 C   0  0  0  0  0  0  0  0  0  0  0  0
   -5.4222    0.1786    0.3048 C   0  0  0  0  0  0  0  0  0  0  0  0
   -5.4139    1.1950    1.2694 O   0  0  0  0  0  0  0  0  0  0  0  0
   -6.6007    1.9412    1.0215 C   0  0  0  0  0  0  0  0  0  0  0  0
   -7.5155    0.9518    0.5352 O   0  0  0  0  0  0  0  0  0  0  0  0
   -2.2975    1.1914   -1.3021 C   0  0  0  0  0  0  0  0  0  0  0  0
   -1.2313    1.9829   -1.7116 C   0  0  0  0  0  0  0  0  0  0  0  0
   -0.0542    1.9349   -1.0603 N   0  0  0  0  0  0  0  0  0  0  0  0
    2.2748   -0.7449   -0.6099 C   0  0  0  0  0  0  0  0  0  0  0  0
    3.2850   -1.6476   -0.9144 C   0  0  0  0  0  0  0  0  0  0  0  0
    4.4176   -1.6348   -0.1268 C   0  0  0  0  0  0  0  0  0  0  0  0
    8.6847    0.9336    0.1973 H   0  0  0  0  0  0  0  0  0  0  0  0
    6.9938    1.4873    0.2229 H   0  0  0  0  0  0  0  0  0  0  0  0
    7.5171    0.3406   -1.0150 H   0  0  0  0  0  0  0  0  0  0  0  0
    5.5610   -0.6390    2.8077 H   0  0  0  0  0  0  0  0  0  0  0  0
    3.6128    0.8483    2.0593 H   0  0  0  0  0  0  0  0  0  0  0  0
    1.4047    1.7191    1.5134 H   0  0  0  0  0  0  0  0  0  0  0  0
   -2.9741   -1.0890    1.0835 H   0  0  0  0  0  0  0  0  0  0  0  0
   -6.2668   -2.4395   -2.3774 H   0  0  0  0  0  0  0  0  0  0  0  0
   -8.0677   -1.0188   -1.4638 H   0  0  0  0  0  0  0  0  0  0  0  0
   -6.9238    2.3863    1.9769 H   0  0  0  0  0  0  0  0  0  0  0  0
   -6.4450    2.6764    0.2051 H   0  0  0  0  0  0  0  0  0  0  0  0
   -3.2253    1.2413   -1.8300 H   0  0  0  0  0  0  0  0  0  0  0  0
   -1.3104    2.6651   -2.5681 H   0  0  0  0  0  0  0  0  0  0  0  0
    1.3960   -0.7819   -1.2508 H   0  0  0  0  0  0  0  0  0  0  0  0
    3.2710   -2.3694   -1.7191 H   0  0  0  0  0  0  0  0  0  0  0  0
    5.2624   -2.2924   -0.2743 H   0  0  0  0  0  0  0  0  0  0  0  0
  1  2  1  0
  2  3  2  0
  2  4  2  0
  2  5  1  0
  5  6  1  0
  6  7  2  0
  7  8  1  0
  8  9  1  0
  9 10  1  0
 10 11  2  0
 11 12  1  0
 12 13  1  0
 13 14  1  0
 14 15  2  0
 15 16  1  0
 15 17  1  0
 17 18  2  0
 18 19  1  0
 19 20  2  0
 20 21  1  0
 21 22  1  0
 22 23  1  0
 12 24  2  0
 24 25  1  0
 25 26  2  0
  8 27  2  0
 27 28  1  0
 28 29  2  0
 29  6  1  0
 26 10  1  0
 20 14  1  0
 23 19  1  0
  1 30  1  0
  1 31  1  0
  1 32  1  0
  5 33  1  0
  7 34  1  0
  9 35  1  0
 13 36  1  0
 17 37  1  0
 18 38  1  0
 22 39  1  0
 22 40  1  0
 24 41  1  0
 25 42  1  0
 27 43  1  0
 28 44  1  0
 29 45  1  0
M  END
$$$$
