@<TRIPOS>MOLECULE
*****
 45 48 0 0 0
SMALL
GASTEIGER

@<TRIPOS>ATOM
      1 C           7.6333    0.6064    0.0568 C.3     1  UNL1        0.0736
      2 S           7.2972   -0.7398    1.1205 S.O2    1  UNL1        0.0403
      3 O           7.4989   -2.0287    0.3648 O.2     1  UNL1       -0.1555
      4 O           8.3202   -0.7531    2.2372 O.2     1  UNL1       -0.1555
      5 N           5.7125   -0.7054    1.7827 N.pl3   1  UNL1       -0.2208
      6 C           4.5889   -0.7665    0.9468 C.ar    1  UNL1        0.0494
      7 C           3.5699    0.1293    1.2378 C.ar    1  UNL1       -0.0181
      8 C           2.4212    0.1214    0.4447 C.ar    1  UNL1        0.0354
      9 N           1.3705    1.0353    0.7363 N.pl3   1  UNL1       -0.2835
     10 C           0.1469    1.1291    0.0059 C.ar    1  UNL1        0.2212
     11 N          -0.8768    0.3504    0.4215 N.ar    1  UNL1       -0.1992
     12 C          -2.0572    0.3897   -0.2212 C.ar    1  UNL1        0.1281
     13 N          -3.0749   -0.4521    0.2716 N.pl3   1  UNL1       -0.2952
     14 C          -4.4025   -0.6155   -0.2026 C.ar    1  UNL1        0.0970
     15 C          -4.7518   -1.5539   -1.1752 C.ar    1  UNL1        0.0659
     16 CL         -3.5108   -2.5753   -1.8453 Cl      1  UNL1       -0.0815
     17 C          -6.0406   -1.6927   -1.6159 C.ar    1  UNL1       -0.0379
     18 C          -7.0492   -0.9142   -1.1204 C.ar    1  UNL1       -0.0146
     19 C          -6.7282    0.0191   -0.1595 C.ar    1  UNL1        0.1682
     20 C          -5.4222    0.1786    0.3048 C.ar    1  UNL1        0.1887
     21 O          -5.4139    1.1950    1.2694 O.3     1  UNL1       -0.4507
     22 C          -6.6007    1.9412    1.0215 C.3     1  UNL1        0.2333
     23 O          -7.5155    0.9518    0.5352 O.3     1  UNL1       -0.4525
     24 C          -2.2975    1.1914   -1.3021 C.ar    1  UNL1       -0.0033
     25 C          -1.2313    1.9829   -1.7116 C.ar    1  UNL1        0.0344
     26 N          -0.0542    1.9349   -1.0603 N.ar    1  UNL1       -0.2225
     27 C           2.2748   -0.7449   -0.6099 C.ar    1  UNL1       -0.0404
     28 C           3.2850   -1.6476   -0.9144 C.ar    1  UNL1       -0.0582
     29 C           4.4176   -1.6348   -0.1268 C.ar    1  UNL1       -0.0392
     30 H           8.6847    0.9336    0.1973 H       1  UNL1        0.0482
     31 H           6.9938    1.4873    0.2229 H       1  UNL1        0.0482
     32 H           7.5171    0.3406   -1.0150 H       1  UNL1        0.0482
     33 H           5.5610   -0.6390    2.8077 H       1  UNL1        0.1733
     34 H           3.6128    0.8483    2.0593 H       1  UNL1        0.0655
     35 H           1.4047    1.7191    1.5134 H       1  UNL1        0.1550
     36 H          -2.9741   -1.0890    1.0835 H       1  UNL1        0.1537
     37 H          -6.2668   -2.4395   -2.3774 H       1  UNL1        0.0634
     38 H          -8.0677   -1.0188   -1.4638 H       1  UNL1        0.0656
     39 H          -6.9238    2.3863    1.9769 H       1  UNL1        0.1166
     40 H          -6.4450    2.6764    0.2051 H       1  UNL1        0.1166
     41 H          -3.2253    1.2413   -1.8300 H       1  UNL1        0.0667
     42 H          -1.3104    2.6651   -2.5681 H       1  UNL1        0.0832
     43 H           1.3960   -0.7819   -1.2508 H       1  UNL1        0.0636
     44 H           3.2710   -2.3694   -1.7191 H       1  UNL1        0.0619
     45 H           5.2624   -2.2924   -0.2743 H       1  UNL1        0.0636
@<TRIPOS>BOND
     1     1     2    1
     2     2     3    2
     3     2     4    2
     4     2     5    1
     5     5     6    1
     6     6     7   ar
     7     7     8   ar
     8     8     9    1
     9     9    10    1
    10    10    11   ar
    11    11    12   ar
    12    12    13    1
    13    13    14    1
    14    14    15   ar
    15    15    16    1
    16    15    17   ar
    17    17    18   ar
    18    18    19   ar
    19    19    20   ar
    20    20    21    1
    21    21    22    1
    22    22    23    1
    23    12    24   ar
    24    24    25   ar
    25    25    26   ar
    26     8    27   ar
    27    27    28   ar
    28    28    29   ar
    29    29     6   ar
    30    26    10   ar
    31    20    14   ar
    32    23    19    1
    33     1    30    1
    34     1    31    1
    35     1    32    1
    36     5    33    1
    37     7    34    1
    38     9    35    1
    39    13    36    1
    40    17    37    1
    41    18    38    1
    42    22    39    1
    43    22    40    1
    44    24    41    1
    45    25    42    1
    46    27    43    1
    47    28    44    1
    48    29    45    1
