
     RDKit          3D

 56 59  0  0  0  0  0  0  0  0999 V2000
    2.9206   -1.1464   -1.5361 C   0  0  0  0  0  0  0  0  0  0  0  0
    2.9073    0.2684   -0.9772 C   0  0  0  0  0  0  0  0  0  0  0  0
    2.8511    1.1705   -2.2331 C   0  0  0  0  0  0  0  0  0  0  0  0
    4.0391    0.6085   -0.3049 O   0  0  0  0  0  0  0  0  0  0  0  0
    4.7286    0.1899    0.7558 C   0  0  0  0  0  0  0  0  0  0  0  0
    4.5305    0.6720    2.0204 C   0  0  0  0  0  0  0  0  0  0  0  0
    5.2595    0.2234    3.1313 C   0  0  0  0  0  0  0  0  0  0  0  0
    6.2234   -0.7471    2.9536 C   0  0  0  0  0  0  0  0  0  0  0  0
    6.9084   -1.1575    4.0469 F   0  0  0  0  0  0  0  0  0  0  0  0
    6.4509   -1.2558    1.6903 C   0  0  0  0  0  0  0  0  0  0  0  0
    5.7147   -0.7951    0.6025 C   0  0  0  0  0  0  0  0  0  0  0  0
    6.1059   -1.5035   -0.9429 Cl  0  0  0  0  0  0  0  0  0  0  0  0
    1.6367    0.4420   -0.2837 C   0  0  0  0  0  0  0  0  0  0  0  0
    1.5870    0.8006    0.8913 O   0  0  0  0  0  0  0  0  0  0  0  0
    0.3757    0.2133   -0.9096 N   0  0  0  0  0  0  0  0  0  0  0  0
   -0.8860    0.3591   -0.2984 C   0  0  1  0  0  0  0  0  0  0  0  0
   -1.8498    1.3010   -0.9197 C   0  0  0  0  0  0  0  0  0  0  0  0
   -2.4586    0.8346   -2.1994 C   0  0  0  0  0  0  0  0  0  0  0  0
   -3.0887   -0.5329   -2.0674 C   0  0  0  0  0  0  0  0  0  0  0  0
   -2.0181   -1.4722   -1.5604 C   0  0  0  0  0  0  0  0  0  0  0  0
   -1.5432   -1.0053   -0.2087 C   0  0  0  0  0  0  0  0  0  0  0  0
   -2.7294   -0.9623    0.7299 C   0  0  0  0  0  0  0  0  0  0  0  0
   -3.6853    0.0873    0.2143 C   0  0  2  0  0  0  0  0  0  0  0  0
   -4.9813    0.2519    1.4270 S   0  0  0  0  0  6  0  0  0  0  0  0
   -4.3308    0.7473    2.9902 C   0  0  0  0  0  0  0  0  0  0  0  0
   -5.9496    1.2954    0.9415 O   0  0  0  0  0  0  0  0  0  0  0  0
   -5.7409   -1.0306    1.5916 O   0  0  0  0  0  0  0  0  0  0  0  0
   -4.2424   -0.4079   -1.0923 C   0  0  0  0  0  0  0  0  0  0  0  0
   -3.0168    1.4206    0.0809 C   0  0  0  0  0  0  0  0  0  0  0  0
    3.1665   -1.9037   -0.7512 H   0  0  0  0  0  0  0  0  0  0  0  0
    3.5421   -1.1813   -2.4274 H   0  0  0  0  0  0  0  0  0  0  0  0
    1.8859   -1.3797   -1.8496 H   0  0  0  0  0  0  0  0  0  0  0  0
    1.8051    1.4077   -2.4833 H   0  0  0  0  0  0  0  0  0  0  0  0
    3.2938    0.6675   -3.1003 H   0  0  0  0  0  0  0  0  0  0  0  0
    3.4227    2.1068   -2.0502 H   0  0  0  0  0  0  0  0  0  0  0  0
    3.7948    1.4404    2.1725 H   0  0  0  0  0  0  0  0  0  0  0  0
    5.0428    0.6564    4.1083 H   0  0  0  0  0  0  0  0  0  0  0  0
    7.2133   -2.0121    1.5976 H   0  0  0  0  0  0  0  0  0  0  0  0
    0.3964   -0.0793   -1.9071 H   0  0  0  0  0  0  0  0  0  0  0  0
   -0.7273    0.6860    0.7643 H   0  0  0  0  0  0  0  0  0  0  0  0
   -1.4978    2.3260   -1.0437 H   0  0  0  0  0  0  0  0  0  0  0  0
   -3.2971    1.5411   -2.4467 H   0  0  0  0  0  0  0  0  0  0  0  0
   -1.7811    0.8223   -3.0570 H   0  0  0  0  0  0  0  0  0  0  0  0
   -3.4107   -0.8760   -3.0636 H   0  0  0  0  0  0  0  0  0  0  0  0
   -2.3533   -2.5150   -1.4869 H   0  0  0  0  0  0  0  0  0  0  0  0
   -1.1768   -1.4135   -2.2805 H   0  0  0  0  0  0  0  0  0  0  0  0
   -0.7953   -1.7276    0.1574 H   0  0  0  0  0  0  0  0  0  0  0  0
   -3.2441   -1.9456    0.6261 H   0  0  0  0  0  0  0  0  0  0  0  0
   -2.4370   -0.8267    1.7706 H   0  0  0  0  0  0  0  0  0  0  0  0
   -5.1810    0.9973    3.6525 H   0  0  0  0  0  0  0  0  0  0  0  0
   -3.7682   -0.1080    3.4179 H   0  0  0  0  0  0  0  0  0  0  0  0
   -3.6675    1.6243    2.9048 H   0  0  0  0  0  0  0  0  0  0  0  0
   -4.7109   -1.3860   -0.9278 H   0  0  0  0  0  0  0  0  0  0  0  0
   -4.9379    0.3441   -1.5322 H   0  0  0  0  0  0  0  0  0  0  0  0
   -2.5964    1.7103    1.0537 H   0  0  0  0  0  0  0  0  0  0  0  0
   -3.6997    2.1548   -0.3523 H   0  0  0  0  0  0  0  0  0  0  0  0
  1  2  1  0
  2  3  1  0
  2  4  1  0
  4  5  1  0
  5  6  2  0
  6  7  1  0
  7  8  2  0
  8  9  1  0
  8 10  1  0
 10 11  2  0
 11 12  1  0
  2 13  1  0
 13 14  2  0
 13 15  1  0
 15 16  1  0
 16 17  1  0
 17 18  1  0
 18 19  1  0
 19 20  1  0
 20 21  1  0
 21 22  1  0
 22 23  1  0
 23 24  1  1
 24 25  1  0
 24 26  2  0
 24 27  2  0
 23 28  1  0
 23 29  1  0
 11  5  1  0
 21 16  1  0
 29 17  1  0
 28 19  1  0
  1 30  1  0
  1 31  1  0
  1 32  1  0
  3 33  1  0
  3 34  1  0
  3 35  1  0
  6 36  1  0
  7 37  1  0
 10 38  1  0
 15 39  1  0
 16 40  1  1
 17 41  1  0
 18 42  1  0
 18 43  1  0
 19 44  1  0
 20 45  1  0
 20 46  1  0
 21 47  1  0
 22 48  1  0
 22 49  1  0
 25 50  1  0
 25 51  1  0
 25 52  1  0
 28 53  1  0
 28 54  1  0
 29 55  1  0
 29 56  1  0
M  END
$$$$
