@<TRIPOS>MOLECULE
*****
 56 59 0 0 0
SMALL
GASTEIGER

@<TRIPOS>ATOM
      1 C           2.9206   -1.1464   -1.5361 C.3     1  UNL1       -0.0165
      2 C           2.9073    0.2684   -0.9772 C.3     1  UNL1        0.1800
      3 C           2.8511    1.1705   -2.2331 C.3     1  UNL1       -0.0165
      4 O           4.0391    0.6085   -0.3049 O.3     1  UNL1       -0.4756
      5 C           4.7286    0.1899    0.7558 C.ar    1  UNL1        0.1404
      6 C           4.5305    0.6720    2.0204 C.ar    1  UNL1       -0.0157
      7 C           5.2595    0.2234    3.1313 C.ar    1  UNL1       -0.0229
      8 C           6.2234   -0.7471    2.9536 C.ar    1  UNL1        0.1250
      9 F           6.9084   -1.1575    4.0469 F       1  UNL1       -0.2054
     10 C           6.4509   -1.2558    1.6903 C.ar    1  UNL1       -0.0046
     11 C           5.7147   -0.7951    0.6025 C.ar    1  UNL1        0.0853
     12 CL          6.1059   -1.5035   -0.9429 Cl      1  UNL1       -0.0797
     13 C           1.6367    0.4420   -0.2837 C.2     1  UNL1        0.2566
     14 O           1.5870    0.8006    0.8913 O.2     1  UNL1       -0.2714
     15 N           0.3757    0.2133   -0.9096 N.am    1  UNL1       -0.3087
     16 C          -0.8860    0.3591   -0.2984 C.3     1  UNL1        0.0290
     17 C          -1.8498    1.3010   -0.9197 C.3     1  UNL1       -0.0201
     18 C          -2.4586    0.8346   -2.1994 C.3     1  UNL1       -0.0455
     19 C          -3.0887   -0.5329   -2.0674 C.3     1  UNL1       -0.0384
     20 C          -2.0181   -1.4722   -1.5604 C.3     1  UNL1       -0.0455
     21 C          -1.5432   -1.0053   -0.2087 C.3     1  UNL1       -0.0201
     22 C          -2.7294   -0.9623    0.7299 C.3     1  UNL1       -0.0233
     23 C          -3.6853    0.0873    0.2143 C.3     1  UNL1        0.0884
     24 S          -4.9813    0.2519    1.4270 S.O2    1  UNL1       -0.0282
     25 C          -4.3308    0.7473    2.9902 C.3     1  UNL1        0.0551
     26 O          -5.9496    1.2954    0.9415 O.2     1  UNL1       -0.1741
     27 O          -5.7409   -1.0306    1.5916 O.2     1  UNL1       -0.1741
     28 C          -4.2424   -0.4079   -1.0923 C.3     1  UNL1       -0.0250
     29 C          -3.0168    1.4206    0.0809 C.3     1  UNL1       -0.0233
     30 H           3.1665   -1.9037   -0.7512 H       1  UNL1        0.0273
     31 H           3.5421   -1.1813   -2.4274 H       1  UNL1        0.0273
     32 H           1.8859   -1.3797   -1.8496 H       1  UNL1        0.0273
     33 H           1.8051    1.4077   -2.4833 H       1  UNL1        0.0273
     34 H           3.2938    0.6675   -3.1003 H       1  UNL1        0.0273
     35 H           3.4227    2.1068   -2.0502 H       1  UNL1        0.0273
     36 H           3.7948    1.4404    2.1725 H       1  UNL1        0.0655
     37 H           5.0428    0.6564    4.1083 H       1  UNL1        0.0647
     38 H           7.2133   -2.0121    1.5976 H       1  UNL1        0.0662
     39 H           0.3964   -0.0793   -1.9071 H       1  UNL1        0.1491
     40 H          -0.7273    0.6860    0.7643 H       1  UNL1        0.0504
     41 H          -1.4978    2.3260   -1.0437 H       1  UNL1        0.0319
     42 H          -3.2971    1.5411   -2.4467 H       1  UNL1        0.0271
     43 H          -1.7811    0.8223   -3.0570 H       1  UNL1        0.0271
     44 H          -3.4107   -0.8760   -3.0636 H       1  UNL1        0.0302
     45 H          -2.3533   -2.5150   -1.4869 H       1  UNL1        0.0271
     46 H          -1.1768   -1.4135   -2.2805 H       1  UNL1        0.0271
     47 H          -0.7953   -1.7276    0.1574 H       1  UNL1        0.0319
     48 H          -3.2441   -1.9456    0.6261 H       1  UNL1        0.0290
     49 H          -2.4370   -0.8267    1.7706 H       1  UNL1        0.0290
     50 H          -5.1810    0.9973    3.6525 H       1  UNL1        0.0464
     51 H          -3.7682   -0.1080    3.4179 H       1  UNL1        0.0464
     52 H          -3.6675    1.6243    2.9048 H       1  UNL1        0.0464
     53 H          -4.7109   -1.3860   -0.9278 H       1  UNL1        0.0289
     54 H          -4.9379    0.3441   -1.5322 H       1  UNL1        0.0289
     55 H          -2.5964    1.7103    1.0537 H       1  UNL1        0.0290
     56 H          -3.6997    2.1548   -0.3523 H       1  UNL1        0.0290
@<TRIPOS>BOND
     1     1     2    1
     2     2     3    1
     3     2     4    1
     4     4     5    1
     5     5     6   ar
     6     6     7   ar
     7     7     8   ar
     8     8     9    1
     9     8    10   ar
    10    10    11   ar
    11    11    12    1
    12     2    13    1
    13    13    14    2
    14    13    15   am
    15    15    16    1
    16    16    17    1
    17    17    18    1
    18    18    19    1
    19    19    20    1
    20    20    21    1
    21    21    22    1
    22    22    23    1
    23    23    24    1
    24    24    25    1
    25    24    26    2
    26    24    27    2
    27    23    28    1
    28    23    29    1
    29    11     5   ar
    30    21    16    1
    31    29    17    1
    32    28    19    1
    33     1    30    1
    34     1    31    1
    35     1    32    1
    36     3    33    1
    37     3    34    1
    38     3    35    1
    39     6    36    1
    40     7    37    1
    41    10    38    1
    42    15    39    1
    43    16    40    1
    44    17    41    1
    45    18    42    1
    46    18    43    1
    47    19    44    1
    48    20    45    1
    49    20    46    1
    50    21    47    1
    51    22    48    1
    52    22    49    1
    53    25    50    1
    54    25    51    1
    55    25    52    1
    56    28    53    1
    57    28    54    1
    58    29    55    1
    59    29    56    1
