
     RDKit          3D

 64 68  0  0  0  0  0  0  0  0999 V2000
   -0.2595   -0.8976   -1.8793 O   0  0  0  0  0  0  0  0  0  0  0  0
   -0.2429   -0.2491   -0.7767 C   0  0  0  0  0  0  0  0  0  0  0  0
    1.0174   -0.1418   -0.1792 N   0  0  0  0  0  0  0  0  0  0  0  0
    2.2285   -0.7084   -0.7523 C   0  0  0  0  0  0  0  0  0  0  0  0
    2.8108   -1.6811    0.2187 C   0  0  0  0  0  0  0  0  0  0  0  0
    4.2233   -1.3218    0.6445 C   0  0  0  0  0  0  0  0  0  0  0  0
    5.1372   -1.1159   -0.5201 C   0  0  0  0  0  0  0  0  0  0  0  0
    4.4549   -0.4033   -1.6617 C   0  0  0  0  0  0  0  0  0  0  0  0
    3.2168    0.3458   -1.1837 C   0  0  0  0  0  0  0  0  0  0  0  0
   -1.5220    0.3199   -0.2307 C   0  0  2  0  0  0  0  0  0  0  0  0
   -1.6243    1.7748   -0.4598 C   0  0  0  0  0  0  0  0  0  0  0  0
   -1.5917    2.0563   -2.0007 C   0  0  0  0  0  0  0  0  0  0  0  0
   -0.5914    3.0761   -2.3812 C   0  0  0  0  0  0  0  0  0  0  0  0
   -0.6105    4.3183   -1.5167 C   0  0  0  0  0  0  0  0  0  0  0  0
   -0.5780    3.9999   -0.0586 C   0  0  0  0  0  0  0  0  0  0  0  0
   -0.3947    2.4825    0.0542 C   0  0  0  0  0  0  0  0  0  0  0  0
   -1.9035   -0.2594    1.0015 N   0  0  0  0  0  0  0  0  0  0  0  0
   -1.9346   -1.6314    1.1843 C   0  0  0  0  0  0  0  0  0  0  0  0
   -1.6052   -2.6347    0.1689 C   0  0  0  0  0  0  0  0  0  0  0  0
   -0.4195   -3.3346    0.1868 C   0  0  0  0  0  0  0  0  0  0  0  0
   -0.1294   -4.2978   -0.7804 C   0  0  0  0  0  0  0  0  0  0  0  0
   -1.0429   -4.5450   -1.7589 C   0  0  0  0  0  0  0  0  0  0  0  0
   -0.6859   -5.7537   -2.9780 Cl  0  0  0  0  0  0  0  0  0  0  0  0
   -2.2365   -3.8473   -1.7851 C   0  0  0  0  0  0  0  0  0  0  0  0
   -2.5176   -2.8992   -0.8298 C   0  0  0  0  0  0  0  0  0  0  0  0
   -2.3185   -1.9018    2.4088 N   0  0  0  0  0  0  0  0  0  0  0  0
   -2.5549   -0.7890    3.0811 C   0  0  0  0  0  0  0  0  0  0  0  0
   -2.9770   -0.5105    4.3780 C   0  0  0  0  0  0  0  0  0  0  0  0
   -3.1560    0.7664    4.8449 C   0  0  0  0  0  0  0  0  0  0  0  0
   -3.5673    1.0405    6.1083 F   0  0  0  0  0  0  0  0  0  0  0  0
   -2.8966    1.7826    3.9620 C   0  0  0  0  0  0  0  0  0  0  0  0
   -3.0847    3.4710    4.4254 Cl  0  0  0  0  0  0  0  0  0  0  0  0
   -2.4742    1.5350    2.6626 C   0  0  0  0  0  0  0  0  0  0  0  0
   -2.2906    0.2559    2.1836 C   0  0  0  0  0  0  0  0  0  0  0  0
    1.1312    0.3416    0.7136 H   0  0  0  0  0  0  0  0  0  0  0  0
    1.9185   -1.2299   -1.6869 H   0  0  0  0  0  0  0  0  0  0  0  0
    2.8222   -2.7004   -0.1828 H   0  0  0  0  0  0  0  0  0  0  0  0
    2.2178   -1.7147    1.1793 H   0  0  0  0  0  0  0  0  0  0  0  0
    4.6036   -2.2053    1.2226 H   0  0  0  0  0  0  0  0  0  0  0  0
    4.2424   -0.4297    1.2892 H   0  0  0  0  0  0  0  0  0  0  0  0
    5.5362   -2.1021   -0.8825 H   0  0  0  0  0  0  0  0  0  0  0  0
    6.0129   -0.5306   -0.1763 H   0  0  0  0  0  0  0  0  0  0  0  0
    4.0925   -1.1825   -2.3822 H   0  0  0  0  0  0  0  0  0  0  0  0
    5.1656    0.2898   -2.1485 H   0  0  0  0  0  0  0  0  0  0  0  0
    2.7967    0.8442   -2.0856 H   0  0  0  0  0  0  0  0  0  0  0  0
    3.5291    1.0287   -0.3968 H   0  0  0  0  0  0  0  0  0  0  0  0
   -2.3039   -0.1185   -0.9750 H   0  0  0  0  0  0  0  0  0  0  0  0
   -2.5811    2.2287   -0.1773 H   0  0  0  0  0  0  0  0  0  0  0  0
   -1.2969    1.0934   -2.4586 H   0  0  0  0  0  0  0  0  0  0  0  0
   -2.5913    2.2836   -2.3808 H   0  0  0  0  0  0  0  0  0  0  0  0
   -0.9005    3.4481   -3.4058 H   0  0  0  0  0  0  0  0  0  0  0  0
    0.4429    2.7040   -2.5515 H   0  0  0  0  0  0  0  0  0  0  0  0
   -1.4913    4.9535   -1.7438 H   0  0  0  0  0  0  0  0  0  0  0  0
    0.2904    4.9133   -1.7752 H   0  0  0  0  0  0  0  0  0  0  0  0
    0.3226    4.4389    0.4619 H   0  0  0  0  0  0  0  0  0  0  0  0
   -1.4558    4.3510    0.5052 H   0  0  0  0  0  0  0  0  0  0  0  0
   -0.1211    2.2162    1.0966 H   0  0  0  0  0  0  0  0  0  0  0  0
    0.4728    2.2298   -0.5799 H   0  0  0  0  0  0  0  0  0  0  0  0
    0.3214   -3.1595    0.9513 H   0  0  0  0  0  0  0  0  0  0  0  0
    0.7963   -4.8534   -0.7782 H   0  0  0  0  0  0  0  0  0  0  0  0
   -2.9376   -4.0632   -2.5680 H   0  0  0  0  0  0  0  0  0  0  0  0
   -3.4614   -2.3796   -0.8897 H   0  0  0  0  0  0  0  0  0  0  0  0
   -3.1677   -1.3481    5.0332 H   0  0  0  0  0  0  0  0  0  0  0  0
   -2.2857    2.3517    1.9920 H   0  0  0  0  0  0  0  0  0  0  0  0
  1  2  2  0
  2  3  1  0
  3  4  1  0
  4  5  1  0
  5  6  1  0
  6  7  1  0
  7  8  1  0
  8  9  1  0
  2 10  1  0
 10 11  1  0
 11 12  1  0
 12 13  1  0
 13 14  1  0
 14 15  1  0
 15 16  1  0
 10 17  1  0
 17 18  1  0
 18 19  1  0
 19 20  2  0
 20 21  1  0
 21 22  2  0
 22 23  1  0
 22 24  1  0
 24 25  2  0
 18 26  2  0
 26 27  1  0
 27 28  2  0
 28 29  1  0
 29 30  1  0
 29 31  2  0
 31 32  1  0
 31 33  1  0
 33 34  2  0
  9  4  1  0
 16 11  1  0
 34 17  1  0
 25 19  1  0
 34 27  1  0
  3 35  1  0
  4 36  1  0
  5 37  1  0
  5 38  1  0
  6 39  1  0
  6 40  1  0
  7 41  1  0
  7 42  1  0
  8 43  1  0
  8 44  1  0
  9 45  1  0
  9 46  1  0
 10 47  1  6
 11 48  1  0
 12 49  1  0
 12 50  1  0
 13 51  1  0
 13 52  1  0
 14 53  1  0
 14 54  1  0
 15 55  1  0
 15 56  1  0
 16 57  1  0
 16 58  1  0
 20 59  1  0
 21 60  1  0
 24 61  1  0
 25 62  1  0
 28 63  1  0
 33 64  1  0
M  END
$$$$
