@<TRIPOS>MOLECULE
*****
 64 68 0 0 0
SMALL
GASTEIGER

@<TRIPOS>ATOM
      1 O          -0.2595   -0.8976   -1.8793 O.2     1  UNL1       -0.2735
      2 C          -0.2429   -0.2491   -0.7767 C.2     1  UNL1        0.2365
      3 N           1.0174   -0.1418   -0.1792 N.am    1  UNL1       -0.3107
      4 C           2.2285   -0.7084   -0.7523 C.3     1  UNL1        0.0232
      5 C           2.8108   -1.6811    0.2187 C.3     1  UNL1       -0.0345
      6 C           4.2233   -1.3218    0.6445 C.3     1  UNL1       -0.0514
      7 C           5.1372   -1.1159   -0.5201 C.3     1  UNL1       -0.0529
      8 C           4.4549   -0.4033   -1.6617 C.3     1  UNL1       -0.0514
      9 C           3.2168    0.3458   -1.1837 C.3     1  UNL1       -0.0345
     10 C          -1.5220    0.3199   -0.2307 C.3     1  UNL1        0.1151
     11 C          -1.6243    1.7748   -0.4598 C.3     1  UNL1       -0.0116
     12 C          -1.5917    2.0563   -2.0007 C.3     1  UNL1       -0.0479
     13 C          -0.5914    3.0761   -2.3812 C.3     1  UNL1       -0.0527
     14 C          -0.6105    4.3183   -1.5167 C.3     1  UNL1       -0.0530
     15 C          -0.5780    3.9999   -0.0586 C.3     1  UNL1       -0.0527
     16 C          -0.3947    2.4825    0.0542 C.3     1  UNL1       -0.0479
     17 N          -1.9035   -0.2594    1.0015 N.ar    1  UNL1       -0.3112
     18 C          -1.9346   -1.6314    1.1843 C.ar    1  UNL1        0.1425
     19 C          -1.6052   -2.6347    0.1689 C.ar    1  UNL1        0.0176
     20 C          -0.4195   -3.3346    0.1868 C.ar    1  UNL1       -0.0497
     21 C          -0.1294   -4.2978   -0.7804 C.ar    1  UNL1       -0.0427
     22 C          -1.0429   -4.5450   -1.7589 C.ar    1  UNL1        0.0410
     23 CL         -0.6859   -5.7537   -2.9780 Cl      1  UNL1       -0.0835
     24 C          -2.2365   -3.8473   -1.7851 C.ar    1  UNL1       -0.0427
     25 C          -2.5176   -2.8992   -0.8298 C.ar    1  UNL1       -0.0497
     26 N          -2.3185   -1.9018    2.4088 N.ar    1  UNL1       -0.2274
     27 C          -2.5549   -0.7890    3.0811 C.ar    1  UNL1        0.0925
     28 C          -2.9770   -0.5105    4.3780 C.ar    1  UNL1        0.0025
     29 C          -3.1560    0.7664    4.8449 C.ar    1  UNL1        0.1438
     30 F          -3.5673    1.0405    6.1083 F       1  UNL1       -0.2039
     31 C          -2.8966    1.7826    3.9620 C.ar    1  UNL1        0.0782
     32 CL         -3.0847    3.4710    4.4254 Cl      1  UNL1       -0.0805
     33 C          -2.4742    1.5350    2.6626 C.ar    1  UNL1       -0.0149
     34 C          -2.2906    0.2559    2.1836 C.ar    1  UNL1        0.0713
     35 H           1.1312    0.3416    0.7136 H       1  UNL1        0.1490
     36 H           1.9185   -1.2299   -1.6869 H       1  UNL1        0.0498
     37 H           2.8222   -2.7004   -0.1828 H       1  UNL1        0.0283
     38 H           2.2178   -1.7147    1.1793 H       1  UNL1        0.0283
     39 H           4.6036   -2.2053    1.2226 H       1  UNL1        0.0266
     40 H           4.2424   -0.4297    1.2892 H       1  UNL1        0.0266
     41 H           5.5362   -2.1021   -0.8825 H       1  UNL1        0.0265
     42 H           6.0129   -0.5306   -0.1763 H       1  UNL1        0.0265
     43 H           4.0925   -1.1825   -2.3822 H       1  UNL1        0.0266
     44 H           5.1656    0.2898   -2.1485 H       1  UNL1        0.0266
     45 H           2.7967    0.8442   -2.0856 H       1  UNL1        0.0283
     46 H           3.5291    1.0287   -0.3968 H       1  UNL1        0.0283
     47 H          -2.3039   -0.1185   -0.9750 H       1  UNL1        0.0627
     48 H          -2.5811    2.2287   -0.1773 H       1  UNL1        0.0325
     49 H          -1.2969    1.0934   -2.4586 H       1  UNL1        0.0269
     50 H          -2.5913    2.2836   -2.3808 H       1  UNL1        0.0269
     51 H          -0.9005    3.4481   -3.4058 H       1  UNL1        0.0265
     52 H           0.4429    2.7040   -2.5515 H       1  UNL1        0.0265
     53 H          -1.4913    4.9535   -1.7438 H       1  UNL1        0.0265
     54 H           0.2904    4.9133   -1.7752 H       1  UNL1        0.0265
     55 H           0.3226    4.4389    0.4619 H       1  UNL1        0.0265
     56 H          -1.4558    4.3510    0.5052 H       1  UNL1        0.0265
     57 H          -0.1211    2.2162    1.0966 H       1  UNL1        0.0269
     58 H           0.4728    2.2298   -0.5799 H       1  UNL1        0.0269
     59 H           0.3214   -3.1595    0.9513 H       1  UNL1        0.0625
     60 H           0.7963   -4.8534   -0.7782 H       1  UNL1        0.0632
     61 H          -2.9376   -4.0632   -2.5680 H       1  UNL1        0.0632
     62 H          -3.4614   -2.3796   -0.8897 H       1  UNL1        0.0625
     63 H          -3.1677   -1.3481    5.0332 H       1  UNL1        0.0669
     64 H          -2.2857    2.3517    1.9920 H       1  UNL1        0.0654
@<TRIPOS>BOND
     1     1     2    2
     2     2     3   am
     3     3     4    1
     4     4     5    1
     5     5     6    1
     6     6     7    1
     7     7     8    1
     8     8     9    1
     9     2    10    1
    10    10    11    1
    11    11    12    1
    12    12    13    1
    13    13    14    1
    14    14    15    1
    15    15    16    1
    16    10    17    1
    17    17    18   ar
    18    18    19    1
    19    19    20   ar
    20    20    21   ar
    21    21    22   ar
    22    22    23    1
    23    22    24   ar
    24    24    25   ar
    25    18    26   ar
    26    26    27   ar
    27    27    28   ar
    28    28    29   ar
    29    29    30    1
    30    29    31   ar
    31    31    32    1
    32    31    33   ar
    33    33    34   ar
    34     9     4    1
    35    16    11    1
    36    34    17   ar
    37    25    19   ar
    38    34    27   ar
    39     3    35    1
    40     4    36    1
    41     5    37    1
    42     5    38    1
    43     6    39    1
    44     6    40    1
    45     7    41    1
    46     7    42    1
    47     8    43    1
    48     8    44    1
    49     9    45    1
    50     9    46    1
    51    10    47    1
    52    11    48    1
    53    12    49    1
    54    12    50    1
    55    13    51    1
    56    13    52    1
    57    14    53    1
    58    14    54    1
    59    15    55    1
    60    15    56    1
    61    16    57    1
    62    16    58    1
    63    20    59    1
    64    21    60    1
    65    24    61    1
    66    25    62    1
    67    28    63    1
    68    33    64    1
