@<TRIPOS>MOLECULE
*****
 52 55 0 0 0
SMALL
GASTEIGER

@<TRIPOS>ATOM
      1 N          -0.9908    1.9954   -1.4325 N.3     1  UNL1       -0.3173
      2 C          -0.2856    1.1365   -0.5019 C.3     1  UNL1        0.0965
      3 C           1.1464    1.5008   -0.5347 C.2     1  UNL1        0.2336
      4 O           1.5442    2.4338   -1.3047 O.2     1  UNL1       -0.2738
      5 N           2.1390    0.8702    0.2505 N.am    1  UNL1       -0.3048
      6 CA          3.5275    1.3031    0.1457 C.3     1  UNL1        0.0714
      7 C           3.9520    1.7656    1.5072 C.3     1  UNL1        0.0667
      8 O           3.8801    0.7174    2.4119 O.3     1  UNL1       -0.3928
      9 C           4.3958    0.2193   -0.3285 C.ar    1  UNL1       -0.0250
     10 C           5.5484   -0.0737    0.3437 C.ar    1  UNL1       -0.0554
     11 C           6.4127   -1.0818   -0.0608 C.ar    1  UNL1       -0.0431
     12 C           6.0840   -1.8033   -1.1798 C.ar    1  UNL1        0.0410
     13 CL          7.1959   -3.0787   -1.6756 Cl      1  UNL1       -0.0835
     14 C           4.9350   -1.5223   -1.8620 C.ar    1  UNL1       -0.0431
     15 C           4.0906   -0.5264   -1.4545 C.ar    1  UNL1       -0.0554
     16 C          -0.5022   -0.3017   -0.9164 C.3     1  UNL1       -0.0104
     17 C          -1.2180   -1.0644    0.1767 C.3     1  UNL1        0.0156
     18 N          -2.5063   -0.3797    0.4003 N.pl3   1  UNL1       -0.3144
     19 C          -3.6827   -1.1270    0.1857 C.ar    1  UNL1        0.1337
     20 N          -3.5821   -2.4217   -0.2440 N.ar    1  UNL1       -0.2200
     21 C          -4.6377   -3.2026   -0.4763 C.ar    1  UNL1        0.1204
     22 N          -5.8951   -2.7674   -0.3023 N.ar    1  UNL1       -0.2178
     23 C          -6.0693   -1.5068    0.1179 C.ar    1  UNL1        0.1432
     24 N          -7.2110   -0.8274    0.3708 N.ar    1  UNL1       -0.3457
     25 C          -6.8764    0.4053    0.7704 C.ar    1  UNL1        0.0042
     26 C          -5.4900    0.5117    0.7715 C.ar    1  UNL1       -0.0318
     27 C          -4.9675   -0.6805    0.3641 C.ar    1  UNL1        0.0585
     28 C          -2.3850    0.9862    0.8126 C.3     1  UNL1        0.0156
     29 C          -0.9009    1.3348    0.8502 C.3     1  UNL1       -0.0104
     30 H          -0.7871    3.0056   -1.2608 H       1  UNL1        0.1192
     31 H          -0.6539    1.7935   -2.4020 H       1  UNL1        0.1192
     32 H           1.8746    0.1096    0.8910 H       1  UNL1        0.1494
     33 HA          3.6084    2.1286   -0.5962 H       1  UNL1        0.0571
     34 H1          3.2797    2.6156    1.8451 H       1  UNL1        0.0579
     35 H2          4.9941    2.1275    1.4590 H       1  UNL1        0.0579
     36 H           3.6497   -0.1123    1.9248 H       1  UNL1        0.2095
     37 H           5.8829    0.4527    1.2551 H       1  UNL1        0.0621
     38 H           7.3246   -1.2823    0.5067 H       1  UNL1        0.0632
     39 H           4.7107   -2.1221   -2.7492 H       1  UNL1        0.0632
     40 H           3.1731   -0.2813   -1.9753 H       1  UNL1        0.0621
     41 H           0.4697   -0.7918   -1.1480 H       1  UNL1        0.0303
     42 H          -1.1421   -0.3550   -1.8162 H       1  UNL1        0.0303
     43 H          -0.6870   -1.1051    1.1305 H       1  UNL1        0.0465
     44 H          -1.3749   -2.1122   -0.1514 H       1  UNL1        0.0465
     45 H          -4.5439   -4.2370   -0.8197 H       1  UNL1        0.1048
     46 H          -8.1672   -1.2262    0.2625 H       1  UNL1        0.1668
     47 H          -7.5502    1.1984    1.0495 H       1  UNL1        0.0807
     48 H          -4.9011    1.3734    1.0428 H       1  UNL1        0.0640
     49 H          -2.7538    1.0967    1.8331 H       1  UNL1        0.0465
     50 H          -2.8377    1.6603    0.0569 H       1  UNL1        0.0465
     51 H          -0.3572    0.8235    1.6558 H       1  UNL1        0.0303
     52 H          -0.8623    2.4255    1.0939 H       1  UNL1        0.0303
@<TRIPOS>BOND
     1     1     2    1
     2     2     3    1
     3     3     4    2
     4     3     5   am
     5     5     6    1
     6     6     7    1
     7     7     8    1
     8     6     9    1
     9     9    10   ar
    10    10    11   ar
    11    11    12   ar
    12    12    13    1
    13    12    14   ar
    14    14    15   ar
    15     2    16    1
    16    16    17    1
    17    17    18    1
    18    18    19    1
    19    19    20   ar
    20    20    21   ar
    21    21    22   ar
    22    22    23   ar
    23    23    24   ar
    24    24    25   ar
    25    25    26   ar
    26    26    27   ar
    27    18    28    1
    28    28    29    1
    29    29     2    1
    30    15     9   ar
    31    27    19   ar
    32    27    23   ar
    33     1    30    1
    34     1    31    1
    35     5    32    1
    36     6    33    1
    37     7    34    1
    38     7    35    1
    39     8    36    1
    40    10    37    1
    41    11    38    1
    42    14    39    1
    43    15    40    1
    44    16    41    1
    45    16    42    1
    46    17    43    1
    47    17    44    1
    48    21    45    1
    49    24    46    1
    50    25    47    1
    51    26    48    1
    52    28    49    1
    53    28    50    1
    54    29    51    1
    55    29    52    1
