
     RDKit          3D

 52 55  0  0  0  0  0  0  0  0999 V2000
   -0.9908    1.9954   -1.4325 N   0  0  0  0  0  0  0  0  0  0  0  0
   -0.2856    1.1365   -0.5019 C   0  0  0  0  0  0  0  0  0  0  0  0
    1.1464    1.5008   -0.5347 C   0  0  0  0  0  0  0  0  0  0  0  0
    1.5442    2.4338   -1.3047 O   0  0  0  0  0  0  0  0  0  0  0  0
    2.1390    0.8702    0.2505 N   0  0  0  0  0  0  0  0  0  0  0  0
    3.5275    1.3031    0.1457 C   0  0  0  0  0  0  0  0  0  0  0  0
    3.9520    1.7656    1.5072 C   0  0  0  0  0  0  0  0  0  0  0  0
    3.8801    0.7174    2.4119 O   0  0  0  0  0  0  0  0  0  0  0  0
    4.3958    0.2193   -0.3285 C   0  0  0  0  0  0  0  0  0  0  0  0
    5.5484   -0.0737    0.3437 C   0  0  0  0  0  0  0  0  0  0  0  0
    6.4127   -1.0818   -0.0608 C   0  0  0  0  0  0  0  0  0  0  0  0
    6.0840   -1.8033   -1.1798 C   0  0  0  0  0  0  0  0  0  0  0  0
    7.1959   -3.0787   -1.6756 Cl  0  0  0  0  0  0  0  0  0  0  0  0
    4.9350   -1.5223   -1.8620 C   0  0  0  0  0  0  0  0  0  0  0  0
    4.0906   -0.5264   -1.4545 C   0  0  0  0  0  0  0  0  0  0  0  0
   -0.5022   -0.3017   -0.9164 C   0  0  0  0  0  0  0  0  0  0  0  0
   -1.2180   -1.0644    0.1767 C   0  0  0  0  0  0  0  0  0  0  0  0
   -2.5063   -0.3797    0.4003 N   0  0  0  0  0  0  0  0  0  0  0  0
   -3.6827   -1.1270    0.1857 C   0  0  0  0  0  0  0  0  0  0  0  0
   -3.5821   -2.4217   -0.2440 N   0  0  0  0  0  0  0  0  0  0  0  0
   -4.6377   -3.2026   -0.4763 C   0  0  0  0  0  0  0  0  0  0  0  0
   -5.8951   -2.7674   -0.3023 N   0  0  0  0  0  0  0  0  0  0  0  0
   -6.0693   -1.5068    0.1179 C   0  0  0  0  0  0  0  0  0  0  0  0
   -7.2110   -0.8274    0.3708 N   0  0  0  0  0  0  0  0  0  0  0  0
   -6.8764    0.4053    0.7704 C   0  0  0  0  0  0  0  0  0  0  0  0
   -5.4900    0.5117    0.7715 C   0  0  0  0  0  0  0  0  0  0  0  0
   -4.9675   -0.6805    0.3641 C   0  0  0  0  0  0  0  0  0  0  0  0
   -2.3850    0.9862    0.8126 C   0  0  0  0  0  0  0  0  0  0  0  0
   -0.9009    1.3348    0.8502 C   0  0  0  0  0  0  0  0  0  0  0  0
   -0.7871    3.0056   -1.2608 H   0  0  0  0  0  0  0  0  0  0  0  0
   -0.6539    1.7935   -2.4020 H   0  0  0  0  0  0  0  0  0  0  0  0
    1.8746    0.1096    0.8910 H   0  0  0  0  0  0  0  0  0  0  0  0
    3.6084    2.1286   -0.5962 H   0  0  0  0  0  0  0  0  0  0  0  0
    3.2797    2.6156    1.8451 H   0  0  0  0  0  0  0  0  0  0  0  0
    4.9941    2.1275    1.4590 H   0  0  0  0  0  0  0  0  0  0  0  0
    3.6497   -0.1123    1.9248 H   0  0  0  0  0  0  0  0  0  0  0  0
    5.8829    0.4527    1.2551 H   0  0  0  0  0  0  0  0  0  0  0  0
    7.3246   -1.2823    0.5067 H   0  0  0  0  0  0  0  0  0  0  0  0
    4.7107   -2.1221   -2.7492 H   0  0  0  0  0  0  0  0  0  0  0  0
    3.1731   -0.2813   -1.9753 H   0  0  0  0  0  0  0  0  0  0  0  0
    0.4697   -0.7918   -1.1480 H   0  0  0  0  0  0  0  0  0  0  0  0
   -1.1421   -0.3550   -1.8162 H   0  0  0  0  0  0  0  0  0  0  0  0
   -0.6870   -1.1051    1.1305 H   0  0  0  0  0  0  0  0  0  0  0  0
   -1.3749   -2.1122   -0.1514 H   0  0  0  0  0  0  0  0  0  0  0  0
   -4.5439   -4.2370   -0.8197 H   0  0  0  0  0  0  0  0  0  0  0  0
   -8.1672   -1.2262    0.2625 H   0  0  0  0  0  0  0  0  0  0  0  0
   -7.5502    1.1984    1.0495 H   0  0  0  0  0  0  0  0  0  0  0  0
   -4.9011    1.3734    1.0428 H   0  0  0  0  0  0  0  0  0  0  0  0
   -2.7538    1.0967    1.8331 H   0  0  0  0  0  0  0  0  0  0  0  0
   -2.8377    1.6603    0.0569 H   0  0  0  0  0  0  0  0  0  0  0  0
   -0.3572    0.8235    1.6558 H   0  0  0  0  0  0  0  0  0  0  0  0
   -0.8623    2.4255    1.0939 H   0  0  0  0  0  0  0  0  0  0  0  0
  1  2  1  0
  2  3  1  0
  3  4  2  0
  3  5  1  0
  5  6  1  0
  6  7  1  0
  7  8  1  0
  6  9  1  0
  9 10  2  0
 10 11  1  0
 11 12  2  0
 12 13  1  0
 12 14  1  0
 14 15  2  0
  2 16  1  0
 16 17  1  0
 17 18  1  0
 18 19  1  0
 19 20  2  0
 20 21  1  0
 21 22  2  0
 22 23  1  0
 23 24  1  0
 24 25  1  0
 25 26  2  0
 26 27  1  0
 18 28  1  0
 28 29  1  0
 29  2  1  0
 15  9  1  0
 27 19  1  0
 27 23  2  0
  1 30  1  0
  1 31  1  0
  5 32  1  0
  6 33  1  0
  7 34  1  0
  7 35  1  0
  8 36  1  0
 10 37  1  0
 11 38  1  0
 14 39  1  0
 15 40  1  0
 16 41  1  0
 16 42  1  0
 17 43  1  0
 17 44  1  0
 21 45  1  0
 24 46  1  0
 25 47  1  0
 26 48  1  0
 28 49  1  0
 28 50  1  0
 29 51  1  0
 29 52  1  0
M  END
$$$$
