
     RDKit          3D

 37 39  0  0  0  0  0  0  0  0999 V2000
    4.1058    1.9473   -1.7009 C   0  0  0  0  0  0  0  0  0  0  0  0
    3.1265    1.1558   -0.8961 C   0  0  0  0  0  0  0  0  0  0  0  0
    1.8843    1.5524   -0.5031 N   0  0  0  0  0  0  0  0  0  0  0  0
    1.3112    0.5873    0.1929 N   0  0  0  0  0  0  0  0  0  0  0  0
   -0.0041    0.6695    0.7604 C   0  0  0  0  0  0  0  0  0  0  0  0
   -0.2174    1.1916    2.0186 C   0  0  0  0  0  0  0  0  0  0  0  0
   -1.4664    1.2349    2.4777 N   0  0  0  0  0  0  0  0  0  0  0  0
   -2.5208    0.7748    1.7272 C   0  0  0  0  0  0  0  0  0  0  0  0
   -2.3546    0.2490    0.4741 C   0  0  0  0  0  0  0  0  0  0  0  0
   -3.4826   -0.2312   -0.3021 C   0  0  1  0  0  0  0  0  0  0  0  0
   -3.9772    0.9793   -1.1216 C   0  0  0  0  0  0  0  0  0  0  0  0
   -3.1601   -1.1832   -1.2606 O   0  0  0  0  0  0  0  0  0  0  0  0
   -4.6172   -0.7172    0.5496 C   0  0  0  0  0  0  0  0  0  0  0  0
   -4.2277   -1.7380    1.3837 F   0  0  0  0  0  0  0  0  0  0  0  0
   -5.2788    0.2457    1.2577 F   0  0  0  0  0  0  0  0  0  0  0  0
   -5.6010   -1.3006   -0.2838 F   0  0  0  0  0  0  0  0  0  0  0  0
   -1.0457    0.2095    0.0063 C   0  0  0  0  0  0  0  0  0  0  0  0
    2.1180   -0.4815    0.3014 C   0  0  0  0  0  0  0  0  0  0  0  0
    2.0244   -1.7239    0.9014 C   0  0  0  0  0  0  0  0  0  0  0  0
    3.0809   -2.6059    0.8114 C   0  0  0  0  0  0  0  0  0  0  0  0
    4.2229   -2.2612    0.1321 C   0  0  0  0  0  0  0  0  0  0  0  0
    4.3114   -1.0252   -0.4628 C   0  0  0  0  0  0  0  0  0  0  0  0
    3.2751   -0.1180   -0.3933 C   0  0  0  0  0  0  0  0  0  0  0  0
    3.9016    1.9059   -2.7788 H   0  0  0  0  0  0  0  0  0  0  0  0
    4.0054    3.0192   -1.3621 H   0  0  0  0  0  0  0  0  0  0  0  0
    5.1297    1.6408   -1.4204 H   0  0  0  0  0  0  0  0  0  0  0  0
    0.6360    1.5489    2.5915 H   0  0  0  0  0  0  0  0  0  0  0  0
   -3.4682    0.8795    2.2411 H   0  0  0  0  0  0  0  0  0  0  0  0
   -3.0891    1.6243   -1.3840 H   0  0  0  0  0  0  0  0  0  0  0  0
   -4.7103    1.5230   -0.5054 H   0  0  0  0  0  0  0  0  0  0  0  0
   -4.4044    0.6560   -2.0848 H   0  0  0  0  0  0  0  0  0  0  0  0
   -3.0075   -0.8101   -2.1576 H   0  0  0  0  0  0  0  0  0  0  0  0
   -0.8694   -0.1939   -0.9692 H   0  0  0  0  0  0  0  0  0  0  0  0
    1.1143   -1.9640    1.4273 H   0  0  0  0  0  0  0  0  0  0  0  0
    3.0023   -3.5866    1.2872 H   0  0  0  0  0  0  0  0  0  0  0  0
    5.0605   -2.9469    0.0547 H   0  0  0  0  0  0  0  0  0  0  0  0
    5.1921   -0.7077   -1.0098 H   0  0  0  0  0  0  0  0  0  0  0  0
  1  2  1  0
  2  3  2  0
  3  4  1  0
  4  5  1  0
  5  6  2  0
  6  7  1  0
  7  8  2  0
  8  9  1  0
  9 10  1  0
 10 11  1  0
 10 12  1  6
 10 13  1  0
 13 14  1  0
 13 15  1  0
 13 16  1  0
  9 17  2  0
  4 18  1  0
 18 19  2  0
 19 20  1  0
 20 21  2  0
 21 22  1  0
 22 23  2  0
 23  2  1  0
 17  5  1  0
 23 18  1  0
  1 24  1  0
  1 25  1  0
  1 26  1  0
  6 27  1  0
  8 28  1  0
 11 29  1  0
 11 30  1  0
 11 31  1  0
 12 32  1  0
 17 33  1  0
 19 34  1  0
 20 35  1  0
 21 36  1  0
 22 37  1  0
M  END
$$$$
