@<TRIPOS>MOLECULE
*****
 37 39 0 0 0
SMALL
GASTEIGER

@<TRIPOS>ATOM
      1 C           4.1058    1.9473   -1.7009 C.3     1  UNL1       -0.0200
      2 C           3.1265    1.1558   -0.8961 C.ar    1  UNL1        0.0681
      3 N           1.8843    1.5524   -0.5031 N.ar    1  UNL1       -0.1705
      4 N           1.3112    0.5873    0.1929 N.ar    1  UNL1       -0.2304
      5 C          -0.0041    0.6695    0.7604 C.ar    1  UNL1        0.0844
      6 C          -0.2174    1.1916    2.0186 C.ar    1  UNL1        0.0530
      7 N          -1.4664    1.2349    2.4777 N.ar    1  UNL1       -0.2608
      8 C          -2.5208    0.7748    1.7272 C.ar    1  UNL1        0.0339
      9 C          -2.3546    0.2490    0.4741 C.ar    1  UNL1        0.0123
     10 C          -3.4826   -0.2312   -0.3021 C.3     1  UNL1        0.1843
     11 C          -3.9772    0.9793   -1.1216 C.3     1  UNL1       -0.0232
     12 O          -3.1601   -1.1832   -1.2606 O.3     1  UNL1       -0.3757
     13 C          -4.6172   -0.7172    0.5496 C.3     1  UNL1        0.4222
     14 F          -4.2277   -1.7380    1.3837 F       1  UNL1       -0.1673
     15 F          -5.2788    0.2457    1.2577 F       1  UNL1       -0.1673
     16 F          -5.6010   -1.3006   -0.2838 F       1  UNL1       -0.1673
     17 C          -1.0457    0.2095    0.0063 C.ar    1  UNL1       -0.0271
     18 C           2.1180   -0.4815    0.3014 C.ar    1  UNL1        0.0749
     19 C           2.0244   -1.7239    0.9014 C.ar    1  UNL1       -0.0356
     20 C           3.0809   -2.6059    0.8114 C.ar    1  UNL1       -0.0597
     21 C           4.2229   -2.2612    0.1321 C.ar    1  UNL1       -0.0610
     22 C           4.3114   -1.0252   -0.4628 C.ar    1  UNL1       -0.0508
     23 C           3.2751   -0.1180   -0.3933 C.ar    1  UNL1        0.0231
     24 H           3.9016    1.9059   -2.7788 H       1  UNL1        0.0293
     25 H           4.0054    3.0192   -1.3621 H       1  UNL1        0.0293
     26 H           5.1297    1.6408   -1.4204 H       1  UNL1        0.0293
     27 H           0.6360    1.5489    2.5915 H       1  UNL1        0.0851
     28 H          -3.4682    0.8795    2.2411 H       1  UNL1        0.0833
     29 H          -3.0891    1.6243   -1.3840 H       1  UNL1        0.0263
     30 H          -4.7103    1.5230   -0.5054 H       1  UNL1        0.0263
     31 H          -4.4044    0.6560   -2.0848 H       1  UNL1        0.0263
     32 H          -3.0075   -0.8101   -2.1576 H       1  UNL1        0.2110
     33 H          -0.8694   -0.1939   -0.9692 H       1  UNL1        0.0643
     34 H           1.1143   -1.9640    1.4273 H       1  UNL1        0.0639
     35 H           3.0023   -3.5866    1.2872 H       1  UNL1        0.0618
     36 H           5.0605   -2.9469    0.0547 H       1  UNL1        0.0618
     37 H           5.1921   -0.7077   -1.0098 H       1  UNL1        0.0625
@<TRIPOS>BOND
     1     1     2    1
     2     2     3   ar
     3     3     4   ar
     4     4     5    1
     5     5     6   ar
     6     6     7   ar
     7     7     8   ar
     8     8     9   ar
     9     9    10    1
    10    10    11    1
    11    10    12    1
    12    10    13    1
    13    13    14    1
    14    13    15    1
    15    13    16    1
    16     9    17   ar
    17     4    18   ar
    18    18    19   ar
    19    19    20   ar
    20    20    21   ar
    21    21    22   ar
    22    22    23   ar
    23    23     2   ar
    24    17     5   ar
    25    23    18   ar
    26     1    24    1
    27     1    25    1
    28     1    26    1
    29     6    27    1
    30     8    28    1
    31    11    29    1
    32    11    30    1
    33    11    31    1
    34    12    32    1
    35    17    33    1
    36    19    34    1
    37    20    35    1
    38    21    36    1
    39    22    37    1
