@<TRIPOS>MOLECULE
*****
 73 77 0 0 0
SMALL
GASTEIGER

@<TRIPOS>ATOM
      1 N          -9.1794   -2.0488   -3.2114 N.am    1  UNL1       -0.3256
      2 C          -8.3124   -1.8263   -2.1058 C.2     1  UNL1        0.2390
      3 O          -7.9604   -2.8594   -1.4409 O.2     1  UNL1       -0.2707
      4 C          -7.8232   -0.5110   -1.7107 C.2     1  UNL1        0.0318
      5 C          -7.0239   -0.4623   -0.6615 C.2     1  UNL1        0.0071
      6 N          -6.5516    0.8098   -0.2804 N.pl3   1  UNL1       -0.2846
      7 C          -6.9393    1.9638   -1.0157 C.2     1  UNL1       -0.0049
      8 C          -7.7298    1.9290   -2.0560 C.2     1  UNL1       -0.0654
      9 C          -8.2791    0.6371   -2.5352 C.3     1  UNL1       -0.0019
     10 C          -5.6684    0.9556    0.8612 C.3     1  UNL1        0.1574
     11 O          -4.4877    0.2348    0.7386 O.3     1  UNL1       -0.3476
     12 C          -4.0857    0.0115    2.0546 C.3     1  UNL1        0.1132
     13 C          -2.9420   -0.9711    2.1309 C.3     1  UNL1        0.0879
     14 O          -1.8808   -0.4312    1.4063 O.3     1  UNL1       -0.2837
     15 P          -0.5310   -1.4181    1.4014 P.3     1  UNL1        0.4835
     16 O          -1.0431   -3.0275    1.4736 O.3     1  UNL1       -0.3022
     17 O           0.3809   -1.1279    2.5957 O.2     1  UNL1       -0.2269
     18 O           0.3827   -1.0894    0.0171 O.3     1  UNL1       -0.1861
     19 P           0.2646    0.5600   -0.3355 P.3     1  UNL1        0.4835
     20 O          -0.8465    1.3413    0.7010 O.3     1  UNL1       -0.3022
     21 O          -0.2596    0.7662   -1.7522 O.2     1  UNL1       -0.2269
     22 O           1.7806    1.3016   -0.2331 O.3     1  UNL1       -0.2837
     23 C           2.7076    0.3437    0.1136 C.3     1  UNL1        0.0879
     24 C           4.0446    1.0039    0.2020 C.3     1  UNL1        0.1134
     25 O           5.0462    0.1026    0.5497 O.3     1  UNL1       -0.3456
     26 C           6.2531    0.7142    0.2399 C.3     1  UNL1        0.1667
     27 C           6.0012    1.5782   -0.9704 C.3     1  UNL1        0.1285
     28 O           6.3806    2.8773   -0.6311 O.3     1  UNL1       -0.3847
     29 C           4.5092    1.4669   -1.1562 C.3     1  UNL1        0.1135
     30 O           3.9246    2.6888   -1.5036 O.3     1  UNL1       -0.3864
     31 N           7.1885   -0.3286   -0.1340 N.ar    1  UNL1       -0.2855
     32 C           7.0420   -1.6073   -0.5390 C.ar    1  UNL1        0.1004
     33 N           8.2452   -2.1615   -0.7671 N.ar    1  UNL1       -0.2306
     34 C           9.2040   -1.2554   -0.5156 C.ar    1  UNL1        0.1473
     35 C          10.5723   -1.3450   -0.6011 C.ar    1  UNL1        0.1472
     36 N          11.2534   -2.5212   -1.0075 N.pl3   1  UNL1       -0.3413
     37 N          11.2667   -0.2265   -0.2704 N.ar    1  UNL1       -0.2188
     38 C          10.6177    0.8926    0.1163 C.ar    1  UNL1        0.1205
     39 N           9.2847    0.9771    0.1988 N.ar    1  UNL1       -0.2159
     40 C           8.5371   -0.1190   -0.1226 C.ar    1  UNL1        0.1674
     41 C          -5.3732   -0.5866    2.6162 C.3     1  UNL1        0.1133
     42 O          -5.3401   -0.6871    3.9865 O.3     1  UNL1       -0.3864
     43 C          -6.3618    0.4454    2.0996 C.3     1  UNL1        0.1265
     44 O          -6.3628    1.4808    3.0449 O.3     1  UNL1       -0.3849
     45 H         -10.2167   -1.8231   -3.2027 H       1  UNL1        0.1452
     46 H          -9.1417   -2.4199   -4.1942 H       1  UNL1        0.1452
     47 H          -6.7451   -1.3560   -0.1204 H       1  UNL1        0.0788
     48 H          -6.5701    2.9454   -0.7154 H       1  UNL1        0.0781
     49 H          -8.0327    2.7857   -2.6219 H       1  UNL1        0.0588
     50 H          -8.0209    0.4806   -3.6150 H       1  UNL1        0.0358
     51 H          -9.3999    0.7137   -2.4530 H       1  UNL1        0.0358
     52 H          -5.3587    2.0192    0.9727 H       1  UNL1        0.0840
     53 H          -3.8363    0.9804    2.5010 H       1  UNL1        0.0647
     54 H          -3.2237   -1.9765    1.8247 H       1  UNL1        0.0592
     55 H          -2.6058   -1.0023    3.1967 H       1  UNL1        0.0592
     56 H          -0.3372   -3.5722    1.0671 H       1  UNL1        0.2220
     57 H          -0.5177    2.2255    1.0055 H       1  UNL1        0.2220
     58 H           2.4455    0.0122    1.1587 H       1  UNL1        0.0592
     59 H           2.6868   -0.5498   -0.5218 H       1  UNL1        0.0592
     60 H           3.9531    1.8577    0.9065 H       1  UNL1        0.0647
     61 H           6.6851    1.2648    1.0922 H       1  UNL1        0.0866
     62 H           6.5613    1.2085   -1.8544 H       1  UNL1        0.0665
     63 H           6.5316    2.9867    0.3497 H       1  UNL1        0.2101
     64 H           4.2707    0.6735   -1.9029 H       1  UNL1        0.0647
     65 H           4.3930    3.0028   -2.3326 H       1  UNL1        0.2100
     66 H           6.0307   -2.0092   -0.6262 H       1  UNL1        0.1030
     67 H          11.1600   -2.5053   -2.0568 H       1  UNL1        0.1438
     68 H          11.5459   -2.8803   -0.0716 H       1  UNL1        0.1438
     69 H          11.2651    1.7198    0.3553 H       1  UNL1        0.1048
     70 H          -5.5124   -1.5475    2.0833 H       1  UNL1        0.0647
     71 H          -4.5012   -1.1630    4.2197 H       1  UNL1        0.2100
     72 H          -7.3711    0.0417    1.9248 H       1  UNL1        0.0663
     73 H          -6.0437    2.3452    2.6401 H       1  UNL1        0.2101
@<TRIPOS>BOND
     1     1     2   am
     2     2     3    2
     3     2     4    1
     4     4     5    2
     5     5     6    1
     6     6     7    1
     7     7     8    2
     8     8     9    1
     9     6    10    1
    10    10    11    1
    11    11    12    1
    12    12    13    1
    13    13    14    1
    14    15    14    1
    15    15    16    1
    16    15    17    2
    17    15    18    1
    18    19    18    1
    19    19    20    1
    20    19    21    2
    21    19    22    1
    22    22    23    1
    23    23    24    1
    24    24    25    1
    25    25    26    1
    26    26    27    1
    27    27    28    1
    28    27    29    1
    29    29    30    1
    30    26    31    1
    31    31    32   ar
    32    32    33   ar
    33    33    34   ar
    34    34    35   ar
    35    35    36    1
    36    35    37   ar
    37    37    38   ar
    38    38    39   ar
    39    39    40   ar
    40    12    41    1
    41    41    42    1
    42    41    43    1
    43    43    44    1
    44     9     4    1
    45    43    10    1
    46    29    24    1
    47    40    31   ar
    48    40    34   ar
    49     1    45    1
    50     1    46    1
    51     5    47    1
    52     7    48    1
    53     8    49    1
    54     9    50    1
    55     9    51    1
    56    10    52    1
    57    12    53    1
    58    13    54    1
    59    13    55    1
    60    16    56    1
    61    20    57    1
    62    23    58    1
    63    23    59    1
    64    24    60    1
    65    26    61    1
    66    27    62    1
    67    28    63    1
    68    29    64    1
    69    30    65    1
    70    32    66    1
    71    36    67    1
    72    36    68    1
    73    38    69    1
    74    41    70    1
    75    42    71    1
    76    43    72    1
    77    44    73    1
