
     RDKit          3D

 38 41  0  0  0  0  0  0  0  0999 V2000
    1.8676   -2.4798    0.0513 F   0  0  0  0  0  0  0  0  0  0  0  0
    3.0513   -1.8718    0.0071 C   0  0  0  0  0  0  0  0  0  0  0  0
    4.1563   -2.6873    0.0006 C   0  0  0  0  0  0  0  0  0  0  0  0
    5.4111   -2.1394   -0.0439 C   0  0  0  0  0  0  0  0  0  0  0  0
    5.5009   -0.7653   -0.0807 C   0  0  0  0  0  0  0  0  0  0  0  0
    4.3698    0.0230   -0.0729 C   0  0  0  0  0  0  0  0  0  0  0  0
    3.0891   -0.4980   -0.0284 C   0  0  0  0  0  0  0  0  0  0  0  0
    1.9795    0.4265   -0.0246 C   0  0  0  0  0  0  0  0  0  0  0  0
    2.2643    1.7378   -0.0648 N   0  0  0  0  0  0  0  0  0  0  0  0
    1.2920    2.6657   -0.0644 C   0  0  0  0  0  0  0  0  0  0  0  0
    1.3989    4.0534   -0.1022 C   0  0  0  0  0  0  0  0  0  0  0  0
    0.1211    4.5755   -0.0840 C   0  0  0  0  0  0  0  0  0  0  0  0
   -0.7333    3.5155   -0.0362 N   0  0  0  0  0  0  0  0  0  0  0  0
   -0.0266    2.4041   -0.0254 N   0  0  0  0  0  0  0  0  0  0  0  0
   -0.3479    1.0997    0.0155 C   0  0  0  0  0  0  0  0  0  0  0  0
   -1.7223    0.6727    0.0600 N   0  0  0  0  0  0  0  0  0  0  0  0
   -2.0600   -0.7251    0.1039 C   0  0  0  0  0  0  0  0  0  0  0  0
   -3.4975   -1.0144    0.1464 C   0  0  0  0  0  0  0  0  0  0  0  0
   -4.3030   -1.2000   -0.9576 C   0  0  0  0  0  0  0  0  0  0  0  0
   -5.6581   -1.4710   -0.8377 C   0  0  0  0  0  0  0  0  0  0  0  0
   -6.1785   -1.5504    0.3971 N   0  0  0  0  0  0  0  0  0  0  0  0
   -5.4236   -1.3755    1.4839 C   0  0  0  0  0  0  0  0  0  0  0  0
   -4.0597   -1.1015    1.4168 C   0  0  0  0  0  0  0  0  0  0  0  0
    0.6406    0.1409    0.0155 C   0  0  0  0  0  0  0  0  0  0  0  0
    4.0631   -3.7636    0.0300 H   0  0  0  0  0  0  0  0  0  0  0  0
    6.2760   -2.7847   -0.0488 H   0  0  0  0  0  0  0  0  0  0  0  0
    6.4895   -0.3321   -0.1158 H   0  0  0  0  0  0  0  0  0  0  0  0
    4.5641    1.0903   -0.1045 H   0  0  0  0  0  0  0  0  0  0  0  0
    2.2986    4.6470   -0.1393 H   0  0  0  0  0  0  0  0  0  0  0  0
   -0.1557    5.6370   -0.1041 H   0  0  0  0  0  0  0  0  0  0  0  0
   -2.4586    1.4122    0.0592 H   0  0  0  0  0  0  0  0  0  0  0  0
   -1.5324   -1.1503    0.9932 H   0  0  0  0  0  0  0  0  0  0  0  0
   -1.6604   -1.1755   -0.8401 H   0  0  0  0  0  0  0  0  0  0  0  0
   -3.7769   -1.1134   -1.9027 H   0  0  0  0  0  0  0  0  0  0  0  0
   -6.1470   -1.5896   -1.7971 H   0  0  0  0  0  0  0  0  0  0  0  0
   -5.9153   -1.4544    2.4605 H   0  0  0  0  0  0  0  0  0  0  0  0
   -3.5171   -0.9726    2.3528 H   0  0  0  0  0  0  0  0  0  0  0  0
    0.3400   -0.8856    0.0489 H   0  0  0  0  0  0  0  0  0  0  0  0
  1  2  1  0
  2  3  2  0
  3  4  1  0
  4  5  2  0
  5  6  1  0
  6  7  2  0
  7  8  1  0
  8  9  2  0
  9 10  1  0
 10 11  2  0
 11 12  1  0
 12 13  2  0
 13 14  1  0
 14 15  1  0
 15 16  1  0
 16 17  1  0
 17 18  1  0
 18 19  2  0
 19 20  1  0
 20 21  2  0
 21 22  1  0
 22 23  2  0
 15 24  2  0
  7  2  1  0
 24  8  1  0
 14 10  1  0
 23 18  1  0
  3 25  1  0
  4 26  1  0
  5 27  1  0
  6 28  1  0
 11 29  1  0
 12 30  1  0
 16 31  1  0
 17 32  1  0
 17 33  1  0
 19 34  1  0
 20 35  1  0
 22 36  1  0
 23 37  1  0
 24 38  1  0
M  END
$$$$
