@<TRIPOS>MOLECULE
*****
 38 41 0 0 0
SMALL
GASTEIGER

@<TRIPOS>ATOM
      1 F           1.8676   -2.4798    0.0513 F       1  UNL1       -0.2048
      2 C           3.0513   -1.8718    0.0071 C.ar    1  UNL1        0.1325
      3 C           4.1563   -2.6873    0.0006 C.ar    1  UNL1       -0.0258
      4 C           5.4111   -2.1394   -0.0439 C.ar    1  UNL1       -0.0590
      5 C           5.5009   -0.7653   -0.0807 C.ar    1  UNL1       -0.0610
      6 C           4.3698    0.0230   -0.0729 C.ar    1  UNL1       -0.0498
      7 C           3.0891   -0.4980   -0.0284 C.ar    1  UNL1        0.0357
      8 C           1.9795    0.4265   -0.0246 C.ar    1  UNL1        0.0794
      9 N           2.2643    1.7378   -0.0648 N.ar    1  UNL1       -0.2276
     10 C           1.2920    2.6657   -0.0644 C.ar    1  UNL1        0.1581
     11 C           1.3989    4.0534   -0.1022 C.ar    1  UNL1        0.0024
     12 C           0.1211    4.5755   -0.0840 C.ar    1  UNL1        0.0520
     13 N          -0.7333    3.5155   -0.0362 N.ar    1  UNL1       -0.1717
     14 N          -0.0266    2.4041   -0.0254 N.ar    1  UNL1       -0.2006
     15 C          -0.3479    1.0997    0.0155 C.ar    1  UNL1        0.1248
     16 N          -1.7223    0.6727    0.0600 N.pl3   1  UNL1       -0.3248
     17 C          -2.0600   -0.7251    0.1039 C.3     1  UNL1        0.0358
     18 C          -3.4975   -1.0144    0.1464 C.ar    1  UNL1       -0.0275
     19 C          -4.3030   -1.2000   -0.9576 C.ar    1  UNL1       -0.0389
     20 C          -5.6581   -1.4710   -0.8377 C.ar    1  UNL1        0.0279
     21 N          -6.1785   -1.5504    0.3971 N.ar    1  UNL1       -0.2632
     22 C          -5.4236   -1.3755    1.4839 C.ar    1  UNL1        0.0279
     23 C          -4.0597   -1.1015    1.4168 C.ar    1  UNL1       -0.0389
     24 C           0.6406    0.1409    0.0155 C.ar    1  UNL1        0.0043
     25 H           4.0631   -3.7636    0.0300 H       1  UNL1        0.0646
     26 H           6.2760   -2.7847   -0.0488 H       1  UNL1        0.0618
     27 H           6.4895   -0.3321   -0.1158 H       1  UNL1        0.0618
     28 H           4.5641    1.0903   -0.1045 H       1  UNL1        0.0625
     29 H           2.2986    4.6470   -0.1393 H       1  UNL1        0.0670
     30 H          -0.1557    5.6370   -0.1041 H       1  UNL1        0.0848
     31 H          -2.4586    1.4122    0.0592 H       1  UNL1        0.1478
     32 H          -1.5324   -1.1503    0.9932 H       1  UNL1        0.0511
     33 H          -1.6604   -1.1755   -0.8401 H       1  UNL1        0.0511
     34 H          -3.7769   -1.1134   -1.9027 H       1  UNL1        0.0636
     35 H          -6.1470   -1.5896   -1.7971 H       1  UNL1        0.0829
     36 H          -5.9153   -1.4544    2.4605 H       1  UNL1        0.0829
     37 H          -3.5171   -0.9726    2.3528 H       1  UNL1        0.0636
     38 H           0.3400   -0.8856    0.0489 H       1  UNL1        0.0673
@<TRIPOS>BOND
     1     1     2    1
     2     2     3   ar
     3     3     4   ar
     4     4     5   ar
     5     5     6   ar
     6     6     7   ar
     7     7     8    1
     8     8     9   ar
     9     9    10   ar
    10    10    11   ar
    11    11    12   ar
    12    12    13   ar
    13    13    14   ar
    14    14    15   ar
    15    15    16    1
    16    16    17    1
    17    17    18    1
    18    18    19   ar
    19    19    20   ar
    20    20    21   ar
    21    21    22   ar
    22    22    23   ar
    23    15    24   ar
    24     7     2   ar
    25    24     8   ar
    26    14    10   ar
    27    23    18   ar
    28     3    25    1
    29     4    26    1
    30     5    27    1
    31     6    28    1
    32    11    29    1
    33    12    30    1
    34    16    31    1
    35    17    32    1
    36    17    33    1
    37    19    34    1
    38    20    35    1
    39    22    36    1
    40    23    37    1
    41    24    38    1
