@<TRIPOS>MOLECULE
*****
 33 35 0 0 0
SMALL
GASTEIGER

@<TRIPOS>ATOM
      1 C           3.1637    0.2089   -1.4560 C.3     1  UNL1        0.0837
      2 O           2.7352   -0.1410   -2.7343 O.3     1  UNL1       -0.3894
      3 C           3.8359   -0.9326   -0.7239 C.3     1  UNL1       -0.0087
      4 C           3.5600   -0.5218    0.7203 C.3     1  UNL1        0.0195
      5 N           2.1205   -0.2779    0.6326 N.am    1  UNL1       -0.2707
      6 C           0.8095   -0.5057    1.1579 C.2     1  UNL1        0.3163
      7 O           0.5926   -0.9085    2.3283 O.2     1  UNL1       -0.2516
      8 N          -0.0677   -0.1727    0.0689 N.am    1  UNL1       -0.1922
      9 C           0.6993    0.2363   -1.0564 C.2     1  UNL1        0.2505
     10 O           0.2655    0.2683   -2.2329 O.2     1  UNL1       -0.2726
     11 C           2.0598    0.5955   -0.5325 C.3     1  UNL1        0.1303
     12 C          -1.4836   -0.2754    0.2113 C.ar    1  UNL1        0.0498
     13 C          -2.2101    0.8097    0.6623 C.ar    1  UNL1       -0.0090
     14 C          -1.5138    2.0730    0.9950 C.3     1  UNL1       -0.0365
     15 C          -3.5778    0.6864    0.7919 C.ar    1  UNL1        0.0630
     16 CL         -4.4802    2.0822    1.3680 Cl      1  UNL1       -0.0819
     17 C          -4.2139   -0.4968    0.4783 C.ar    1  UNL1        0.0704
     18 C          -3.5131   -1.6170    0.0189 C.ar    1  UNL1       -0.0411
     19 C          -2.1482   -1.4460   -0.0945 C.ar    1  UNL1       -0.0382
     20 C          -5.6335   -0.5569    0.6354 C.1     1  UNL1        0.1006
     21 N          -6.7950   -0.5941    0.7805 N.1     1  UNL1       -0.1908
     22 H           3.9094    1.0498   -1.4722 H       1  UNL1        0.0617
     23 H           3.4765    0.1245   -3.3582 H       1  UNL1        0.2099
     24 H           3.2970   -1.8685   -0.9178 H       1  UNL1        0.0306
     25 H           4.9195   -0.9892   -0.9409 H       1  UNL1        0.0306
     26 H           3.8086   -1.3217    1.4457 H       1  UNL1        0.0466
     27 H           4.0191    0.4368    0.9671 H       1  UNL1        0.0466
     28 H           2.0461    1.6711   -0.2659 H       1  UNL1        0.0624
     29 H          -0.8678    2.0027    1.8973 H       1  UNL1        0.0279
     30 H          -0.9300    2.3936    0.0985 H       1  UNL1        0.0279
     31 H          -2.2723    2.8655    1.1829 H       1  UNL1        0.0279
     32 H          -4.0057   -2.5473   -0.2286 H       1  UNL1        0.0631
     33 H          -1.6056   -2.3310   -0.4561 H       1  UNL1        0.0637
@<TRIPOS>BOND
     1     1     2    1
     2     1     3    1
     3     3     4    1
     4     4     5    1
     5     5     6   am
     6     6     7    2
     7     6     8   am
     8     8     9   am
     9     9    10    2
    10     9    11    1
    11     8    12    1
    12    12    13   ar
    13    13    14    1
    14    13    15   ar
    15    15    16    1
    16    15    17   ar
    17    17    18   ar
    18    18    19   ar
    19    17    20    1
    20    20    21    3
    21    11     1    1
    22    19    12   ar
    23    11     5    1
    24     1    22    1
    25     2    23    1
    26     3    24    1
    27     3    25    1
    28     4    26    1
    29     4    27    1
    30    11    28    1
    31    14    29    1
    32    14    30    1
    33    14    31    1
    34    18    32    1
    35    19    33    1
