@<TRIPOS>MOLECULE
*****
 75 76 0 0 0
SMALL
GASTEIGER

@<TRIPOS>ATOM
      1 C          -3.1612    3.4514   -1.0283 C.3     1  UNL1       -0.0617
      2 C          -4.0516    2.3935   -1.6335 C.3     1  UNL1       -0.0162
      3 C          -4.3365    1.3229   -0.6070 C.3     1  UNL1        0.1077
      4 C          -5.2271    0.2351   -1.1621 C.3     1  UNL1       -0.0251
      5 C          -5.1468    2.0135    0.4940 C.3     1  UNL1       -0.0251
      6 O          -3.1796    0.8280    0.0067 O.3     1  UNL1       -0.4582
      7 C          -2.1755    0.2227   -0.7247 C.2     1  UNL1        0.3155
      8 O          -2.3619    0.1437   -1.9636 O.2     1  UNL1       -0.2501
      9 C          -0.9188   -0.3154   -0.0628 C.3     1  UNL1        0.0876
     10 C          -0.2404    0.7946    0.6079 C.ar    1  UNL1        0.0088
     11 C          -0.7996    1.2984    1.7859 C.ar    1  UNL1       -0.0514
     12 C          -0.2540    2.3485    2.4896 C.ar    1  UNL1       -0.0497
     13 C          -0.8696    2.8687    3.7446 C.3     1  UNL1       -0.0397
     14 C           0.9080    2.9205    1.9874 C.ar    1  UNL1       -0.0524
     15 C           1.4900    2.4609    0.8398 C.ar    1  UNL1       -0.0082
     16 C           2.7372    3.0934    0.3234 C.3     1  UNL1       -0.0362
     17 C           0.8958    1.3723    0.1401 C.ar    1  UNL1        0.1275
     18 O           1.5466    0.9966   -0.9726 O.3     1  UNL1       -0.4889
     19 C           2.6415    0.2165   -1.2726 C.3     1  UNL1        0.1155
     20 C           2.6822   -1.1971   -0.9042 C.3     1  UNL1        0.0915
     21 O           2.6260   -1.4136    0.4848 O.3     1  UNL1       -0.3883
     22 C           3.8408   -1.9613   -1.4130 C.3     1  UNL1        0.0028
     23 C           5.2227   -1.6667   -1.0433 C.3     1  UNL1        0.0628
     24 O           6.0711   -2.6298   -1.7177 O.3     1  UNL1       -0.3913
     25 C           5.7828   -0.3190   -1.2539 C.3     1  UNL1        0.0130
     26 C           5.7297    0.1167   -2.6672 C.2     1  UNL1        0.0442
     27 O           5.2554   -0.6408   -3.5429 O.co2   1  UNL1       -0.5497
     28 O           6.2223    1.3877   -2.9820 O.co2   1  UNL1       -0.5497
     29 C          -1.3748   -1.4365    0.8031 C.3     1  UNL1       -0.0239
     30 C          -0.3580   -2.1553    1.6022 C.3     1  UNL1       -0.0491
     31 C           0.1294   -3.4413    0.9256 C.3     1  UNL1       -0.0528
     32 C          -1.0018   -4.4616    0.9645 C.3     1  UNL1       -0.0530
     33 C          -2.2785   -3.7647    0.5853 C.3     1  UNL1       -0.0528
     34 C          -2.0247   -2.4615   -0.1372 C.3     1  UNL1       -0.0491
     35 H          -2.3766    2.9716   -0.4096 H       1  UNL1        0.0231
     36 H          -2.6701    4.0240   -1.8464 H       1  UNL1        0.0231
     37 H          -3.7822    4.1621   -0.4545 H       1  UNL1        0.0231
     38 H          -3.6805    2.0018   -2.5832 H       1  UNL1        0.0301
     39 H          -5.0336    2.8915   -1.8483 H       1  UNL1        0.0301
     40 H          -4.9608   -0.0449   -2.1977 H       1  UNL1        0.0268
     41 H          -6.3095    0.5115   -1.0665 H       1  UNL1        0.0268
     42 H          -5.0886   -0.6678   -0.5298 H       1  UNL1        0.0268
     43 H          -6.0877    2.4294    0.0966 H       1  UNL1        0.0268
     44 H          -5.2929    1.2627    1.2918 H       1  UNL1        0.0268
     45 H          -4.4871    2.8113    0.9263 H       1  UNL1        0.0268
     46 H          -0.2683   -0.7482   -0.8534 H       1  UNL1        0.0466
     47 H          -1.7154    0.8497    2.1842 H       1  UNL1        0.0624
     48 H          -1.6706    2.1653    4.0518 H       1  UNL1        0.0278
     49 H          -1.2287    3.9012    3.6449 H       1  UNL1        0.0278
     50 H          -0.0567    2.8750    4.5121 H       1  UNL1        0.0278
     51 H           1.3392    3.7620    2.5569 H       1  UNL1        0.0624
     52 H           2.6803    4.1766    0.5985 H       1  UNL1        0.0279
     53 H           2.7144    3.0563   -0.7945 H       1  UNL1        0.0279
     54 H           3.6411    2.6636    0.7512 H       1  UNL1        0.0279
     55 H           3.5730    0.7455   -0.9346 H       1  UNL1        0.0723
     56 H           2.7541    0.2559   -2.4107 H       1  UNL1        0.0723
     57 H           1.7299   -1.7089   -1.2874 H       1  UNL1        0.0628
     58 H           3.2494   -2.0938    0.7906 H       1  UNL1        0.2099
     59 H           3.6245   -3.0588   -1.0804 H       1  UNL1        0.0316
     60 H           3.7400   -2.0784   -2.5508 H       1  UNL1        0.0316
     61 H           5.4477   -1.9392    0.0437 H       1  UNL1        0.0598
     62 H           6.9677   -2.5550   -1.3027 H       1  UNL1        0.2098
     63 H           6.9550   -0.5203   -1.1302 H       1  UNL1        0.0350
     64 H           5.6029    0.4475   -0.5013 H       1  UNL1        0.0350
     65 H          -2.2350   -1.0863    1.4517 H       1  UNL1        0.0312
     66 H          -0.9154   -2.5563    2.5180 H       1  UNL1        0.0268
     67 H           0.4548   -1.5755    2.0263 H       1  UNL1        0.0268
     68 H           0.4353   -3.2982   -0.1089 H       1  UNL1        0.0265
     69 H           0.9426   -3.8488    1.5577 H       1  UNL1        0.0265
     70 H          -0.7847   -5.2750    0.2658 H       1  UNL1        0.0265
     71 H          -1.1285   -4.8670    1.9821 H       1  UNL1        0.0265
     72 H          -2.8537   -4.4040   -0.1157 H       1  UNL1        0.0265
     73 H          -2.9442   -3.5605    1.4407 H       1  UNL1        0.0265
     74 H          -1.3115   -2.6477   -0.9394 H       1  UNL1        0.0268
     75 H          -2.9905   -2.0510   -0.4415 H       1  UNL1        0.0268
@<TRIPOS>UNITY_ATOM_ATTR
28 1
charge -1
@<TRIPOS>BOND
     1     1     2    1
     2     2     3    1
     3     3     4    1
     4     3     5    1
     5     3     6    1
     6     6     7    1
     7     7     8    2
     8     7     9    1
     9     9    10    1
    10    10    11   ar
    11    11    12   ar
    12    12    13    1
    13    12    14   ar
    14    14    15   ar
    15    15    16    1
    16    15    17   ar
    17    17    18    1
    18    18    19    1
    19    19    20    1
    20    20    21    1
    21    20    22    1
    22    22    23    1
    23    23    24    1
    24    23    25    1
    25    25    26    1
    26    26    27   ar
    27    26    28   ar
    28     9    29    1
    29    29    30    1
    30    30    31    1
    31    31    32    1
    32    32    33    1
    33    33    34    1
    34    17    10   ar
    35    34    29    1
    36     1    35    1
    37     1    36    1
    38     1    37    1
    39     2    38    1
    40     2    39    1
    41     4    40    1
    42     4    41    1
    43     4    42    1
    44     5    43    1
    45     5    44    1
    46     5    45    1
    47     9    46    1
    48    11    47    1
    49    13    48    1
    50    13    49    1
    51    13    50    1
    52    14    51    1
    53    16    52    1
    54    16    53    1
    55    16    54    1
    56    19    55    1
    57    19    56    1
    58    20    57    1
    59    21    58    1
    60    22    59    1
    61    22    60    1
    62    23    61    1
    63    24    62    1
    64    25    63    1
    65    25    64    1
    66    29    65    1
    67    30    66    1
    68    30    67    1
    69    31    68    1
    70    31    69    1
    71    32    70    1
    72    32    71    1
    73    33    72    1
    74    33    73    1
    75    34    74    1
    76    34    75    1
