@<TRIPOS>MOLECULE
*****
 51 54 0 0 0
SMALL
GASTEIGER

@<TRIPOS>ATOM
      1 C          -5.4446    5.5808    0.9617 C.3     1  UNL1       -0.0319
      2 C          -4.9138    4.2044    0.8378 C.ar    1  UNL1        0.0068
      3 C          -5.4969    2.9698    1.0838 C.ar    1  UNL1        0.0383
      4 N          -4.7437    1.9350    0.8711 N.ar    1  UNL1       -0.2471
      5 C          -3.6029    1.8974    0.4879 C.ar    1  UNL1        0.1086
      6 C          -2.5442    0.9480    0.1688 C.ar    1  UNL1        0.0113
      7 C          -2.7849   -0.4009    0.3038 C.ar    1  UNL1       -0.0102
      8 C          -1.8518   -1.3460    0.0269 C.ar    1  UNL1        0.1225
      9 O          -2.0471   -2.6953    0.1465 O.3     1  UNL1       -0.4842
     10 C          -3.2471   -3.2460    0.5730 C.3     1  UNL1        0.1464
     11 C          -3.7243   -4.4341   -0.2758 C.3     1  UNL1        0.0869
     12 O          -4.1847   -5.0047    0.9095 O.3     1  UNL1       -0.3723
     13 C          -3.0707   -4.4337    1.5242 C.3     1  UNL1        0.0869
     14 C          -0.5922   -0.8856   -0.4161 C.ar    1  UNL1       -0.0078
     15 C          -0.3123    0.4310   -0.5629 C.ar    1  UNL1        0.0408
     16 C           0.9831    0.8870   -1.0179 C.2     1  UNL1        0.2447
     17 O           1.1881    2.1498   -1.1369 O.2     1  UNL1       -0.2702
     18 N           2.0153   -0.0097   -1.3306 N.am    1  UNL1       -0.3047
     19 C           3.3049    0.5258   -1.7866 C.3     1  UNL1        0.0487
     20 C           3.5595    0.0059   -3.1856 C.3     1  UNL1       -0.0423
     21 C           4.3707    0.1585   -0.8471 C.ar    1  UNL1        0.0087
     22 C           4.1152    0.3083    0.5064 C.ar    1  UNL1        0.0363
     23 N           5.0642   -0.0173    1.3749 N.ar    1  UNL1       -0.2321
     24 C           6.2703   -0.4886    1.0140 C.ar    1  UNL1        0.2339
     25 C           7.2796   -0.8299    2.0672 C.3     1  UNL1        0.4522
     26 F           7.0058   -2.0907    2.5721 F       1  UNL1       -0.1632
     27 F           8.5625   -0.7344    1.5836 F       1  UNL1       -0.1632
     28 F           7.1168    0.0627    3.1041 F       1  UNL1       -0.1632
     29 N           6.5363   -0.6406   -0.2952 N.ar    1  UNL1       -0.2321
     30 C           5.5994   -0.3218   -1.2208 C.ar    1  UNL1        0.0363
     31 C          -1.3034    1.3580   -0.2658 C.ar    1  UNL1       -0.0397
     32 S          -3.2558    3.7378    0.2973 S.2     1  UNL1       -0.0725
     33 H          -6.4465    5.6890    0.4942 H       1  UNL1        0.0283
     34 H          -5.5234    5.8509    2.0215 H       1  UNL1        0.0283
     35 H          -4.7327    6.2470    0.4046 H       1  UNL1        0.0283
     36 H          -6.5391    2.8998    1.4381 H       1  UNL1        0.0838
     37 H          -3.7762   -0.6697    0.6487 H       1  UNL1        0.0661
     38 H          -4.0828   -2.5939    0.8287 H       1  UNL1        0.0780
     39 H          -4.5181   -4.1189   -0.9834 H       1  UNL1        0.0597
     40 H          -2.8671   -4.9622   -0.7154 H       1  UNL1        0.0597
     41 H          -2.1377   -4.9546    1.2689 H       1  UNL1        0.0597
     42 H          -3.2119   -4.1831    2.5851 H       1  UNL1        0.0597
     43 H           0.1309   -1.6530   -0.6292 H       1  UNL1        0.0662
     44 H           1.9019   -1.0378   -1.2517 H       1  UNL1        0.1496
     45 H           3.2282    1.6263   -1.8042 H       1  UNL1        0.0546
     46 H           2.6763    0.1956   -3.8119 H       1  UNL1        0.0251
     47 H           4.4348    0.4997   -3.6117 H       1  UNL1        0.0251
     48 H           3.7310   -1.0826   -3.1631 H       1  UNL1        0.0251
     49 H           3.1564    0.6855    0.8599 H       1  UNL1        0.0834
     50 H           5.8087   -0.4422   -2.2703 H       1  UNL1        0.0834
     51 H          -1.0840    2.4231   -0.3822 H       1  UNL1        0.0632
@<TRIPOS>BOND
     1     1     2    1
     2     2     3   ar
     3     3     4   ar
     4     4     5   ar
     5     5     6    1
     6     6     7   ar
     7     7     8   ar
     8     8     9    1
     9     9    10    1
    10    10    11    1
    11    11    12    1
    12    12    13    1
    13     8    14   ar
    14    14    15   ar
    15    15    16    1
    16    16    17    2
    17    16    18   am
    18    18    19    1
    19    19    20    1
    20    19    21    1
    21    21    22   ar
    22    22    23   ar
    23    23    24   ar
    24    24    25    1
    25    25    26    1
    26    25    27    1
    27    25    28    1
    28    24    29   ar
    29    29    30   ar
    30    15    31   ar
    31     5    32   ar
    32    32     2   ar
    33    31     6   ar
    34    13    10    1
    35    30    21   ar
    36     1    33    1
    37     1    34    1
    38     1    35    1
    39     3    36    1
    40     7    37    1
    41    10    38    1
    42    11    39    1
    43    11    40    1
    44    13    41    1
    45    13    42    1
    46    14    43    1
    47    18    44    1
    48    19    45    1
    49    20    46    1
    50    20    47    1
    51    20    48    1
    52    22    49    1
    53    30    50    1
    54    31    51    1
