
     RDKit          3D

 37 38  0  0  0  0  0  0  0  0999 V2000
   -2.4703   -2.5308    2.6222 C   0  0  0  0  0  0  0  0  0  0  0  0
   -2.8791   -1.4970    1.7846 O   0  0  0  0  0  0  0  0  0  0  0  0
   -2.1889   -0.9199    0.7568 C   0  0  0  0  0  0  0  0  0  0  0  0
   -0.9219   -1.2945    0.3799 C   0  0  0  0  0  0  0  0  0  0  0  0
   -0.2264   -0.6909   -0.6790 C   0  0  0  0  0  0  0  0  0  0  0  0
    1.1242   -1.1519   -1.0358 C   0  0  0  0  0  0  0  0  0  0  0  0
    2.2144   -0.5962   -0.2283 C   0  0  0  0  0  0  0  0  0  0  0  0
    2.7884   -1.3361    0.8089 C   0  0  0  0  0  0  0  0  0  0  0  0
    3.7741   -0.7878    1.5315 N   0  0  0  0  0  0  0  0  0  0  0  0
    4.2552    0.4559    1.3156 C   0  0  0  0  0  0  0  0  0  0  0  0
    5.3026    0.9509    2.1352 N   0  0  0  0  0  0  0  0  0  0  0  0
    3.6993    1.1445    0.3262 N   0  0  0  0  0  0  0  0  0  0  0  0
    2.6883    0.6716   -0.4666 C   0  0  0  0  0  0  0  0  0  0  0  0
    2.1653    1.4896   -1.5092 N   0  0  0  0  0  0  0  0  0  0  0  0
   -0.8895    0.3185   -1.3388 C   0  0  0  0  0  0  0  0  0  0  0  0
   -2.1691    0.7461   -1.0095 C   0  0  0  0  0  0  0  0  0  0  0  0
   -2.8558    1.7451   -1.6420 O   0  0  0  0  0  0  0  0  0  0  0  0
   -2.4374    2.5255   -2.7174 C   0  0  0  0  0  0  0  0  0  0  0  0
   -2.7991    0.0971    0.0580 C   0  0  0  0  0  0  0  0  0  0  0  0
   -4.1116    0.5057    0.4241 N   0  0  0  0  0  0  0  0  0  0  0  0
   -3.2946   -3.2913    2.7621 H   0  0  0  0  0  0  0  0  0  0  0  0
   -2.2985   -2.1031    3.6431 H   0  0  0  0  0  0  0  0  0  0  0  0
   -1.5679   -3.0798    2.2659 H   0  0  0  0  0  0  0  0  0  0  0  0
   -0.4267   -2.0791    0.9047 H   0  0  0  0  0  0  0  0  0  0  0  0
    1.1668   -2.2692   -0.9240 H   0  0  0  0  0  0  0  0  0  0  0  0
    1.3705   -0.9884   -2.1235 H   0  0  0  0  0  0  0  0  0  0  0  0
    2.3962   -2.3385    0.9794 H   0  0  0  0  0  0  0  0  0  0  0  0
    5.3281    1.9671    2.3435 H   0  0  0  0  0  0  0  0  0  0  0  0
    6.0014    0.2727    2.4923 H   0  0  0  0  0  0  0  0  0  0  0  0
    1.9515    1.0427   -2.4214 H   0  0  0  0  0  0  0  0  0  0  0  0
    1.9840    2.5088   -1.4170 H   0  0  0  0  0  0  0  0  0  0  0  0
   -0.4154    0.8184   -2.1686 H   0  0  0  0  0  0  0  0  0  0  0  0
   -1.7764    3.3376   -2.2911 H   0  0  0  0  0  0  0  0  0  0  0  0
   -1.9150    1.9892   -3.5180 H   0  0  0  0  0  0  0  0  0  0  0  0
   -3.3388    3.0595   -3.1322 H   0  0  0  0  0  0  0  0  0  0  0  0
   -4.3180    0.9211    1.3401 H   0  0  0  0  0  0  0  0  0  0  0  0
   -4.9101    0.3871   -0.2517 H   0  0  0  0  0  0  0  0  0  0  0  0
  1  2  1  0
  2  3  1  0
  3  4  2  0
  4  5  1  0
  5  6  1  0
  6  7  1  0
  7  8  2  0
  8  9  1  0
  9 10  2  0
 10 11  1  0
 10 12  1  0
 12 13  2  0
 13 14  1  0
  5 15  2  0
 15 16  1  0
 16 17  1  0
 17 18  1  0
 16 19  2  0
 19 20  1  0
 19  3  1  0
 13  7  1  0
  1 21  1  0
  1 22  1  0
  1 23  1  0
  4 24  1  0
  6 25  1  0
  6 26  1  0
  8 27  1  0
 11 28  1  0
 11 29  1  0
 14 30  1  0
 14 31  1  0
 15 32  1  0
 18 33  1  0
 18 34  1  0
 18 35  1  0
 20 36  1  0
 20 37  1  0
M  END
$$$$
