@<TRIPOS>MOLECULE
*****
 37 38 0 0 0
SMALL
GASTEIGER

@<TRIPOS>ATOM
      1 C          -2.4703   -2.5308    2.6222 C.3     1  UNL1        0.0789
      2 O          -2.8791   -1.4970    1.7846 O.3     1  UNL1       -0.4931
      3 C          -2.1889   -0.9199    0.7568 C.ar    1  UNL1        0.1445
      4 C          -0.9219   -1.2945    0.3799 C.ar    1  UNL1       -0.0144
      5 C          -0.2264   -0.6909   -0.6790 C.ar    1  UNL1       -0.0359
      6 C           1.1242   -1.1519   -1.0358 C.3     1  UNL1        0.0025
      7 C           2.2144   -0.5962   -0.2283 C.ar    1  UNL1        0.0146
      8 C           2.7884   -1.3361    0.8089 C.ar    1  UNL1        0.0379
      9 N           3.7741   -0.7878    1.5315 N.ar    1  UNL1       -0.2227
     10 C           4.2552    0.4559    1.3156 C.ar    1  UNL1        0.2142
     11 N           5.3026    0.9509    2.1352 N.pl3   1  UNL1       -0.3274
     12 N           3.6993    1.1445    0.3262 N.ar    1  UNL1       -0.1999
     13 C           2.6883    0.6716   -0.4666 C.ar    1  UNL1        0.1247
     14 N           2.1653    1.4896   -1.5092 N.pl3   1  UNL1       -0.3428
     15 C          -0.8895    0.3185   -1.3388 C.ar    1  UNL1       -0.0144
     16 C          -2.1691    0.7461   -1.0095 C.ar    1  UNL1        0.1445
     17 O          -2.8558    1.7451   -1.6420 O.3     1  UNL1       -0.4931
     18 C          -2.4374    2.5255   -2.7174 C.3     1  UNL1        0.0789
     19 C          -2.7991    0.0971    0.0580 C.ar    1  UNL1        0.1090
     20 N          -4.1116    0.5057    0.4241 N.pl3   1  UNL1       -0.3523
     21 H          -3.2946   -3.2913    2.7621 H       1  UNL1        0.0660
     22 H          -2.2985   -2.1031    3.6431 H       1  UNL1        0.0660
     23 H          -1.5679   -3.0798    2.2659 H       1  UNL1        0.0660
     24 H          -0.4267   -2.0791    0.9047 H       1  UNL1        0.0657
     25 H           1.1668   -2.2692   -0.9240 H       1  UNL1        0.0363
     26 H           1.3705   -0.9884   -2.1235 H       1  UNL1        0.0363
     27 H           2.3962   -2.3385    0.9794 H       1  UNL1        0.0834
     28 H           5.3281    1.9671    2.3435 H       1  UNL1        0.1452
     29 H           6.0014    0.2727    2.4923 H       1  UNL1        0.1452
     30 H           1.9515    1.0427   -2.4214 H       1  UNL1        0.1437
     31 H           1.9840    2.5088   -1.4170 H       1  UNL1        0.1437
     32 H          -0.4154    0.8184   -2.1686 H       1  UNL1        0.0657
     33 H          -1.7764    3.3376   -2.2911 H       1  UNL1        0.0660
     34 H          -1.9150    1.9892   -3.5180 H       1  UNL1        0.0660
     35 H          -3.3388    3.0595   -3.1322 H       1  UNL1        0.0660
     36 H          -4.3180    0.9211    1.3401 H       1  UNL1        0.1425
     37 H          -4.9101    0.3871   -0.2517 H       1  UNL1        0.1425
@<TRIPOS>BOND
     1     1     2    1
     2     2     3    1
     3     3     4   ar
     4     4     5   ar
     5     5     6    1
     6     6     7    1
     7     7     8   ar
     8     8     9   ar
     9     9    10   ar
    10    10    11    1
    11    10    12   ar
    12    12    13   ar
    13    13    14    1
    14     5    15   ar
    15    15    16   ar
    16    16    17    1
    17    17    18    1
    18    16    19   ar
    19    19    20    1
    20    19     3   ar
    21    13     7   ar
    22     1    21    1
    23     1    22    1
    24     1    23    1
    25     4    24    1
    26     6    25    1
    27     6    26    1
    28     8    27    1
    29    11    28    1
    30    11    29    1
    31    14    30    1
    32    14    31    1
    33    15    32    1
    34    18    33    1
    35    18    34    1
    36    18    35    1
    37    20    36    1
    38    20    37    1
