
     RDKit          3D

 28 29  0  0  0  0  0  0  0  0999 V2000
   -0.7437   -3.1443   -0.5803 O   0  0  0  0  0  0  0  0  0  0  0  0
    0.2907   -2.1905   -0.6081 C   0  0  0  0  0  0  0  0  0  0  0  0
    1.2308   -2.3669   -1.4563 O   0  0  0  0  0  0  0  0  0  0  0  0
    0.0917   -1.1085    0.3957 C   0  0  0  0  0  0  0  0  0  0  0  0
   -1.1753   -0.3601    0.1926 C   0  0  0  0  0  0  0  0  0  0  0  0
   -1.6569   -0.0967   -1.0735 C   0  0  0  0  0  0  0  0  0  0  0  0
   -2.8356    0.5993   -1.2842 C   0  0  0  0  0  0  0  0  0  0  0  0
   -3.5671    1.0527   -0.2116 C   0  0  0  0  0  0  0  0  0  0  0  0
   -3.1091    0.8037    1.0743 C   0  0  0  0  0  0  0  0  0  0  0  0
   -1.9198    0.1010    1.2601 C   0  0  0  0  0  0  0  0  0  0  0  0
    1.2517   -0.1883    0.4479 C   0  0  0  0  0  0  0  0  0  0  0  0
    1.9583    0.2518   -0.6489 C   0  0  0  0  0  0  0  0  0  0  0  0
    3.0355    1.1092   -0.5529 C   0  0  0  0  0  0  0  0  0  0  0  0
    3.4611    1.5722    0.6623 C   0  0  0  0  0  0  0  0  0  0  0  0
    2.7678    1.1459    1.7905 C   0  0  0  0  0  0  0  0  0  0  0  0
    1.6806    0.2794    1.6824 C   0  0  0  0  0  0  0  0  0  0  0  0
   -0.6878   -3.8946   -1.2560 H   0  0  0  0  0  0  0  0  0  0  0  0
   -0.0182   -1.6488    1.3802 H   0  0  0  0  0  0  0  0  0  0  0  0
   -1.0997   -0.4424   -1.9161 H   0  0  0  0  0  0  0  0  0  0  0  0
   -3.1587    0.7731   -2.2959 H   0  0  0  0  0  0  0  0  0  0  0  0
   -4.5021    1.6051   -0.3586 H   0  0  0  0  0  0  0  0  0  0  0  0
   -3.6481    1.1393    1.9497 H   0  0  0  0  0  0  0  0  0  0  0  0
   -1.5060   -0.1274    2.2354 H   0  0  0  0  0  0  0  0  0  0  0  0
    1.6574   -0.0861   -1.6263 H   0  0  0  0  0  0  0  0  0  0  0  0
    3.5811    1.4457   -1.4297 H   0  0  0  0  0  0  0  0  0  0  0  0
    4.2924    2.2415    0.8084 H   0  0  0  0  0  0  0  0  0  0  0  0
    3.1039    1.5137    2.7699 H   0  0  0  0  0  0  0  0  0  0  0  0
    1.2250    0.0208    2.6265 H   0  0  0  0  0  0  0  0  0  0  0  0
  1  2  1  0
  2  3  2  0
  2  4  1  0
  4  5  1  0
  5  6  2  0
  6  7  1  0
  7  8  2  0
  8  9  1  0
  9 10  2  0
  4 11  1  0
 11 12  2  0
 12 13  1  0
 13 14  2  0
 14 15  1  0
 15 16  2  0
 10  5  1  0
 16 11  1  0
  1 17  1  0
  4 18  1  0
  6 19  1  0
  7 20  1  0
  8 21  1  0
  9 22  1  0
 10 23  1  0
 12 24  1  0
 13 25  1  0
 14 26  1  0
 15 27  1  0
 16 28  1  0
M  END
$$$$
