@<TRIPOS>MOLECULE
*****
 28 29 0 0 0
SMALL
GASTEIGER

@<TRIPOS>ATOM
      1 O          -0.7437   -3.1443   -0.5803 O.3     1  UNL1       -0.4800
      2 C           0.2907   -2.1905   -0.6081 C.2     1  UNL1        0.3166
      3 O           1.2308   -2.3669   -1.4563 O.2     1  UNL1       -0.2500
      4 C           0.0917   -1.1085    0.3957 C.3     1  UNL1        0.1062
      5 C          -1.1753   -0.3601    0.1926 C.ar    1  UNL1       -0.0294
      6 C          -1.6569   -0.0967   -1.0735 C.ar    1  UNL1       -0.0575
      7 C          -2.8356    0.5993   -1.2842 C.ar    1  UNL1       -0.0615
      8 C          -3.5671    1.0527   -0.2116 C.ar    1  UNL1       -0.0617
      9 C          -3.1091    0.8037    1.0743 C.ar    1  UNL1       -0.0615
     10 C          -1.9198    0.1010    1.2601 C.ar    1  UNL1       -0.0575
     11 C           1.2517   -0.1883    0.4479 C.ar    1  UNL1       -0.0294
     12 C           1.9583    0.2518   -0.6489 C.ar    1  UNL1       -0.0575
     13 C           3.0355    1.1092   -0.5529 C.ar    1  UNL1       -0.0615
     14 C           3.4611    1.5722    0.6623 C.ar    1  UNL1       -0.0617
     15 C           2.7678    1.1459    1.7905 C.ar    1  UNL1       -0.0615
     16 C           1.6806    0.2794    1.6824 C.ar    1  UNL1       -0.0575
     17 H          -0.6878   -3.8946   -1.2560 H       1  UNL1        0.2951
     18 H          -0.0182   -1.6488    1.3802 H       1  UNL1        0.0512
     19 H          -1.0997   -0.4424   -1.9161 H       1  UNL1        0.0621
     20 H          -3.1587    0.7731   -2.2959 H       1  UNL1        0.0618
     21 H          -4.5021    1.6051   -0.3586 H       1  UNL1        0.0618
     22 H          -3.6481    1.1393    1.9497 H       1  UNL1        0.0618
     23 H          -1.5060   -0.1274    2.2354 H       1  UNL1        0.0621
     24 H           1.6574   -0.0861   -1.6263 H       1  UNL1        0.0621
     25 H           3.5811    1.4457   -1.4297 H       1  UNL1        0.0618
     26 H           4.2924    2.2415    0.8084 H       1  UNL1        0.0618
     27 H           3.1039    1.5137    2.7699 H       1  UNL1        0.0618
     28 H           1.2250    0.0208    2.6265 H       1  UNL1        0.0621
@<TRIPOS>BOND
     1     1     2    1
     2     2     3    2
     3     2     4    1
     4     4     5    1
     5     5     6   ar
     6     6     7   ar
     7     7     8   ar
     8     8     9   ar
     9     9    10   ar
    10     4    11    1
    11    11    12   ar
    12    12    13   ar
    13    13    14   ar
    14    14    15   ar
    15    15    16   ar
    16    10     5   ar
    17    16    11   ar
    18     1    17    1
    19     4    18    1
    20     6    19    1
    21     7    20    1
    22     8    21    1
    23     9    22    1
    24    10    23    1
    25    12    24    1
    26    13    25    1
    27    14    26    1
    28    15    27    1
    29    16    28    1
