@<TRIPOS>MOLECULE
*****
 40 42 0 0 0
SMALL
GASTEIGER

@<TRIPOS>ATOM
      1 C          -0.5964   -0.6849    0.8891 C.3     1  UNL1        0.0251
      2 N          -0.3520    0.7271    0.8331 N.pl3   1  UNL1       -0.1888
      3 C          -1.2876    1.6370    0.2975 C.ar    1  UNL1        0.1437
      4 C          -1.2976    3.0024    0.1384 C.ar    1  UNL1       -0.0004
      5 C          -2.4514    3.4695   -0.4544 C.ar    1  UNL1        0.0517
      6 N          -3.1617    2.3241   -0.6573 N.ar    1  UNL1       -0.1730
      7 N          -2.4745    1.2868   -0.2184 N.ar    1  UNL1       -0.2171
      8 C          -3.1775    0.0735   -0.4133 C.ar    1  UNL1        0.0675
      9 C          -4.2822   -0.1155    0.4302 C.ar    1  UNL1       -0.0362
     10 C          -5.1113   -1.2276    0.4023 C.ar    1  UNL1       -0.0598
     11 C          -4.8435   -2.2132   -0.5051 C.ar    1  UNL1       -0.0616
     12 C          -3.7654   -2.0604   -1.3499 C.ar    1  UNL1       -0.0598
     13 C          -2.9479   -0.9656   -1.3235 C.ar    1  UNL1       -0.0362
     14 S           1.1691    1.2289    1.4680 S.O2    1  UNL1        0.0756
     15 O           1.3212    2.6989    1.3770 O.2     1  UNL1       -0.1497
     16 O           1.2827    0.8582    2.9201 O.2     1  UNL1       -0.1497
     17 C           2.4991    0.5044    0.5512 C.ar    1  UNL1        0.1088
     18 C           2.9523   -0.7215    1.0124 C.ar    1  UNL1       -0.0348
     19 C           3.9851   -1.3622    0.3622 C.ar    1  UNL1       -0.0570
     20 C           4.5374   -0.7529   -0.7376 C.ar    1  UNL1       -0.0503
     21 C           5.6550   -1.4606   -1.4296 C.3     1  UNL1       -0.0397
     22 C           4.1033    0.4649   -1.2136 C.ar    1  UNL1       -0.0570
     23 C           3.0565    1.1147   -0.5549 C.ar    1  UNL1       -0.0348
     24 H          -0.3697   -1.2027   -0.0673 H       1  UNL1        0.0447
     25 H          -1.6327   -0.8538    1.2437 H       1  UNL1        0.0447
     26 H           0.0338   -1.1222    1.7198 H       1  UNL1        0.0447
     27 H          -0.5064    3.6758    0.4326 H       1  UNL1        0.0668
     28 H          -2.6939    4.4997   -0.6844 H       1  UNL1        0.0848
     29 H          -4.5505    0.6412    1.1820 H       1  UNL1        0.0639
     30 H          -5.9425   -1.3100    1.0777 H       1  UNL1        0.0618
     31 H          -5.4360   -3.1132   -0.5968 H       1  UNL1        0.0618
     32 H          -3.4607   -2.7727   -2.1035 H       1  UNL1        0.0618
     33 H          -2.0842   -0.7656   -1.9474 H       1  UNL1        0.0639
     34 H           2.5266   -1.2125    1.8769 H       1  UNL1        0.0637
     35 H           4.3256   -2.3329    0.7478 H       1  UNL1        0.0621
     36 H           5.2481   -2.2259   -2.1439 H       1  UNL1        0.0278
     37 H           6.2655   -0.7422   -1.9845 H       1  UNL1        0.0278
     38 H           6.2685   -2.0139   -0.6895 H       1  UNL1        0.0278
     39 H           4.5310    0.9547   -2.0794 H       1  UNL1        0.0621
     40 H           2.6644    2.0702   -0.8708 H       1  UNL1        0.0637
@<TRIPOS>BOND
     1     1     2    1
     2     2     3    1
     3     3     4   ar
     4     4     5   ar
     5     5     6   ar
     6     6     7   ar
     7     7     8    1
     8     8     9   ar
     9     9    10   ar
    10    10    11   ar
    11    11    12   ar
    12    12    13   ar
    13     2    14    1
    14    14    15    2
    15    14    16    2
    16    14    17    1
    17    17    18   ar
    18    18    19   ar
    19    19    20   ar
    20    20    21    1
    21    20    22   ar
    22    22    23   ar
    23     7     3   ar
    24    13     8   ar
    25    23    17   ar
    26     1    24    1
    27     1    25    1
    28     1    26    1
    29     4    27    1
    30     5    28    1
    31     9    29    1
    32    10    30    1
    33    11    31    1
    34    12    32    1
    35    13    33    1
    36    18    34    1
    37    19    35    1
    38    21    36    1
    39    21    37    1
    40    21    38    1
    41    22    39    1
    42    23    40    1
