@<TRIPOS>MOLECULE
*****
 23 24 0 0 0
SMALL
GASTEIGER

@<TRIPOS>ATOM
      1 O          -1.1452    1.7322    1.9616 O.2     1  UNL1       -0.2484
      2 C          -0.3259    1.8695    1.0221 C.2     1  UNL1        0.3332
      3 O           0.7869    2.6907    1.1015 O.3     1  UNL1       -0.4790
      4 C          -0.5500    1.1199   -0.2413 C.3     1  UNL1        0.1829
      5 C           0.5171    0.1200   -0.4363 C.2     1  UNL1        0.1300
      6 C           1.8282    0.3669   -0.4443 C.2     1  UNL1       -0.0188
      7 C           2.7926   -0.7464   -0.6535 C.3     1  UNL1        0.0658
      8 O           3.6388   -0.8397    0.4718 O.3     1  UNL1       -0.3909
      9 O          -0.1198   -1.1094   -0.6067 O.2     1  UNL1       -0.4723
     10 C          -1.3047   -1.0673    0.1678 C.3     1  UNL1        0.1784
     11 C          -2.5462   -1.6385   -0.4561 C.3     1  UNL1        0.0786
     12 C          -3.0538   -0.2342   -0.2073 C.2     1  UNL1        0.2244
     13 O          -4.1788    0.3091   -0.0649 O.2     1  UNL1       -0.2753
     14 N          -1.7416    0.3060   -0.1864 N.am    1  UNL1       -0.2451
     15 H           0.7778    3.4613    1.7843 H       1  UNL1        0.2951
     16 H          -0.5351    1.8102   -1.1103 H       1  UNL1        0.0700
     17 H           2.2428    1.3551   -0.3039 H       1  UNL1        0.0628
     18 H           3.4613   -0.4837   -1.5044 H       1  UNL1        0.0602
     19 H           2.2960   -1.7055   -0.8559 H       1  UNL1        0.0602
     20 H           3.8198   -1.8156    0.6056 H       1  UNL1        0.2098
     21 H          -1.1474   -1.2296    1.2314 H       1  UNL1        0.0957
     22 H          -3.0362   -2.3557    0.2324 H       1  UNL1        0.0412
     23 H          -2.4765   -1.9154   -1.5072 H       1  UNL1        0.0412
@<TRIPOS>BOND
     1     1     2    2
     2     2     3    1
     3     2     4    1
     4     4     5    1
     5     5     6    2
     6     6     7    1
     7     7     8    1
     8     5     9    1
     9     9    10    1
    10    10    11    1
    11    11    12    1
    12    12    13    2
    13    12    14   am
    14    14     4    1
    15    14    10    1
    16     3    15    1
    17     4    16    1
    18     6    17    1
    19     7    18    1
    20     7    19    1
    21     8    20    1
    22    10    21    1
    23    11    22    1
    24    11    23    1
