@<TRIPOS>MOLECULE
*****
 43 46 0 0 0
SMALL
GASTEIGER

@<TRIPOS>ATOM
      1 C           5.5870    1.0215    1.4644 C.3     1  UNL1       -0.0385
      2 C           4.1319    0.8849    1.9095 C.ar    1  UNL1       -0.0309
      3 C           3.7091    1.7296    2.9051 C.ar    1  UNL1       -0.0189
      4 S           1.9712    1.3079    3.1819 S.2     1  UNL1       -0.0809
      5 C           1.9826    0.0041    1.8996 C.ar    1  UNL1        0.0827
      6 N           0.8414   -0.7750    1.5892 N.am    1  UNL1       -0.2781
      7 C          -0.0992   -0.4134    0.6178 C.2     1  UNL1        0.2354
      8 O           0.0665    0.6514   -0.0154 O.2     1  UNL1       -0.2737
      9 C          -1.2972   -1.2839    0.3294 C.3     1  UNL1        0.0964
     10 N          -2.1058   -0.6954   -0.7035 N.am    1  UNL1       -0.2623
     11 C          -1.8780   -1.0012   -2.0683 C.2     1  UNL1        0.2205
     12 O          -0.7594   -1.3390   -2.4905 O.2     1  UNL1       -0.2752
     13 C          -3.0487   -0.8980   -2.9762 C.3     1  UNL1        0.0285
     14 C          -3.6232    0.4765   -2.8506 C.3     1  UNL1       -0.0177
     15 C          -3.9094    0.7834   -1.4440 C.ar    1  UNL1       -0.0255
     16 C          -4.9409    1.6641   -1.1431 C.ar    1  UNL1       -0.0568
     17 C          -5.1924    1.9621    0.1741 C.ar    1  UNL1       -0.0614
     18 C          -4.4652    1.4250    1.2124 C.ar    1  UNL1       -0.0600
     19 C          -3.4458    0.5516    0.8783 C.ar    1  UNL1       -0.0400
     20 C          -3.1565    0.2225   -0.4252 C.ar    1  UNL1        0.0400
     21 C           3.2470    0.0018    1.3954 C.ar    1  UNL1        0.0504
     22 C           3.5499   -0.9931    0.3008 C.ar    1  UNL1        0.1640
     23 N           2.6334   -1.8718   -0.1964 N.ar    1  UNL1       -0.1295
     24 N           3.1709   -2.6096   -1.1314 N.ar    1  UNL1       -0.1377
     25 C           4.4361   -2.2202   -1.2512 C.ar    1  UNL1        0.1175
     26 N           4.6640   -1.2097   -0.3524 N.ar    1  UNL1       -0.3276
     27 H           6.1801    0.1530    1.7074 H       1  UNL1        0.0278
     28 H           6.0692    1.8576    2.0679 H       1  UNL1        0.0278
     29 H           5.6067    1.3921    0.4338 H       1  UNL1        0.0278
     30 H           4.2164    2.5006    3.4594 H       1  UNL1        0.0697
     31 H           0.6814   -1.6781    2.1116 H       1  UNL1        0.1554
     32 H          -1.8404   -1.5547    1.2484 H       1  UNL1        0.0564
     33 H          -0.8844   -2.2616   -0.0589 H       1  UNL1        0.0564
     34 H          -2.6953   -1.0903   -4.0064 H       1  UNL1        0.0362
     35 H          -3.7882   -1.6909   -2.6952 H       1  UNL1        0.0362
     36 H          -2.8551    1.1988   -3.1961 H       1  UNL1        0.0318
     37 H          -4.5128    0.5712   -3.5073 H       1  UNL1        0.0318
     38 H          -5.5427    2.1146   -1.9156 H       1  UNL1        0.0621
     39 H          -5.9965    2.6505    0.4345 H       1  UNL1        0.0618
     40 H          -4.6647    1.6611    2.2485 H       1  UNL1        0.0618
     41 H          -2.8650    0.1235    1.6900 H       1  UNL1        0.0636
     42 H           5.2171   -2.5867   -1.9193 H       1  UNL1        0.1046
     43 H           5.6047   -0.7369   -0.2618 H       1  UNL1        0.1683
@<TRIPOS>BOND
     1     1     2    1
     2     2     3   ar
     3     3     4   ar
     4     4     5   ar
     5     5     6    1
     6     6     7   am
     7     7     8    2
     8     7     9    1
     9     9    10    1
    10    10    11   am
    11    11    12    2
    12    11    13    1
    13    13    14    1
    14    14    15    1
    15    15    16   ar
    16    16    17   ar
    17    17    18   ar
    18    18    19   ar
    19    19    20   ar
    20     5    21   ar
    21    21    22    1
    22    22    23   ar
    23    23    24   ar
    24    24    25   ar
    25    25    26   ar
    26    21     2   ar
    27    26    22   ar
    28    20    10    1
    29    20    15   ar
    30     1    27    1
    31     1    28    1
    32     1    29    1
    33     3    30    1
    34     6    31    1
    35     9    32    1
    36     9    33    1
    37    13    34    1
    38    13    35    1
    39    14    36    1
    40    14    37    1
    41    16    38    1
    42    17    39    1
    43    18    40    1
    44    19    41    1
    45    25    42    1
    46    26    43    1
