
     RDKit          3D

 43 46  0  0  0  0  0  0  0  0999 V2000
    5.5870    1.0215    1.4644 C   0  0  0  0  0  0  0  0  0  0  0  0
    4.1319    0.8849    1.9095 C   0  0  0  0  0  0  0  0  0  0  0  0
    3.7091    1.7296    2.9051 C   0  0  0  0  0  0  0  0  0  0  0  0
    1.9712    1.3079    3.1819 S   0  0  0  0  0  0  0  0  0  0  0  0
    1.9826    0.0041    1.8996 C   0  0  0  0  0  0  0  0  0  0  0  0
    0.8414   -0.7750    1.5892 N   0  0  0  0  0  0  0  0  0  0  0  0
   -0.0992   -0.4134    0.6178 C   0  0  0  0  0  0  0  0  0  0  0  0
    0.0665    0.6514   -0.0154 O   0  0  0  0  0  0  0  0  0  0  0  0
   -1.2972   -1.2839    0.3294 C   0  0  0  0  0  0  0  0  0  0  0  0
   -2.1058   -0.6954   -0.7035 N   0  0  0  0  0  0  0  0  0  0  0  0
   -1.8780   -1.0012   -2.0683 C   0  0  0  0  0  0  0  0  0  0  0  0
   -0.7594   -1.3390   -2.4905 O   0  0  0  0  0  0  0  0  0  0  0  0
   -3.0487   -0.8980   -2.9762 C   0  0  0  0  0  0  0  0  0  0  0  0
   -3.6232    0.4765   -2.8506 C   0  0  0  0  0  0  0  0  0  0  0  0
   -3.9094    0.7834   -1.4440 C   0  0  0  0  0  0  0  0  0  0  0  0
   -4.9409    1.6641   -1.1431 C   0  0  0  0  0  0  0  0  0  0  0  0
   -5.1924    1.9621    0.1741 C   0  0  0  0  0  0  0  0  0  0  0  0
   -4.4652    1.4250    1.2124 C   0  0  0  0  0  0  0  0  0  0  0  0
   -3.4458    0.5516    0.8783 C   0  0  0  0  0  0  0  0  0  0  0  0
   -3.1565    0.2225   -0.4252 C   0  0  0  0  0  0  0  0  0  0  0  0
    3.2470    0.0018    1.3954 C   0  0  0  0  0  0  0  0  0  0  0  0
    3.5499   -0.9931    0.3008 C   0  0  0  0  0  0  0  0  0  0  0  0
    2.6334   -1.8718   -0.1964 N   0  0  0  0  0  0  0  0  0  0  0  0
    3.1709   -2.6096   -1.1314 N   0  0  0  0  0  0  0  0  0  0  0  0
    4.4361   -2.2202   -1.2512 C   0  0  0  0  0  0  0  0  0  0  0  0
    4.6640   -1.2097   -0.3524 N   0  0  0  0  0  0  0  0  0  0  0  0
    6.1801    0.1530    1.7074 H   0  0  0  0  0  0  0  0  0  0  0  0
    6.0692    1.8576    2.0679 H   0  0  0  0  0  0  0  0  0  0  0  0
    5.6067    1.3921    0.4338 H   0  0  0  0  0  0  0  0  0  0  0  0
    4.2164    2.5006    3.4594 H   0  0  0  0  0  0  0  0  0  0  0  0
    0.6814   -1.6781    2.1116 H   0  0  0  0  0  0  0  0  0  0  0  0
   -1.8404   -1.5547    1.2484 H   0  0  0  0  0  0  0  0  0  0  0  0
   -0.8844   -2.2616   -0.0589 H   0  0  0  0  0  0  0  0  0  0  0  0
   -2.6953   -1.0903   -4.0064 H   0  0  0  0  0  0  0  0  0  0  0  0
   -3.7882   -1.6909   -2.6952 H   0  0  0  0  0  0  0  0  0  0  0  0
   -2.8551    1.1988   -3.1961 H   0  0  0  0  0  0  0  0  0  0  0  0
   -4.5128    0.5712   -3.5073 H   0  0  0  0  0  0  0  0  0  0  0  0
   -5.5427    2.1146   -1.9156 H   0  0  0  0  0  0  0  0  0  0  0  0
   -5.9965    2.6505    0.4345 H   0  0  0  0  0  0  0  0  0  0  0  0
   -4.6647    1.6611    2.2485 H   0  0  0  0  0  0  0  0  0  0  0  0
   -2.8650    0.1235    1.6900 H   0  0  0  0  0  0  0  0  0  0  0  0
    5.2171   -2.5867   -1.9193 H   0  0  0  0  0  0  0  0  0  0  0  0
    5.6047   -0.7369   -0.2618 H   0  0  0  0  0  0  0  0  0  0  0  0
  1  2  1  0
  2  3  2  0
  3  4  1  0
  4  5  1  0
  5  6  1  0
  6  7  1  0
  7  8  2  0
  7  9  1  0
  9 10  1  0
 10 11  1  0
 11 12  2  0
 11 13  1  0
 13 14  1  0
 14 15  1  0
 15 16  2  0
 16 17  1  0
 17 18  2  0
 18 19  1  0
 19 20  2  0
  5 21  2  0
 21 22  1  0
 22 23  2  0
 23 24  1  0
 24 25  2  0
 25 26  1  0
 21  2  1  0
 26 22  1  0
 20 10  1  0
 20 15  1  0
  1 27  1  0
  1 28  1  0
  1 29  1  0
  3 30  1  0
  6 31  1  0
  9 32  1  0
  9 33  1  0
 13 34  1  0
 13 35  1  0
 14 36  1  0
 14 37  1  0
 16 38  1  0
 17 39  1  0
 18 40  1  0
 19 41  1  0
 25 42  1  0
 26 43  1  0
M  END
$$$$
