
     RDKit          3D

 68 71  0  0  0  0  0  0  0  0999 V2000
    6.8412    3.7556   -0.9392 C   0  0  0  0  0  0  0  0  0  0  0  0
    6.5885    2.3457   -0.5908 C   0  0  0  0  0  0  0  0  0  0  0  0
    5.3461    1.9446   -0.1146 C   0  0  0  0  0  0  0  0  0  0  0  0
    5.1426    0.6337    0.1989 C   0  0  0  0  0  0  0  0  0  0  0  0
    3.8496    0.1247    0.7111 C   0  0  0  0  0  0  0  0  0  0  0  0
    3.7327   -1.2183    1.0016 C   0  0  0  0  0  0  0  0  0  0  0  0
    2.5645   -1.7760    1.4832 C   0  0  0  0  0  0  0  0  0  0  0  0
    1.4595   -0.9836    1.6903 C   0  0  0  0  0  0  0  0  0  0  0  0
    0.1657   -1.5112    2.2063 C   0  0  2  0  0  0  0  0  0  0  0  0
    0.1884   -3.0208    2.1989 C   0  0  0  0  0  0  0  0  0  0  0  0
   -0.8891   -0.9561    1.4250 N   0  0  0  0  0  0  0  0  0  0  0  0
   -1.8789   -0.1202    2.0781 C   0  0  0  0  0  0  0  0  0  0  0  0
   -3.2290   -0.5544    1.5478 C   0  0  0  0  0  0  0  0  0  0  0  0
   -3.3570   -0.2186    0.0383 C   0  0  2  0  0  0  0  0  0  0  0  0
   -3.7143    1.2125   -0.0308 C   0  0  0  0  0  0  0  0  0  0  0  0
   -3.8620    1.8133   -1.3966 C   0  0  0  0  0  0  0  0  0  0  0  0
   -4.2260    3.2924   -1.1472 C   0  0  0  0  0  0  0  0  0  0  0  0
   -4.9251    1.2586   -2.2674 C   0  0  0  0  0  0  0  0  0  0  0  0
   -2.6344    1.8639   -2.0644 O   0  0  0  0  0  0  0  0  0  0  0  0
   -4.3381   -1.1920   -0.4470 C   0  0  0  0  0  0  0  0  0  0  0  0
   -5.7073   -1.0723   -0.3429 C   0  0  0  0  0  0  0  0  0  0  0  0
   -6.6006   -2.0009   -0.8043 C   0  0  0  0  0  0  0  0  0  0  0  0
   -6.1220   -3.1247   -1.4096 C   0  0  0  0  0  0  0  0  0  0  0  0
   -4.7720   -3.3008   -1.5428 C   0  0  0  0  0  0  0  0  0  0  0  0
   -3.8781   -2.3358   -1.0623 C   0  0  0  0  0  0  0  0  0  0  0  0
   -2.1110   -0.4980   -0.5750 O   0  0  0  0  0  0  0  0  0  0  0  0
   -1.0680   -1.1499    0.0291 C   0  0  0  0  0  0  0  0  0  0  0  0
   -0.2587   -1.9055   -0.5583 O   0  0  0  0  0  0  0  0  0  0  0  0
    1.5707    0.3595    1.4016 C   0  0  0  0  0  0  0  0  0  0  0  0
    2.7572    0.9269    0.9122 C   0  0  0  0  0  0  0  0  0  0  0  0
    6.1725   -0.2288    0.0302 N   0  0  0  0  0  0  0  0  0  0  0  0
    7.3577    0.0960   -0.4132 N   0  0  0  0  0  0  0  0  0  0  0  0
    8.4342   -0.8791   -0.5755 C   0  0  0  0  0  0  0  0  0  0  0  0
    7.5753    1.3969   -0.7293 C   0  0  0  0  0  0  0  0  0  0  0  0
    8.7071    1.7148   -1.1542 O   0  0  0  0  0  0  0  0  0  0  0  0
    7.0943    4.3520   -0.0463 H   0  0  0  0  0  0  0  0  0  0  0  0
    7.5722    3.8701   -1.7617 H   0  0  0  0  0  0  0  0  0  0  0  0
    5.8753    4.1785   -1.3294 H   0  0  0  0  0  0  0  0  0  0  0  0
    4.5516    2.6786    0.0025 H   0  0  0  0  0  0  0  0  0  0  0  0
    4.5967   -1.8658    0.8451 H   0  0  0  0  0  0  0  0  0  0  0  0
    2.4739   -2.8328    1.7114 H   0  0  0  0  0  0  0  0  0  0  0  0
    0.0788   -1.2071    3.2674 H   0  0  0  0  0  0  0  0  0  0  0  0
   -0.8135   -3.4509    2.3166 H   0  0  0  0  0  0  0  0  0  0  0  0
    0.5495   -3.3311    1.1908 H   0  0  0  0  0  0  0  0  0  0  0  0
    0.9309   -3.3800    2.9261 H   0  0  0  0  0  0  0  0  0  0  0  0
   -1.6610    0.9149    1.7862 H   0  0  0  0  0  0  0  0  0  0  0  0
   -1.8902   -0.2711    3.1757 H   0  0  0  0  0  0  0  0  0  0  0  0
   -3.4325   -1.6051    1.7412 H   0  0  0  0  0  0  0  0  0  0  0  0
   -3.9938    0.0514    2.0769 H   0  0  0  0  0  0  0  0  0  0  0  0
   -4.5958    1.4923    0.5875 H   0  0  0  0  0  0  0  0  0  0  0  0
   -2.8830    1.8195    0.4454 H   0  0  0  0  0  0  0  0  0  0  0  0
   -4.3523    3.8394   -2.0819 H   0  0  0  0  0  0  0  0  0  0  0  0
   -3.3795    3.6788   -0.5256 H   0  0  0  0  0  0  0  0  0  0  0  0
   -5.1023    3.2658   -0.4874 H   0  0  0  0  0  0  0  0  0  0  0  0
   -4.7373    0.2450   -2.6660 H   0  0  0  0  0  0  0  0  0  0  0  0
   -4.9956    1.9564   -3.1538 H   0  0  0  0  0  0  0  0  0  0  0  0
   -5.9071    1.3797   -1.7666 H   0  0  0  0  0  0  0  0  0  0  0  0
   -2.6566    2.5913   -2.7154 H   0  0  0  0  0  0  0  0  0  0  0  0
   -6.0708   -0.1756    0.1395 H   0  0  0  0  0  0  0  0  0  0  0  0
   -7.6504   -1.8289   -0.6824 H   0  0  0  0  0  0  0  0  0  0  0  0
   -6.7994   -3.9005   -1.7973 H   0  0  0  0  0  0  0  0  0  0  0  0
   -4.4283   -4.2028   -2.0274 H   0  0  0  0  0  0  0  0  0  0  0  0
   -2.8435   -2.5617   -1.2122 H   0  0  0  0  0  0  0  0  0  0  0  0
    0.7225    1.0058    1.5535 H   0  0  0  0  0  0  0  0  0  0  0  0
    2.8142    1.9773    0.6961 H   0  0  0  0  0  0  0  0  0  0  0  0
    8.0239   -1.8822   -0.4018 H   0  0  0  0  0  0  0  0  0  0  0  0
    9.1986   -0.6528    0.1818 H   0  0  0  0  0  0  0  0  0  0  0  0
    8.8290   -0.8409   -1.6039 H   0  0  0  0  0  0  0  0  0  0  0  0
  1  2  1  0
  2  3  2  0
  3  4  1  0
  4  5  1  0
  5  6  2  0
  6  7  1  0
  7  8  2  0
  8  9  1  0
  9 10  1  0
  9 11  1  0
 11 12  1  0
 12 13  1  0
 13 14  1  0
 14 15  1  1
 15 16  1  0
 16 17  1  0
 16 18  1  0
 16 19  1  0
 14 20  1  0
 20 21  2  0
 21 22  1  0
 22 23  2  0
 23 24  1  0
 24 25  2  0
 14 26  1  0
 26 27  1  0
 27 28  2  0
  8 29  1  0
 29 30  2  0
  4 31  2  0
 31 32  1  0
 32 33  1  0
 32 34  1  0
 34 35  2  0
 34  2  1  0
 30  5  1  0
 27 11  1  0
 25 20  1  0
  1 36  1  0
  1 37  1  0
  1 38  1  0
  3 39  1  0
  6 40  1  0
  7 41  1  0
  9 42  1  1
 10 43  1  0
 10 44  1  0
 10 45  1  0
 12 46  1  0
 12 47  1  0
 13 48  1  0
 13 49  1  0
 15 50  1  0
 15 51  1  0
 17 52  1  0
 17 53  1  0
 17 54  1  0
 18 55  1  0
 18 56  1  0
 18 57  1  0
 19 58  1  0
 21 59  1  0
 22 60  1  0
 23 61  1  0
 24 62  1  0
 25 63  1  0
 29 64  1  0
 30 65  1  0
 33 66  1  0
 33 67  1  0
 33 68  1  0
M  END
$$$$
