@<TRIPOS>MOLECULE
*****
 68 71 0 0 0
SMALL
GASTEIGER

@<TRIPOS>ATOM
      1 C           6.8412    3.7556   -0.9392 C.3     1  UNL1       -0.0345
      2 C           6.5885    2.3457   -0.5908 C.ar    1  UNL1        0.0175
      3 C           5.3461    1.9446   -0.1146 C.ar    1  UNL1       -0.0259
      4 C           5.1426    0.6337    0.1989 C.ar    1  UNL1        0.0918
      5 C           3.8496    0.1247    0.7111 C.ar    1  UNL1        0.0021
      6 C           3.7327   -1.2183    1.0016 C.ar    1  UNL1       -0.0522
      7 C           2.5645   -1.7760    1.4832 C.ar    1  UNL1       -0.0562
      8 C           1.4595   -0.9836    1.6903 C.ar    1  UNL1       -0.0271
      9 C           0.1657   -1.5112    2.2063 C.3     1  UNL1        0.0515
     10 C           0.1884   -3.0208    2.1989 C.3     1  UNL1       -0.0421
     11 N          -0.8891   -0.9561    1.4250 N.am    1  UNL1       -0.2605
     12 C          -1.8789   -0.1202    2.0781 C.3     1  UNL1        0.0224
     13 C          -3.2290   -0.5544    1.5478 C.3     1  UNL1        0.0076
     14 C          -3.3570   -0.2186    0.0383 C.3     1  UNL1        0.1440
     15 C          -3.7143    1.2125   -0.0308 C.3     1  UNL1        0.0199
     16 C          -3.8620    1.8133   -1.3966 C.3     1  UNL1        0.0645
     17 C          -4.2260    3.2924   -1.1472 C.3     1  UNL1       -0.0362
     18 C          -4.9251    1.2586   -2.2674 C.3     1  UNL1       -0.0362
     19 O          -2.6344    1.8639   -2.0644 O.3     1  UNL1       -0.3890
     20 C          -4.3381   -1.1920   -0.4470 C.ar    1  UNL1       -0.0040
     21 C          -5.7073   -1.0723   -0.3429 C.ar    1  UNL1       -0.0548
     22 C          -6.6006   -2.0009   -0.8043 C.ar    1  UNL1       -0.0614
     23 C          -6.1220   -3.1247   -1.4096 C.ar    1  UNL1       -0.0617
     24 C          -4.7720   -3.3008   -1.5428 C.ar    1  UNL1       -0.0614
     25 C          -3.8781   -2.3358   -1.0623 C.ar    1  UNL1       -0.0548
     26 O          -2.1110   -0.4980   -0.5750 O.3     1  UNL1       -0.4387
     27 C          -1.0680   -1.1499    0.0291 C.2     1  UNL1        0.4042
     28 O          -0.2587   -1.9055   -0.5583 O.2     1  UNL1       -0.2262
     29 C           1.5707    0.3595    1.4016 C.ar    1  UNL1       -0.0562
     30 C           2.7572    0.9269    0.9122 C.ar    1  UNL1       -0.0522
     31 N           6.1725   -0.2288    0.0302 N.ar    1  UNL1       -0.1685
     32 N           7.3577    0.0960   -0.4132 N.ar    1  UNL1       -0.2318
     33 C           8.4342   -0.8791   -0.5755 C.3     1  UNL1        0.0340
     34 C           7.5753    1.3969   -0.7293 C.ar    1  UNL1        0.2699
     35 O           8.7071    1.7148   -1.1542 O.2     1  UNL1       -0.2659
     36 H           7.0943    4.3520   -0.0463 H       1  UNL1        0.0279
     37 H           7.5722    3.8701   -1.7617 H       1  UNL1        0.0279
     38 H           5.8753    4.1785   -1.3294 H       1  UNL1        0.0279
     39 H           4.5516    2.6786    0.0025 H       1  UNL1        0.0644
     40 H           4.5967   -1.8658    0.8451 H       1  UNL1        0.0624
     41 H           2.4739   -2.8328    1.7114 H       1  UNL1        0.0621
     42 H           0.0788   -1.2071    3.2674 H       1  UNL1        0.0549
     43 H          -0.8135   -3.4509    2.3166 H       1  UNL1        0.0251
     44 H           0.5495   -3.3311    1.1908 H       1  UNL1        0.0251
     45 H           0.9309   -3.3800    2.9261 H       1  UNL1        0.0251
     46 H          -1.6610    0.9149    1.7862 H       1  UNL1        0.0467
     47 H          -1.8902   -0.2711    3.1757 H       1  UNL1        0.0467
     48 H          -3.4325   -1.6051    1.7412 H       1  UNL1        0.0322
     49 H          -3.9938    0.0514    2.0769 H       1  UNL1        0.0322
     50 H          -4.5958    1.4923    0.5875 H       1  UNL1        0.0335
     51 H          -2.8830    1.8195    0.4454 H       1  UNL1        0.0335
     52 H          -4.3523    3.8394   -2.0819 H       1  UNL1        0.0257
     53 H          -3.3795    3.6788   -0.5256 H       1  UNL1        0.0257
     54 H          -5.1023    3.2658   -0.4874 H       1  UNL1        0.0257
     55 H          -4.7373    0.2450   -2.6660 H       1  UNL1        0.0257
     56 H          -4.9956    1.9564   -3.1538 H       1  UNL1        0.0257
     57 H          -5.9071    1.3797   -1.7666 H       1  UNL1        0.0257
     58 H          -2.6566    2.5913   -2.7154 H       1  UNL1        0.2101
     59 H          -6.0708   -0.1756    0.1395 H       1  UNL1        0.0622
     60 H          -7.6504   -1.8289   -0.6824 H       1  UNL1        0.0618
     61 H          -6.7994   -3.9005   -1.7973 H       1  UNL1        0.0618
     62 H          -4.4283   -4.2028   -2.0274 H       1  UNL1        0.0618
     63 H          -2.8435   -2.5617   -1.2122 H       1  UNL1        0.0622
     64 H           0.7225    1.0058    1.5535 H       1  UNL1        0.0621
     65 H           2.8142    1.9773    0.6961 H       1  UNL1        0.0624
     66 H           8.0239   -1.8822   -0.4018 H       1  UNL1        0.0474
     67 H           9.1986   -0.6528    0.1818 H       1  UNL1        0.0474
     68 H           8.8290   -0.8409   -1.6039 H       1  UNL1        0.0474
@<TRIPOS>BOND
     1     1     2    1
     2     2     3   ar
     3     3     4   ar
     4     4     5    1
     5     5     6   ar
     6     6     7   ar
     7     7     8   ar
     8     8     9    1
     9     9    10    1
    10     9    11    1
    11    11    12    1
    12    12    13    1
    13    13    14    1
    14    14    15    1
    15    15    16    1
    16    16    17    1
    17    16    18    1
    18    16    19    1
    19    14    20    1
    20    20    21   ar
    21    21    22   ar
    22    22    23   ar
    23    23    24   ar
    24    24    25   ar
    25    14    26    1
    26    26    27    1
    27    27    28    2
    28     8    29   ar
    29    29    30   ar
    30     4    31   ar
    31    31    32   ar
    32    32    33    1
    33    32    34   ar
    34    34    35    2
    35    34     2   ar
    36    30     5   ar
    37    27    11   am
    38    25    20   ar
    39     1    36    1
    40     1    37    1
    41     1    38    1
    42     3    39    1
    43     6    40    1
    44     7    41    1
    45     9    42    1
    46    10    43    1
    47    10    44    1
    48    10    45    1
    49    12    46    1
    50    12    47    1
    51    13    48    1
    52    13    49    1
    53    15    50    1
    54    15    51    1
    55    17    52    1
    56    17    53    1
    57    17    54    1
    58    18    55    1
    59    18    56    1
    60    18    57    1
    61    19    58    1
    62    21    59    1
    63    22    60    1
    64    23    61    1
    65    24    62    1
    66    25    63    1
    67    29    64    1
    68    30    65    1
    69    33    66    1
    70    33    67    1
    71    33    68    1
