
     RDKit          3D

 34 36  0  0  0  0  0  0  0  0999 V2000
    4.5071    0.9832    1.6085 C   0  0  0  0  0  0  0  0  0  0  0  0
    4.1878    2.1014    0.8745 C   0  0  0  0  0  0  0  0  0  0  0  0
    3.1134    2.0188    0.0186 C   0  0  0  0  0  0  0  0  0  0  0  0
    2.3567    0.8721   -0.1274 C   0  0  0  0  0  0  0  0  0  0  0  0
    1.2902    0.8350   -0.9957 C   0  0  0  0  0  0  0  0  0  0  0  0
    0.5522   -0.3272   -1.1195 C   0  0  0  0  0  0  0  0  0  0  0  0
   -0.5871   -0.3308   -2.0752 C   0  0  0  0  0  0  0  0  0  0  0  0
   -1.7734    0.1098   -1.5802 O   0  0  0  0  0  0  0  0  0  0  0  0
   -2.3280   -0.5481   -0.5295 C   0  0  1  0  0  0  0  0  0  0  0  0
   -2.5001    0.4854    0.5951 C   0  0  0  0  0  0  0  0  0  0  0  0
   -3.7126    0.0146    1.3615 C   0  0  0  0  0  0  0  0  0  0  0  0
   -4.2150   -1.1403    0.6406 N   0  0  0  0  0  0  0  0  0  0  0  0
   -3.7714   -0.9440   -0.7482 C   0  0  0  0  0  0  0  0  0  0  0  0
    0.9044   -1.4110   -0.3731 C   0  0  0  0  0  0  0  0  0  0  0  0
    1.9863   -1.3567    0.5010 C   0  0  0  0  0  0  0  0  0  0  0  0
    2.7260   -0.2244    0.6390 C   0  0  0  0  0  0  0  0  0  0  0  0
    3.7943   -0.1780    1.5051 C   0  0  0  0  0  0  0  0  0  0  0  0
    5.3622    1.0696    2.2811 H   0  0  0  0  0  0  0  0  0  0  0  0
    4.7726    3.0022    0.9812 H   0  0  0  0  0  0  0  0  0  0  0  0
    2.8372    2.8878   -0.5751 H   0  0  0  0  0  0  0  0  0  0  0  0
    1.0428    1.7143   -1.5697 H   0  0  0  0  0  0  0  0  0  0  0  0
   -0.3032    0.3475   -2.9173 H   0  0  0  0  0  0  0  0  0  0  0  0
   -0.6965   -1.3351   -2.5488 H   0  0  0  0  0  0  0  0  0  0  0  0
   -1.8050   -1.4066   -0.1211 H   0  0  0  0  0  0  0  0  0  0  0  0
   -1.5927    0.4972    1.2358 H   0  0  0  0  0  0  0  0  0  0  0  0
   -2.6665    1.4810    0.1510 H   0  0  0  0  0  0  0  0  0  0  0  0
   -3.4615   -0.2949    2.3894 H   0  0  0  0  0  0  0  0  0  0  0  0
   -4.4859    0.8072    1.4431 H   0  0  0  0  0  0  0  0  0  0  0  0
   -3.8734   -2.0343    1.0185 H   0  0  0  0  0  0  0  0  0  0  0  0
   -3.8789   -1.9174   -1.2456 H   0  0  0  0  0  0  0  0  0  0  0  0
   -4.3788   -0.1413   -1.1660 H   0  0  0  0  0  0  0  0  0  0  0  0
    0.3437   -2.3268   -0.4619 H   0  0  0  0  0  0  0  0  0  0  0  0
    2.2173   -2.2487    1.0667 H   0  0  0  0  0  0  0  0  0  0  0  0
    4.0358   -1.0615    2.0761 H   0  0  0  0  0  0  0  0  0  0  0  0
  1  2  2  0
  2  3  1  0
  3  4  2  0
  4  5  1  0
  5  6  2  0
  6  7  1  0
  7  8  1  0
  8  9  1  0
  9 10  1  0
 10 11  1  0
 11 12  1  0
 12 13  1  0
  6 14  1  0
 14 15  2  0
 15 16  1  0
 16 17  2  0
 17  1  1  0
 16  4  1  0
 13  9  1  0
  1 18  1  0
  2 19  1  0
  3 20  1  0
  5 21  1  0
  7 22  1  0
  7 23  1  0
  9 24  1  1
 10 25  1  0
 10 26  1  0
 11 27  1  0
 11 28  1  0
 12 29  1  0
 13 30  1  0
 13 31  1  0
 14 32  1  0
 15 33  1  0
 17 34  1  0
M  END
$$$$
