@<TRIPOS>MOLECULE
*****
 34 36 0 0 0
SMALL
GASTEIGER

@<TRIPOS>ATOM
      1 C           4.5071    0.9832    1.6085 C.ar    1  UNL1       -0.0612
      2 C           4.1878    2.1014    0.8745 C.ar    1  UNL1       -0.0612
      3 C           3.1134    2.0188    0.0186 C.ar    1  UNL1       -0.0540
      4 C           2.3567    0.8721   -0.1274 C.ar    1  UNL1       -0.0176
      5 C           1.2902    0.8350   -0.9957 C.ar    1  UNL1       -0.0487
      6 C           0.5522   -0.3272   -1.1195 C.ar    1  UNL1       -0.0213
      7 C          -0.5871   -0.3308   -2.0752 C.3     1  UNL1        0.0731
      8 O          -1.7734    0.1098   -1.5802 O.3     1  UNL1       -0.3707
      9 C          -2.3280   -0.5481   -0.5295 C.3     1  UNL1        0.0727
     10 C          -2.5001    0.4854    0.5951 C.3     1  UNL1       -0.0128
     11 C          -3.7126    0.0146    1.3615 C.3     1  UNL1       -0.0016
     12 N          -4.2150   -1.1403    0.6406 N.3     1  UNL1       -0.3134
     13 C          -3.7714   -0.9440   -0.7482 C.3     1  UNL1        0.0223
     14 C           0.9044   -1.4110   -0.3731 C.ar    1  UNL1       -0.0558
     15 C           1.9863   -1.3567    0.5010 C.ar    1  UNL1       -0.0537
     16 C           2.7260   -0.2244    0.6390 C.ar    1  UNL1       -0.0179
     17 C           3.7943   -0.1780    1.5051 C.ar    1  UNL1       -0.0540
     18 H           5.3622    1.0696    2.2811 H       1  UNL1        0.0618
     19 H           4.7726    3.0022    0.9812 H       1  UNL1        0.0618
     20 H           2.8372    2.8878   -0.5751 H       1  UNL1        0.0624
     21 H           1.0428    1.7143   -1.5697 H       1  UNL1        0.0627
     22 H          -0.3032    0.3475   -2.9173 H       1  UNL1        0.0610
     23 H          -0.6965   -1.3351   -2.5488 H       1  UNL1        0.0610
     24 H          -1.8050   -1.4066   -0.1211 H       1  UNL1        0.0609
     25 H          -1.5927    0.4972    1.2358 H       1  UNL1        0.0303
     26 H          -2.6665    1.4810    0.1510 H       1  UNL1        0.0303
     27 H          -3.4615   -0.2949    2.3894 H       1  UNL1        0.0425
     28 H          -4.4859    0.8072    1.4431 H       1  UNL1        0.0425
     29 H          -3.8734   -2.0343    1.0185 H       1  UNL1        0.1220
     30 H          -3.8789   -1.9174   -1.2456 H       1  UNL1        0.0449
     31 H          -4.3788   -0.1413   -1.1660 H       1  UNL1        0.0449
     32 H           0.3437   -2.3268   -0.4619 H       1  UNL1        0.0621
     33 H           2.2173   -2.2487    1.0667 H       1  UNL1        0.0624
     34 H           4.0358   -1.0615    2.0761 H       1  UNL1        0.0624
@<TRIPOS>BOND
     1     1     2   ar
     2     2     3   ar
     3     3     4   ar
     4     4     5   ar
     5     5     6   ar
     6     6     7    1
     7     7     8    1
     8     8     9    1
     9     9    10    1
    10    10    11    1
    11    11    12    1
    12    12    13    1
    13     6    14   ar
    14    14    15   ar
    15    15    16   ar
    16    16    17   ar
    17    17     1   ar
    18    16     4   ar
    19    13     9    1
    20     1    18    1
    21     2    19    1
    22     3    20    1
    23     5    21    1
    24     7    22    1
    25     7    23    1
    26     9    24    1
    27    10    25    1
    28    10    26    1
    29    11    27    1
    30    11    28    1
    31    12    29    1
    32    13    30    1
    33    13    31    1
    34    14    32    1
    35    15    33    1
    36    17    34    1
