@<TRIPOS>MOLECULE
*****
 26 25 0 0 0
SMALL
GASTEIGER

@<TRIPOS>ATOM
      1 C1          2.0725   -0.4503    0.5477 C.3     1  <1>         0.0000
      2 N1          2.7485   -1.0472    1.6447 N.3     1  <1>         0.0000
      3 C2          1.4825    0.9135    0.8081 C.3     1  <1>         0.0000
      4 S1          0.6802    1.4031   -0.7671 S.3     1  <1>         0.0000
      5 C3         -0.7548    0.3053   -1.0710 C.3     1  <1>         0.0000
      6 C4         -1.7384    0.6437    0.0236 C.3     1  <1>         0.0000
      7 B1         -3.0741   -0.1744   -0.0057 B       1  <1>         0.0000
      8 O1         -4.1607    0.7681    0.3808 O.3     1  <1>         0.0000
      9 O2         -3.1204   -1.2962    0.9496 O.3     1  <1>         0.0000
     10 O3         -3.3802   -0.5982   -1.3869 O.3     1  <1>         0.0000
     11 C5          3.0862   -0.3404   -0.5661 C.2     1  <1>         0.0000
     12 O4          4.3621   -0.5437   -1.0713 O.3     1  <1>         0.0000
     13 O5          2.6198    0.2050   -1.6144 O.2     1  <1>         0.0000
     14 H1          1.2798   -1.1141    0.1559 H       1  <1>         0.0000
     15 H2          2.5460   -0.6455    2.5750 H       1  <1>         0.0000
     16 H3          3.7573   -1.2694    1.5001 H       1  <1>         0.0000
     17 H4          0.8028    0.9413    1.6564 H       1  <1>         0.0000
     18 H5          2.3230    1.6048    1.0084 H       1  <1>         0.0000
     19 H6         -1.1647    0.5771   -2.0631 H       1  <1>         0.0000
     20 H7         -0.4623   -0.7675   -1.0814 H       1  <1>         0.0000
     21 H8         -1.2188    0.5135    1.0005 H       1  <1>         0.0000
     22 H9         -1.9565    1.7429   -0.0984 H       1  <1>         0.0000
     23 H10        -3.9338    1.6257   -0.0978 H       1  <1>         0.0000
     24 H11        -3.6167   -2.0678    0.5694 H       1  <1>         0.0000
     25 H12        -4.2264   -1.1223   -1.4332 H       1  <1>         0.0000
     26 H13         5.0470    0.1927   -1.1572 H       1  <1>         0.0000
@<TRIPOS>UNITY_ATOM_ATTR
7 1
charge -1
@<TRIPOS>BOND
     1     1     2    1
     2     1     3    1
     3     3     4    1
     4     4     5    1
     5     5     6    1
     6     6     7    1
     7     7     8    1
     8     7     9    1
     9     7    10    1
    10     1    11    1
    11    11    12    1
    12    11    13    2
    13     1    14    1
    14     2    15    1
    15     2    16    1
    16     3    17    1
    17     3    18    1
    18     5    19    1
    19     5    20    1
    20     6    21    1
    21     6    22    1
    22     8    23    1
    23     9    24    1
    24    10    25    1
    25    12    26    1
