@<TRIPOS>MOLECULE
*****
 67 70 0 0 0
SMALL
GASTEIGER

@<TRIPOS>ATOM
      1 C          -6.4820   -2.1525    0.6571 C.3     1  UNL1       -0.0507
      2 C          -6.5193   -1.7870   -0.7957 C.3     1  UNL1        0.0177
      3 N          -7.2845   -0.6804   -1.1575 N.3     1  UNL1       -0.1771
      4 C          -8.5885   -0.7883   -1.6262 C.3     1  UNL1        0.0177
      5 C          -8.6588   -1.1046   -3.1269 C.3     1  UNL1       -0.0507
      6 S          -6.5688    0.8483   -1.1948 S.O2    1  UNL1        0.0623
      7 O          -7.6175    1.8279   -1.7141 O.2     1  UNL1       -0.1528
      8 O          -5.4544    0.8734   -2.2105 O.2     1  UNL1       -0.1528
      9 C          -5.9638    1.3832    0.3538 C.ar    1  UNL1        0.1254
     10 C          -4.6058    1.6220    0.5197 C.ar    1  UNL1       -0.0126
     11 C          -4.0797    2.0351    1.7130 C.ar    1  UNL1        0.0355
     12 N          -2.7204    2.2588    1.9870 N.pl3   1  UNL1       -0.2836
     13 C          -1.7036    1.5850    1.2685 C.ar    1  UNL1        0.2200
     14 N          -2.0104    0.6505    0.3661 N.ar    1  UNL1       -0.2226
     15 C          -1.0642   -0.0015   -0.3094 C.ar    1  UNL1        0.0332
     16 C           0.2726    0.2982   -0.0692 C.ar    1  UNL1       -0.0174
     17 C           0.6217    1.2579    0.8553 C.ar    1  UNL1        0.0761
     18 C           2.0071    1.5979    1.1304 C.ar    1  UNL1        0.0040
     19 C           2.2658    2.5888    2.0782 C.ar    1  UNL1       -0.0344
     20 C           3.5662    2.9385    2.3770 C.ar    1  UNL1        0.0289
     21 N           4.5852    2.3332    1.7636 N.ar    1  UNL1       -0.2549
     22 C           4.3924    1.3610    0.8328 C.ar    1  UNL1        0.0716
     23 C           5.5434    0.7229    0.1966 C.ar    1  UNL1        0.0005
     24 C           5.4376   -0.2666   -0.7527 C.ar    1  UNL1       -0.0508
     25 C           6.5746   -0.8311   -1.3082 C.ar    1  UNL1       -0.0398
     26 C           7.8543   -0.4492   -0.9561 C.ar    1  UNL1        0.0348
     27 N           8.9675   -1.0779   -1.5680 N.am    1  UNL1       -0.2695
     28 C           9.5952   -2.2480   -1.0627 C.2     1  UNL1        0.3036
     29 O           9.1198   -2.7418   -0.0050 O.2     1  UNL1       -0.2525
     30 N          10.7229   -2.8540   -1.7170 N.am    1  UNL1       -0.3022
     31 C          11.3080   -4.0468   -1.1397 C.3     1  UNL1        0.0015
     32 C           7.9639    0.5418   -0.0058 C.ar    1  UNL1       -0.0398
     33 C           6.8378    1.1049    0.5481 C.ar    1  UNL1       -0.0508
     34 C           3.0899    1.0114    0.5335 C.ar    1  UNL1       -0.0265
     35 N          -0.3869    1.8742    1.4983 N.ar    1  UNL1       -0.2142
     36 C          -4.9497    2.2184    2.7847 C.ar    1  UNL1       -0.0390
     37 C          -6.2800    1.9815    2.6113 C.ar    1  UNL1       -0.0397
     38 C          -6.8116    1.5655    1.4150 C.ar    1  UNL1        0.0674
     39 CL         -8.5514    1.2717    1.2516 Cl      1  UNL1       -0.0815
     40 H          -6.6775   -1.3180    1.3460 H       1  UNL1        0.0243
     41 H          -7.1579   -3.0324    0.8792 H       1  UNL1        0.0243
     42 H          -5.4681   -2.5390    0.8909 H       1  UNL1        0.0243
     43 H          -5.4498   -1.6648   -1.1429 H       1  UNL1        0.0441
     44 H          -6.8387   -2.7354   -1.3304 H       1  UNL1        0.0441
     45 H          -9.2284   -1.5509   -1.1337 H       1  UNL1        0.0441
     46 H          -9.1260    0.1944   -1.4834 H       1  UNL1        0.0441
     47 H          -7.7689   -1.6861   -3.3939 H       1  UNL1        0.0243
     48 H          -8.7201   -0.1460   -3.6884 H       1  UNL1        0.0243
     49 H          -9.5925   -1.6811   -3.3426 H       1  UNL1        0.0243
     50 H          -3.9541    1.4922   -0.3277 H       1  UNL1        0.0656
     51 H          -2.3986    2.9334    2.7329 H       1  UNL1        0.1550
     52 H          -1.2985   -0.7557   -1.0388 H       1  UNL1        0.0831
     53 H           1.0416   -0.2200   -0.6060 H       1  UNL1        0.0654
     54 H           1.4192    3.0750    2.5713 H       1  UNL1        0.0639
     55 H           3.7769    3.7023    3.1063 H       1  UNL1        0.0830
     56 H           4.4664   -0.6125   -1.0738 H       1  UNL1        0.0625
     57 H           6.4849   -1.6226   -2.0679 H       1  UNL1        0.0636
     58 H           9.3536   -0.6624   -2.4398 H       1  UNL1        0.1564
     59 H          11.1005   -2.4408   -2.5797 H       1  UNL1        0.1499
     60 H          10.5907   -4.6201   -0.5253 H       1  UNL1        0.0426
     61 H          12.1554   -3.7609   -0.4835 H       1  UNL1        0.0426
     62 H          11.6651   -4.7430   -1.9471 H       1  UNL1        0.0426
     63 H           8.9577    0.8660    0.2938 H       1  UNL1        0.0636
     64 H           6.9028    1.8880    1.2988 H       1  UNL1        0.0625
     65 H           2.8940    0.2461   -0.1990 H       1  UNL1        0.0645
     66 H          -4.5972    2.5473    3.7641 H       1  UNL1        0.0636
     67 H          -6.9572    2.1244    3.4481 H       1  UNL1        0.0633
@<TRIPOS>BOND
     1     1     2    1
     2     2     3    1
     3     3     4    1
     4     4     5    1
     5     3     6    1
     6     6     7    2
     7     6     8    2
     8     6     9    1
     9     9    10   ar
    10    10    11   ar
    11    11    12    1
    12    12    13    1
    13    13    14   ar
    14    14    15   ar
    15    15    16   ar
    16    16    17   ar
    17    17    18    1
    18    18    19   ar
    19    19    20   ar
    20    20    21   ar
    21    21    22   ar
    22    22    23    1
    23    23    24   ar
    24    24    25   ar
    25    25    26   ar
    26    26    27    1
    27    27    28   am
    28    28    29    2
    29    28    30   am
    30    30    31    1
    31    26    32   ar
    32    32    33   ar
    33    22    34   ar
    34    17    35   ar
    35    11    36   ar
    36    36    37   ar
    37    37    38   ar
    38    38    39    1
    39    38     9   ar
    40    35    13   ar
    41    34    18   ar
    42    33    23   ar
    43     1    40    1
    44     1    41    1
    45     1    42    1
    46     2    43    1
    47     2    44    1
    48     4    45    1
    49     4    46    1
    50     5    47    1
    51     5    48    1
    52     5    49    1
    53    10    50    1
    54    12    51    1
    55    15    52    1
    56    16    53    1
    57    19    54    1
    58    20    55    1
    59    24    56    1
    60    25    57    1
    61    27    58    1
    62    30    59    1
    63    31    60    1
    64    31    61    1
    65    31    62    1
    66    32    63    1
    67    33    64    1
    68    34    65    1
    69    36    66    1
    70    37    67    1
