@<TRIPOS>MOLECULE
*****
 104 109 0 0 0
SMALL
GASTEIGER

@<TRIPOS>ATOM
      1 C         -13.6394    1.0767   -3.5925 C.3     1  UNL1        0.0833
      2 O         -13.0795    0.3474   -2.5265 O.3     1  UNL1       -0.4537
      3 C         -12.5245    1.0399   -1.4718 C.2     1  UNL1        0.4006
      4 O         -12.5216    2.3106   -1.4799 O.2     1  UNL1       -0.2265
      5 N         -11.9933    0.2343   -0.4432 N.am    1  UNL1       -0.2696
      6 C         -11.3229    0.4557    0.8435 C.3     1  UNL1        0.1050
      7 C         -12.1875   -0.0672    1.9626 C.3     1  UNL1       -0.0196
      8 C         -11.5757    0.1402    3.3107 C.3     1  UNL1       -0.0605
      9 C         -13.5330    0.6195    1.9021 C.3     1  UNL1       -0.0605
     10 C          -9.9639   -0.0873    0.8091 C.2     1  UNL1        0.2368
     11 O          -9.5566    0.1497    1.9952 O.2     1  UNL1       -0.2735
     12 N          -9.1409   -0.7436   -0.1849 N.am    1  UNL1       -0.2899
     13 C          -9.2274   -1.1357   -1.5841 C.3     1  UNL1        0.0155
     14 C          -8.6735   -2.5546   -1.5477 C.3     1  UNL1       -0.0350
     15 C          -7.4613   -2.3431   -0.6657 C.3     1  UNL1       -0.0258
     16 C          -7.8474   -1.2151    0.2505 C.3     1  UNL1        0.0839
     17 C          -6.7898   -0.1713    0.2351 C.ar    1  UNL1        0.1281
     18 N          -6.8213    1.1773    0.4511 N.ar    1  UNL1       -0.2383
     19 C          -5.5506    1.6435    0.3608 C.ar    1  UNL1        0.0535
     20 C          -4.7185    0.5781    0.0871 C.ar    1  UNL1        0.0661
     21 N          -5.4978   -0.5070    0.0160 N.ar    1  UNL1       -0.3403
     22 C          -3.2493    0.6935   -0.0503 C.ar    1  UNL1       -0.0002
     23 C          -2.5512    1.8778    0.0186 C.ar    1  UNL1       -0.0520
     24 C          -1.1630    1.8724   -0.0851 C.ar    1  UNL1       -0.0534
     25 C          -0.4490    0.6939   -0.2579 C.ar    1  UNL1       -0.0178
     26 C          -1.1229   -0.4927   -0.3305 C.ar    1  UNL1       -0.0534
     27 C          -2.5068   -0.4819   -0.2267 C.ar    1  UNL1       -0.0520
     28 C           1.0050    0.7695   -0.3294 C.ar    1  UNL1       -0.0178
     29 C           1.8239    1.7577   -0.8247 C.ar    1  UNL1       -0.0534
     30 C           3.1879    1.6133   -0.7536 C.ar    1  UNL1       -0.0520
     31 C           3.7875    0.5036   -0.1987 C.ar    1  UNL1       -0.0002
     32 C           3.0096   -0.5162    0.3115 C.ar    1  UNL1       -0.0520
     33 C           1.6413   -0.3469    0.2276 C.ar    1  UNL1       -0.0534
     34 C           5.2433    0.3917   -0.1197 C.ar    1  UNL1        0.0661
     35 C           6.2034    1.2910   -0.5321 C.ar    1  UNL1        0.0535
     36 N           7.4156    0.7822   -0.2513 N.ar    1  UNL1       -0.2383
     37 C           7.2310   -0.4219    0.3304 C.ar    1  UNL1        0.1281
     38 N           5.9207   -0.6630    0.4120 N.ar    1  UNL1       -0.3403
     39 C           8.4583   -1.1841    0.7486 C.3     1  UNL1        0.0839
     40 C           8.1187   -2.2483    1.7792 C.3     1  UNL1       -0.0258
     41 C           8.1791   -1.5372    3.0907 C.3     1  UNL1       -0.0350
     42 C           8.8674   -0.2247    2.8116 C.3     1  UNL1        0.0155
     43 N           9.3805   -0.3178    1.4586 N.am    1  UNL1       -0.2899
     44 C          10.5712    0.4125    1.1867 C.2     1  UNL1        0.2368
     45 O          10.7844    0.9328    2.3113 O.2     1  UNL1       -0.2735
     46 C          11.4365    0.6258    0.0310 C.3     1  UNL1        0.1050
     47 N          10.9756   -0.0855   -1.1300 N.am    1  UNL1       -0.2696
     48 C          11.8107   -1.0444   -1.7532 C.2     1  UNL1        0.4006
     49 O          12.9646   -1.3118   -1.3307 O.2     1  UNL1       -0.2265
     50 O          11.5298   -1.8241   -2.8821 O.3     1  UNL1       -0.4537
     51 C          12.4974   -2.7433   -3.3709 C.3     1  UNL1        0.0833
     52 C          11.5601    2.1141   -0.2329 C.3     1  UNL1       -0.0196
     53 C          12.4432    2.4045   -1.4137 C.3     1  UNL1       -0.0605
     54 C          12.0879    2.8495    0.9623 C.3     1  UNL1       -0.0605
     55 H         -14.3549    1.8097   -3.1131 H       1  UNL1        0.0661
     56 H         -12.8752    1.5908   -4.1911 H       1  UNL1        0.0661
     57 H         -14.3183    0.4140   -4.1962 H       1  UNL1        0.0661
     58 H         -12.0122   -0.8108   -0.4483 H       1  UNL1        0.1528
     59 H         -11.2689    1.5574    0.9404 H       1  UNL1        0.0598
     60 H         -12.3954   -1.1564    1.8498 H       1  UNL1        0.0318
     61 H         -11.0462    1.1053    3.4417 H       1  UNL1        0.0233
     62 H         -10.9055   -0.6764    3.6517 H       1  UNL1        0.0233
     63 H         -12.3894    0.1579    4.1108 H       1  UNL1        0.0233
     64 H         -14.1998    0.1882    1.1177 H       1  UNL1        0.0233
     65 H         -14.0686    0.5471    2.8874 H       1  UNL1        0.0233
     66 H         -13.4681    1.6940    1.6794 H       1  UNL1        0.0233
     67 H         -10.2529   -1.1419   -1.9843 H       1  UNL1        0.0465
     68 H          -8.5410   -0.5387   -2.2278 H       1  UNL1        0.0465
     69 H          -9.3463   -3.2777   -1.0735 H       1  UNL1        0.0281
     70 H          -8.3181   -2.8801   -2.5438 H       1  UNL1        0.0281
     71 H          -6.5799   -2.0286   -1.3017 H       1  UNL1        0.0288
     72 H          -7.1924   -3.2767   -0.1250 H       1  UNL1        0.0288
     73 H          -7.8879   -1.6585    1.2820 H       1  UNL1        0.0581
     74 H          -5.2766    2.6964    0.4909 H       1  UNL1        0.0851
     75 H          -5.0182   -1.4140   -0.1876 H       1  UNL1        0.1671
     76 H          -3.1112    2.7841    0.1511 H       1  UNL1        0.0624
     77 H          -0.7198    2.8665   -0.0175 H       1  UNL1        0.0624
     78 H          -0.5934   -1.4251   -0.4662 H       1  UNL1        0.0624
     79 H          -2.9832   -1.4733   -0.2927 H       1  UNL1        0.0624
     80 H           1.2709    2.5867   -1.2393 H       1  UNL1        0.0624
     81 H           3.7622    2.4304   -1.1629 H       1  UNL1        0.0624
     82 H           3.4712   -1.3802    0.7425 H       1  UNL1        0.0624
     83 H           1.0884   -1.1999    0.6546 H       1  UNL1        0.0624
     84 H           6.0175    2.2607   -1.0102 H       1  UNL1        0.0851
     85 H           5.5632   -1.5349    0.8258 H       1  UNL1        0.1671
     86 H           8.8969   -1.7171   -0.1008 H       1  UNL1        0.0581
     87 H           8.8419   -3.0957    1.7173 H       1  UNL1        0.0288
     88 H           7.1150   -2.6489    1.5345 H       1  UNL1        0.0288
     89 H           7.1520   -1.3797    3.5299 H       1  UNL1        0.0281
     90 H           8.6992   -2.1496    3.8594 H       1  UNL1        0.0281
     91 H           9.6536   -0.1238    3.5867 H       1  UNL1        0.0465
     92 H           8.2146    0.6620    2.9440 H       1  UNL1        0.0465
     93 H          12.4540    0.2555    0.2522 H       1  UNL1        0.0598
     94 H          10.0471    0.0219   -1.6018 H       1  UNL1        0.1528
     95 H          12.3907   -3.6706   -2.7697 H       1  UNL1        0.0661
     96 H          13.5125   -2.3163   -3.3763 H       1  UNL1        0.0661
     97 H          12.1730   -3.0460   -4.4070 H       1  UNL1        0.0661
     98 H          10.5321    2.5210   -0.4520 H       1  UNL1        0.0318
     99 H          12.0758    1.9717   -2.3598 H       1  UNL1        0.0233
    100 H          12.4774    3.5069   -1.5379 H       1  UNL1        0.0233
    101 H          13.4909    2.0936   -1.1806 H       1  UNL1        0.0233
    102 H          12.8687    2.2783    1.5164 H       1  UNL1        0.0233
    103 H          12.5858    3.7825    0.5651 H       1  UNL1        0.0233
    104 H          11.3028    3.1260    1.7019 H       1  UNL1        0.0233
@<TRIPOS>BOND
     1     1     2    1
     2     2     3    1
     3     3     4    2
     4     3     5   am
     5     5     6    1
     6     6     7    1
     7     7     8    1
     8     7     9    1
     9     6    10    1
    10    10    11    2
    11    10    12   am
    12    12    13    1
    13    13    14    1
    14    14    15    1
    15    15    16    1
    16    16    17    1
    17    17    18   ar
    18    18    19   ar
    19    19    20   ar
    20    20    21   ar
    21    20    22    1
    22    22    23   ar
    23    23    24   ar
    24    24    25   ar
    25    25    26   ar
    26    26    27   ar
    27    25    28    1
    28    28    29   ar
    29    29    30   ar
    30    30    31   ar
    31    31    32   ar
    32    32    33   ar
    33    31    34    1
    34    34    35   ar
    35    35    36   ar
    36    36    37   ar
    37    37    38   ar
    38    37    39    1
    39    39    40    1
    40    40    41    1
    41    41    42    1
    42    42    43    1
    43    43    44   am
    44    44    45    2
    45    44    46    1
    46    46    47    1
    47    47    48   am
    48    48    49    2
    49    48    50    1
    50    50    51    1
    51    46    52    1
    52    52    53    1
    53    52    54    1
    54    16    12    1
    55    21    17   ar
    56    27    22   ar
    57    33    28   ar
    58    38    34   ar
    59    43    39    1
    60     1    55    1
    61     1    56    1
    62     1    57    1
    63     5    58    1
    64     6    59    1
    65     7    60    1
    66     8    61    1
    67     8    62    1
    68     8    63    1
    69     9    64    1
    70     9    65    1
    71     9    66    1
    72    13    67    1
    73    13    68    1
    74    14    69    1
    75    14    70    1
    76    15    71    1
    77    15    72    1
    78    16    73    1
    79    19    74    1
    80    21    75    1
    81    23    76    1
    82    24    77    1
    83    26    78    1
    84    27    79    1
    85    29    80    1
    86    30    81    1
    87    32    82    1
    88    33    83    1
    89    35    84    1
    90    38    85    1
    91    39    86    1
    92    40    87    1
    93    40    88    1
    94    41    89    1
    95    41    90    1
    96    42    91    1
    97    42    92    1
    98    46    93    1
    99    47    94    1
   100    51    95    1
   101    51    96    1
   102    51    97    1
   103    52    98    1
   104    53    99    1
   105    53   100    1
   106    53   101    1
   107    54   102    1
   108    54   103    1
   109    54   104    1
