@<TRIPOS>MOLECULE
*****
 33 34 0 0 0
SMALL
GASTEIGER

@<TRIPOS>ATOM
      1 C           2.5338   -0.4449   -1.0356 C.3     1  UNL1       -0.0153
      2 N           1.2846   -1.1269   -0.7617 N.3     1  UNL1       -0.3130
      3 C           0.5245   -0.5021    0.2820 C.3     1  UNL1        0.0242
      4 C           1.4003   -0.4342    1.5318 C.3     1  UNL1       -0.0460
      5 C          -0.6338   -1.3702    0.6400 C.3     1  UNL1       -0.0222
      6 C          -1.4975   -1.6239   -0.5474 C.3     1  UNL1       -0.0483
      7 C          -2.1952   -0.2972   -0.8477 C.3     1  UNL1       -0.0493
      8 C          -1.6024    0.6125    0.1741 C.3     1  UNL1       -0.0339
      9 C          -1.5356   -0.3547    1.3702 C.3     1  UNL1       -0.0451
     10 C          -0.0982    0.8056   -0.0462 C.3     1  UNL1       -0.0138
     11 C           0.1350    1.3424   -1.4143 C.3     1  UNL1       -0.0579
     12 C           0.3371    1.8967    0.9221 C.3     1  UNL1       -0.0579
     13 H           3.2715   -1.2522   -1.3019 H       1  UNL1        0.0388
     14 H           2.4310    0.1729   -1.9509 H       1  UNL1        0.0388
     15 H           2.8721    0.2284   -0.2478 H       1  UNL1        0.0388
     16 H           0.7934   -1.2090   -1.6756 H       1  UNL1        0.1222
     17 H           0.8361   -0.5516    2.4691 H       1  UNL1        0.0248
     18 H           2.0426   -1.3629    1.4930 H       1  UNL1        0.0248
     19 H           1.9908    0.4770    1.5878 H       1  UNL1        0.0248
     20 H          -0.4088   -2.2367    1.2572 H       1  UNL1        0.0319
     21 H          -0.9666   -2.0488   -1.3949 H       1  UNL1        0.0269
     22 H          -2.2840   -2.3967   -0.2586 H       1  UNL1        0.0269
     23 H          -3.2599   -0.4176   -0.6024 H       1  UNL1        0.0268
     24 H          -2.0344    0.0199   -1.8913 H       1  UNL1        0.0268
     25 H          -2.1428    1.5247    0.3927 H       1  UNL1        0.0307
     26 H          -2.5185   -0.8045    1.5037 H       1  UNL1        0.0271
     27 H          -1.0847    0.0752    2.2515 H       1  UNL1        0.0271
     28 H          -0.7364    2.0359   -1.6117 H       1  UNL1        0.0236
     29 H           0.0936    0.6274   -2.2383 H       1  UNL1        0.0236
     30 H           1.0082    2.0297   -1.4217 H       1  UNL1        0.0236
     31 H          -0.2596    2.8191    0.7502 H       1  UNL1        0.0236
     32 H           0.3278    1.5888    1.9733 H       1  UNL1        0.0236
     33 H           1.3756    2.1779    0.6493 H       1  UNL1        0.0236
@<TRIPOS>BOND
     1     1     2    1
     2     2     3    1
     3     3     4    1
     4     3     5    1
     5     5     6    1
     6     6     7    1
     7     7     8    1
     8     8     9    1
     9     8    10    1
    10    10    11    1
    11    10    12    1
    12    10     3    1
    13     9     5    1
    14     1    13    1
    15     1    14    1
    16     1    15    1
    17     2    16    1
    18     4    17    1
    19     4    18    1
    20     4    19    1
    21     5    20    1
    22     6    21    1
    23     6    22    1
    24     7    23    1
    25     7    24    1
    26     8    25    1
    27     9    26    1
    28     9    27    1
    29    11    28    1
    30    11    29    1
    31    11    30    1
    32    12    31    1
    33    12    32    1
    34    12    33    1
