@<TRIPOS>MOLECULE
*****
 64 68 0 0 0
SMALL
GASTEIGER

@<TRIPOS>ATOM
      1 C           9.5436   -0.5191    0.0126 C.3     1  UNL1        0.0124
      2 C           8.4918   -1.4528   -0.4626 C.2     1  UNL1        0.2126
      3 O           8.7622   -2.3375   -1.3069 O.2     1  UNL1       -0.2759
      4 N           7.1773   -1.3465    0.0380 N.am    1  UNL1       -0.2987
      5 C           6.1602   -2.2457   -0.4188 C.3     1  UNL1        0.0304
      6 C           4.9305   -1.4237   -0.7656 C.3     1  UNL1        0.0280
      7 N           4.4646   -0.6906    0.3909 N.pl3   1  UNL1       -0.3269
      8 C           3.1084   -0.2463    0.4757 C.ar    1  UNL1        0.0300
      9 C           2.5831    0.3593    1.5890 C.ar    1  UNL1       -0.0372
     10 C           1.2578    0.7921    1.6634 C.ar    1  UNL1       -0.0182
     11 C           0.4348    0.6144    0.5962 C.ar    1  UNL1        0.1207
     12 O          -0.8948    1.0068    0.5683 O.3     1  UNL1       -0.4893
     13 C          -1.5470    1.6329    1.6243 C.3     1  UNL1        0.1179
     14 C          -2.9990    1.9379    1.3218 C.3     1  UNL1        0.1195
     15 C          -3.0281    2.6674   -0.0064 C.3     1  UNL1        0.0808
     16 O          -3.0445    1.6196   -0.9115 O.3     1  UNL1       -0.3406
     17 C          -4.0229    0.7678   -0.2713 C.3     1  UNL1        0.2169
     18 C          -3.6666   -0.5746   -0.9004 C.3     1  UNL1        0.0828
     19 N          -4.3866   -1.7184   -0.5680 N.ar    1  UNL1       -0.3313
     20 C          -4.1215   -2.5398    0.4707 C.ar    1  UNL1        0.0242
     21 C          -5.0076   -3.6031    0.4586 C.ar    1  UNL1        0.0454
     22 N          -5.7890   -3.3775   -0.6084 N.ar    1  UNL1       -0.2441
     23 C          -5.4294   -2.2491   -1.2368 C.ar    1  UNL1        0.0961
     24 C          -5.3138    1.3077   -0.7285 C.ar    1  UNL1        0.0313
     25 C          -5.4237    2.2422   -1.7530 C.ar    1  UNL1       -0.0507
     26 C          -6.6086    2.6839   -2.2649 C.ar    1  UNL1       -0.0429
     27 C          -7.7866    2.1976   -1.7630 C.ar    1  UNL1        0.0424
     28 CL         -9.2803    2.7929   -2.4540 Cl      1  UNL1       -0.0835
     29 C          -7.7470    1.2718   -0.7481 C.ar    1  UNL1       -0.0246
     30 C          -6.5159    0.8420   -0.2453 C.ar    1  UNL1        0.0507
     31 CL         -6.6194   -0.2521    1.1224 Cl      1  UNL1       -0.0830
     32 O          -3.7663    0.8198    1.0616 O.3     1  UNL1       -0.3343
     33 C           0.9352    0.0099   -0.5326 C.ar    1  UNL1       -0.0182
     34 C           2.2517   -0.4170   -0.6002 C.ar    1  UNL1       -0.0372
     35 C           5.3993   -0.4158    1.4565 C.3     1  UNL1        0.0280
     36 C           6.8393   -0.3484    1.0029 C.3     1  UNL1        0.0304
     37 H           9.6987   -0.7453    1.0962 H       1  UNL1        0.0323
     38 H          10.4538   -0.6522   -0.5917 H       1  UNL1        0.0323
     39 H           9.2142    0.5435   -0.0247 H       1  UNL1        0.0323
     40 H           5.8713   -3.0013    0.3356 H       1  UNL1        0.0480
     41 H           6.4696   -2.8038   -1.3246 H       1  UNL1        0.0480
     42 H           5.1815   -0.8082   -1.6247 H       1  UNL1        0.0479
     43 H           4.1152   -2.1699   -0.9895 H       1  UNL1        0.0479
     44 H           3.2247    0.5102    2.4602 H       1  UNL1        0.0637
     45 H           0.8687    1.2670    2.5529 H       1  UNL1        0.0655
     46 H          -1.0099    2.5143    2.0059 H       1  UNL1        0.0723
     47 H          -1.5738    0.8869    2.4710 H       1  UNL1        0.0723
     48 H          -3.4469    2.5683    2.1313 H       1  UNL1        0.0654
     49 H          -2.1155    3.2917   -0.1425 H       1  UNL1        0.0588
     50 H          -3.9263    3.3173   -0.0249 H       1  UNL1        0.0588
     51 H          -2.5488   -0.6861   -0.7347 H       1  UNL1        0.0549
     52 H          -3.7107   -0.4565   -2.0337 H       1  UNL1        0.0549
     53 H          -3.3508   -2.4483    1.2375 H       1  UNL1        0.0825
     54 H          -5.0724   -4.4451    1.1525 H       1  UNL1        0.0845
     55 H          -5.9378   -1.8865   -2.1262 H       1  UNL1        0.1029
     56 H          -4.4716    2.6122   -2.1586 H       1  UNL1        0.0623
     57 H          -6.5664    3.4161   -3.0638 H       1  UNL1        0.0632
     58 H          -8.6872    0.9007   -0.3658 H       1  UNL1        0.0647
     59 H           0.3053   -0.1479   -1.4037 H       1  UNL1        0.0655
     60 H           2.6444   -0.8947   -1.5013 H       1  UNL1        0.0637
     61 H           5.3579   -1.2232    2.2452 H       1  UNL1        0.0479
     62 H           5.1673    0.5511    1.9783 H       1  UNL1        0.0479
     63 H           7.0343    0.6869    0.6566 H       1  UNL1        0.0480
     64 H           7.4704   -0.5052    1.9218 H       1  UNL1        0.0480
@<TRIPOS>BOND
     1     1     2    1
     2     2     3    2
     3     2     4   am
     4     4     5    1
     5     5     6    1
     6     6     7    1
     7     7     8    1
     8     8     9   ar
     9     9    10   ar
    10    10    11   ar
    11    11    12    1
    12    12    13    1
    13    13    14    1
    14    14    15    1
    15    15    16    1
    16    16    17    1
    17    17    18    1
    18    18    19    1
    19    19    20   ar
    20    20    21   ar
    21    21    22   ar
    22    22    23   ar
    23    17    24    1
    24    24    25   ar
    25    25    26   ar
    26    26    27   ar
    27    27    28    1
    28    27    29   ar
    29    29    30   ar
    30    30    31    1
    31    17    32    1
    32    11    33   ar
    33    33    34   ar
    34     7    35    1
    35    35    36    1
    36    36     4    1
    37    34     8   ar
    38    32    14    1
    39    23    19   ar
    40    30    24   ar
    41     1    37    1
    42     1    38    1
    43     1    39    1
    44     5    40    1
    45     5    41    1
    46     6    42    1
    47     6    43    1
    48     9    44    1
    49    10    45    1
    50    13    46    1
    51    13    47    1
    52    14    48    1
    53    15    49    1
    54    15    50    1
    55    18    51    1
    56    18    52    1
    57    20    53    1
    58    21    54    1
    59    23    55    1
    60    25    56    1
    61    26    57    1
    62    29    58    1
    63    33    59    1
    64    34    60    1
    65    35    61    1
    66    35    62    1
    67    36    63    1
    68    36    64    1
