
     RDKit          3D

 61 67  0  0  0  0  0  0  0  0999 V2000
   -1.6907   -4.2910   -1.5410 O   0  0  0  0  0  0  0  0  0  0  0  0
   -2.6555   -3.6919   -0.9945 C   0  0  0  0  0  0  0  0  0  0  0  0
   -3.9730   -4.2208   -0.9266 N   0  0  0  0  0  0  0  0  0  0  0  0
   -4.7274   -3.2128   -0.2270 C   0  0  0  0  0  0  0  0  0  0  0  0
   -5.9294   -3.2743    0.0492 O   0  0  0  0  0  0  0  0  0  0  0  0
   -3.8079   -2.1044    0.0983 C   0  0  0  0  0  0  0  0  0  0  0  0
   -4.1584   -0.9128    0.8561 C   0  0  0  0  0  0  0  0  0  0  0  0
   -3.4227   -0.4051    1.9440 C   0  0  0  0  0  0  0  0  0  0  0  0
   -4.0243    0.7011    2.3822 N   0  0  0  0  0  0  0  0  0  0  0  0
   -5.1145    0.9369    1.6317 C   0  0  0  0  0  0  0  0  0  0  0  0
   -6.0880    1.9104    1.6181 C   0  0  0  0  0  0  0  0  0  0  0  0
   -7.1173    1.9204    0.7122 C   0  0  0  0  0  0  0  0  0  0  0  0
   -7.1802    0.9133   -0.2248 C   0  0  0  0  0  0  0  0  0  0  0  0
   -6.1930   -0.0500   -0.1894 C   0  0  0  0  0  0  0  0  0  0  0  0
   -5.1767   -0.0460    0.7187 N   0  0  0  0  0  0  0  0  0  0  0  0
   -2.6119   -2.3871   -0.3485 C   0  0  0  0  0  0  0  0  0  0  0  0
   -1.4266   -1.5513   -0.2651 C   0  0  0  0  0  0  0  0  0  0  0  0
   -0.1907   -1.9047    0.2317 C   0  0  0  0  0  0  0  0  0  0  0  0
    0.6893   -0.8960    0.1331 N   0  0  0  0  0  0  0  0  0  0  0  0
    0.0320    0.1285   -0.4321 C   0  0  0  0  0  0  0  0  0  0  0  0
    0.4459    1.4115   -0.7797 C   0  0  0  0  0  0  0  0  0  0  0  0
   -0.5022    2.2501   -1.3772 C   0  0  0  0  0  0  0  0  0  0  0  0
   -1.7948    1.8671   -1.6291 C   0  0  0  0  0  0  0  0  0  0  0  0
   -2.2165    0.5946   -1.2876 C   0  0  0  0  0  0  0  0  0  0  0  0
   -1.2941   -0.2405   -0.6975 C   0  0  0  0  0  0  0  0  0  0  0  0
    1.7440    2.1085   -0.6427 C   0  0  0  0  0  0  0  0  0  0  0  0
    2.7359    1.3138    0.0909 N   0  0  0  0  0  0  0  0  0  0  0  0
    4.0400    1.5629   -0.3030 C   0  0  0  0  0  0  0  0  0  0  0  0
    4.2060    2.5364   -1.1983 O   0  0  0  0  0  0  0  0  0  0  0  0
    5.2652    0.9854    0.0538 N   0  0  0  0  0  0  0  0  0  0  0  0
    6.4740    1.6490   -0.5456 C   0  0  0  0  0  0  0  0  0  0  0  0
    7.2215    0.5874   -1.2829 C   0  0  0  0  0  0  0  0  0  0  0  0
    7.6892   -0.3269   -0.3079 O   0  0  0  0  0  0  0  0  0  0  0  0
    6.6016   -1.0319    0.1216 C   0  0  0  0  0  0  0  0  0  0  0  0
    5.5814   -0.1361    0.8625 C   0  0  0  0  0  0  0  0  0  0  0  0
    2.4302    0.3884    1.1379 C   0  0  0  0  0  0  0  0  0  0  0  0
    2.0648   -0.9691    0.5721 C   0  0  0  0  0  0  0  0  0  0  0  0
   -4.4007   -5.1004   -1.2614 H   0  0  0  0  0  0  0  0  0  0  0  0
   -2.5275   -0.8658    2.3252 H   0  0  0  0  0  0  0  0  0  0  0  0
   -6.0310    2.7076    2.3652 H   0  0  0  0  0  0  0  0  0  0  0  0
   -7.8855    2.6931    0.7079 H   0  0  0  0  0  0  0  0  0  0  0  0
   -7.9775    0.8928   -0.9523 H   0  0  0  0  0  0  0  0  0  0  0  0
   -6.2589   -0.8237   -0.9454 H   0  0  0  0  0  0  0  0  0  0  0  0
    0.0687   -2.8620    0.6522 H   0  0  0  0  0  0  0  0  0  0  0  0
   -0.1676    3.2486   -1.6437 H   0  0  0  0  0  0  0  0  0  0  0  0
   -2.5226    2.5184   -2.0911 H   0  0  0  0  0  0  0  0  0  0  0  0
   -3.2118    0.2402   -1.4800 H   0  0  0  0  0  0  0  0  0  0  0  0
    2.1569    2.3344   -1.6308 H   0  0  0  0  0  0  0  0  0  0  0  0
    1.6006    3.0672   -0.0919 H   0  0  0  0  0  0  0  0  0  0  0  0
    7.0668    2.0500    0.3097 H   0  0  0  0  0  0  0  0  0  0  0  0
    6.1824    2.4903   -1.1716 H   0  0  0  0  0  0  0  0  0  0  0  0
    8.0707    0.9953   -1.8660 H   0  0  0  0  0  0  0  0  0  0  0  0
    6.4959    0.0268   -1.9066 H   0  0  0  0  0  0  0  0  0  0  0  0
    6.0781   -1.4169   -0.8027 H   0  0  0  0  0  0  0  0  0  0  0  0
    6.8113   -1.9016    0.7505 H   0  0  0  0  0  0  0  0  0  0  0  0
    6.1348    0.1554    1.8071 H   0  0  0  0  0  0  0  0  0  0  0  0
    4.7973   -0.8059    1.1816 H   0  0  0  0  0  0  0  0  0  0  0  0
    1.4729    0.8142    1.6505 H   0  0  0  0  0  0  0  0  0  0  0  0
    3.1299    0.2883    1.9397 H   0  0  0  0  0  0  0  0  0  0  0  0
    2.7558   -1.1321   -0.3064 H   0  0  0  0  0  0  0  0  0  0  0  0
    2.2356   -1.7275    1.3429 H   0  0  0  0  0  0  0  0  0  0  0  0
  1  2  2  0
  2  3  1  0
  3  4  1  0
  4  5  2  0
  4  6  1  0
  6  7  1  0
  7  8  2  0
  8  9  1  0
  9 10  2  0
 10 11  1  0
 11 12  2  0
 12 13  1  0
 13 14  2  0
 14 15  1  0
  6 16  2  0
 16 17  1  0
 17 18  2  0
 18 19  1  0
 19 20  1  0
 20 21  2  0
 21 22  1  0
 22 23  2  0
 23 24  1  0
 24 25  2  0
 21 26  1  0
 26 27  1  0
 27 28  1  0
 28 29  2  0
 28 30  1  0
 30 31  1  0
 31 32  1  0
 32 33  1  0
 33 34  1  0
 34 35  1  0
 27 36  1  0
 36 37  1  0
 16  2  1  0
 25 17  1  0
 35 30  1  0
 15  7  1  0
 37 19  1  0
 15 10  1  0
 25 20  1  0
  3 38  1  0
  8 39  1  0
 11 40  1  0
 12 41  1  0
 13 42  1  0
 14 43  1  0
 18 44  1  0
 22 45  1  0
 23 46  1  0
 24 47  1  0
 26 48  1  0
 26 49  1  0
 31 50  1  0
 31 51  1  0
 32 52  1  0
 32 53  1  0
 34 54  1  0
 34 55  1  0
 35 56  1  0
 35 57  1  0
 36 58  1  0
 36 59  1  0
 37 60  1  0
 37 61  1  0
M  END
$$$$
