@<TRIPOS>MOLECULE
*****
 61 67 0 0 0
SMALL
GASTEIGER

@<TRIPOS>ATOM
      1 O          -1.6907   -4.2910   -1.5410 O.2     1  UNL1       -0.2697
      2 C          -2.6555   -3.6919   -0.9945 C.2     1  UNL1        0.2519
      3 N          -3.9730   -4.2208   -0.9266 N.am    1  UNL1       -0.2482
      4 C          -4.7274   -3.2128   -0.2270 C.2     1  UNL1        0.2533
      5 O          -5.9294   -3.2743    0.0492 O.2     1  UNL1       -0.2697
      6 C          -3.8079   -2.1044    0.0983 C.2     1  UNL1        0.0751
      7 C          -4.1584   -0.9128    0.8561 C.ar    1  UNL1        0.0789
      8 C          -3.4227   -0.4051    1.9440 C.ar    1  UNL1        0.0545
      9 N          -4.0243    0.7011    2.3822 N.ar    1  UNL1       -0.2355
     10 C          -5.1145    0.9369    1.6317 C.ar    1  UNL1        0.1380
     11 C          -6.0880    1.9104    1.6181 C.ar    1  UNL1       -0.0188
     12 C          -7.1173    1.9204    0.7122 C.ar    1  UNL1       -0.0569
     13 C          -7.1802    0.9133   -0.2248 C.ar    1  UNL1       -0.0450
     14 C          -6.1930   -0.0500   -0.1894 C.ar    1  UNL1        0.0118
     15 N          -5.1767   -0.0460    0.7187 N.ar    1  UNL1       -0.2991
     16 C          -2.6119   -2.3871   -0.3485 C.2     1  UNL1        0.0604
     17 C          -1.4266   -1.5513   -0.2651 C.ar    1  UNL1        0.0131
     18 C          -0.1907   -1.9047    0.2317 C.ar    1  UNL1        0.0137
     19 N           0.6893   -0.8960    0.1331 N.ar    1  UNL1       -0.3443
     20 C           0.0320    0.1285   -0.4321 C.ar    1  UNL1        0.0544
     21 C           0.4459    1.4115   -0.7797 C.ar    1  UNL1       -0.0060
     22 C          -0.5022    2.2501   -1.3772 C.ar    1  UNL1       -0.0551
     23 C          -1.7948    1.8671   -1.6291 C.ar    1  UNL1       -0.0607
     24 C          -2.2165    0.5946   -1.2876 C.ar    1  UNL1       -0.0520
     25 C          -1.2941   -0.2405   -0.6975 C.ar    1  UNL1        0.0081
     26 C           1.7440    2.1085   -0.6427 C.3     1  UNL1        0.0432
     27 N           2.7359    1.3138    0.0909 N.am    1  UNL1       -0.2794
     28 C           4.0400    1.5629   -0.3030 C.2     1  UNL1        0.3053
     29 O           4.2060    2.5364   -1.1983 O.2     1  UNL1       -0.2524
     30 N           5.2652    0.9854    0.0538 N.am    1  UNL1       -0.2811
     31 C           6.4740    1.6490   -0.5456 C.3     1  UNL1        0.0396
     32 C           7.2215    0.5874   -1.2829 C.3     1  UNL1        0.0635
     33 O           7.6892   -0.3269   -0.3079 O.3     1  UNL1       -0.3767
     34 C           6.6016   -1.0319    0.1216 C.3     1  UNL1        0.0635
     35 C           5.5814   -0.1361    0.8625 C.3     1  UNL1        0.0396
     36 C           2.4302    0.3884    1.1379 C.3     1  UNL1        0.0345
     37 C           2.0648   -0.9691    0.5721 C.3     1  UNL1        0.0392
     38 H          -4.4007   -5.1004   -1.2614 H       1  UNL1        0.1581
     39 H          -2.5275   -0.8658    2.3252 H       1  UNL1        0.0852
     40 H          -6.0310    2.7076    2.3652 H       1  UNL1        0.0654
     41 H          -7.8855    2.6931    0.7079 H       1  UNL1        0.0619
     42 H          -7.9775    0.8928   -0.9523 H       1  UNL1        0.0632
     43 H          -6.2589   -0.8237   -0.9454 H       1  UNL1        0.0813
     44 H           0.0687   -2.8620    0.6522 H       1  UNL1        0.0815
     45 H          -0.1676    3.2486   -1.6437 H       1  UNL1        0.0621
     46 H          -2.5226    2.5184   -2.0911 H       1  UNL1        0.0618
     47 H          -3.2118    0.2402   -1.4800 H       1  UNL1        0.0624
     48 H           2.1569    2.3344   -1.6308 H       1  UNL1        0.0515
     49 H           1.6006    3.0672   -0.0919 H       1  UNL1        0.0515
     50 H           7.0668    2.0500    0.3097 H       1  UNL1        0.0488
     51 H           6.1824    2.4903   -1.1716 H       1  UNL1        0.0488
     52 H           8.0707    0.9953   -1.8660 H       1  UNL1        0.0575
     53 H           6.4959    0.0268   -1.9066 H       1  UNL1        0.0575
     54 H           6.0781   -1.4169   -0.8027 H       1  UNL1        0.0575
     55 H           6.8113   -1.9016    0.7505 H       1  UNL1        0.0575
     56 H           6.1348    0.1554    1.8071 H       1  UNL1        0.0488
     57 H           4.7973   -0.8059    1.1816 H       1  UNL1        0.0488
     58 H           1.4729    0.8142    1.6505 H       1  UNL1        0.0483
     59 H           3.1299    0.2883    1.9397 H       1  UNL1        0.0483
     60 H           2.7558   -1.1321   -0.3064 H       1  UNL1        0.0507
     61 H           2.2356   -1.7275    1.3429 H       1  UNL1        0.0507
@<TRIPOS>BOND
     1     1     2    2
     2     2     3   am
     3     3     4   am
     4     4     5    2
     5     4     6    1
     6     6     7    1
     7     7     8   ar
     8     8     9   ar
     9     9    10   ar
    10    10    11   ar
    11    11    12   ar
    12    12    13   ar
    13    13    14   ar
    14    14    15   ar
    15     6    16    2
    16    16    17    1
    17    17    18   ar
    18    18    19   ar
    19    19    20   ar
    20    20    21   ar
    21    21    22   ar
    22    22    23   ar
    23    23    24   ar
    24    24    25   ar
    25    21    26    1
    26    26    27    1
    27    27    28   am
    28    28    29    2
    29    28    30   am
    30    30    31    1
    31    31    32    1
    32    32    33    1
    33    33    34    1
    34    34    35    1
    35    27    36    1
    36    36    37    1
    37    16     2    1
    38    25    17   ar
    39    35    30    1
    40    15     7   ar
    41    37    19    1
    42    15    10   ar
    43    25    20   ar
    44     3    38    1
    45     8    39    1
    46    11    40    1
    47    12    41    1
    48    13    42    1
    49    14    43    1
    50    18    44    1
    51    22    45    1
    52    23    46    1
    53    24    47    1
    54    26    48    1
    55    26    49    1
    56    31    50    1
    57    31    51    1
    58    32    52    1
    59    32    53    1
    60    34    54    1
    61    34    55    1
    62    35    56    1
    63    35    57    1
    64    36    58    1
    65    36    59    1
    66    37    60    1
    67    37    61    1
