
     RDKit          3D

 65 69  0  0  0  0  0  0  0  0999 V2000
   -5.2910    2.4028   -0.9377 C   0  0  0  0  0  0  0  0  0  0  0  0
   -5.5605    1.0385   -1.0311 O   0  0  0  0  0  0  0  0  0  0  0  0
   -4.9798    0.3301    0.0160 C   0  0  0  0  0  0  0  0  0  0  0  0
   -6.1004   -0.3249    0.7940 C   0  0  0  0  0  0  0  0  0  0  0  0
   -6.3117   -1.5751    0.2273 O   0  0  0  0  0  0  0  0  0  0  0  0
   -5.3693   -2.5073    0.6330 C   0  0  0  0  0  0  0  0  0  0  0  0
   -3.9735   -1.8953    0.5089 C   0  0  0  0  0  0  0  0  0  0  0  0
   -4.0738   -0.7693   -0.4818 C   0  0  0  0  0  0  0  0  0  0  0  0
   -2.8430   -0.3767   -0.9759 N   0  0  0  0  0  0  0  0  0  0  0  0
   -1.9330    0.3909   -0.2419 C   0  0  2  0  0  0  0  0  0  0  0  0
   -0.7684    0.8280   -1.1030 C   0  0  0  0  0  0  0  0  0  0  0  0
    0.3137    1.0703   -0.0503 C   0  0  1  0  0  0  0  0  0  0  0  0
    0.0343    2.2790    0.8018 C   0  0  0  0  0  0  0  0  0  0  0  0
    0.6923    1.9111    2.1250 C   0  0  1  0  0  0  0  0  0  0  0  0
   -0.2812    2.7025    3.3965 Cl  0  0  0  0  0  0  0  0  0  0  0  0
    0.6300    0.4118    2.2076 C   0  0  0  0  0  0  0  0  0  0  0  0
    0.2045   -0.0940    0.8441 C   0  0  2  0  0  0  0  0  0  0  0  0
    1.0011   -1.2649    0.4618 C   0  0  0  0  0  0  0  0  0  0  0  0
    0.3404   -2.3309    0.1515 O   0  0  0  0  0  0  0  0  0  0  0  0
    2.3823   -1.3481    0.3999 N   0  0  0  0  0  0  0  0  0  0  0  0
    2.9911   -2.6310   -0.0228 C   0  0  0  0  0  0  0  0  0  0  0  0
    3.5636   -2.3545   -1.3973 C   0  0  0  0  0  0  0  0  0  0  0  0
    4.5050   -1.2245   -1.3207 C   0  0  0  0  0  0  0  0  0  0  0  0
    5.4722   -1.1550   -2.2438 N   0  0  0  0  0  0  0  0  0  0  0  0
    6.3540   -0.1311   -2.2017 C   0  0  0  0  0  0  0  0  0  0  0  0
    6.2921    0.8545   -1.2319 C   0  0  0  0  0  0  0  0  0  0  0  0
    7.2991    1.9272   -1.2700 C   0  0  0  0  0  0  0  0  0  0  0  0
    8.2427    1.6646   -0.2869 F   0  0  0  0  0  0  0  0  0  0  0  0
    6.6883    3.1534   -1.0282 F   0  0  0  0  0  0  0  0  0  0  0  0
    7.9163    1.9738   -2.5007 F   0  0  0  0  0  0  0  0  0  0  0  0
    5.2890    0.7793   -0.2770 C   0  0  0  0  0  0  0  0  0  0  0  0
    4.4152   -0.2645   -0.3456 C   0  0  0  0  0  0  0  0  0  0  0  0
    3.3318   -0.3215    0.7111 C   0  0  0  0  0  0  0  0  0  0  0  0
   -1.2875   -0.4201    0.8500 C   0  0  0  0  0  0  0  0  0  0  0  0
   -5.7600    2.9571   -1.7783 H   0  0  0  0  0  0  0  0  0  0  0  0
   -4.2097    2.6276   -0.9689 H   0  0  0  0  0  0  0  0  0  0  0  0
   -5.7210    2.7476    0.0371 H   0  0  0  0  0  0  0  0  0  0  0  0
   -4.4561    1.0626    0.6497 H   0  0  0  0  0  0  0  0  0  0  0  0
   -7.0391    0.2597    0.6401 H   0  0  0  0  0  0  0  0  0  0  0  0
   -5.8401   -0.4077    1.8752 H   0  0  0  0  0  0  0  0  0  0  0  0
   -5.5983   -2.7907    1.6841 H   0  0  0  0  0  0  0  0  0  0  0  0
   -5.3933   -3.4041   -0.0248 H   0  0  0  0  0  0  0  0  0  0  0  0
   -3.2858   -2.6691    0.0562 H   0  0  0  0  0  0  0  0  0  0  0  0
   -3.5638   -1.6225    1.4809 H   0  0  0  0  0  0  0  0  0  0  0  0
   -4.6590   -1.2232   -1.3556 H   0  0  0  0  0  0  0  0  0  0  0  0
   -2.5589   -0.6652   -1.9251 H   0  0  0  0  0  0  0  0  0  0  0  0
   -2.4702    1.2293    0.2431 H   0  0  0  0  0  0  0  0  0  0  0  0
   -0.4474   -0.0238   -1.7102 H   0  0  0  0  0  0  0  0  0  0  0  0
   -0.9682    1.7401   -1.6849 H   0  0  0  0  0  0  0  0  0  0  0  0
    1.2764    1.1691   -0.6059 H   0  0  0  0  0  0  0  0  0  0  0  0
   -1.0336    2.4323    0.9104 H   0  0  0  0  0  0  0  0  0  0  0  0
    0.4650    3.1700    0.3453 H   0  0  0  0  0  0  0  0  0  0  0  0
    1.7190    2.3128    2.1028 H   0  0  0  0  0  0  0  0  0  0  0  0
    1.5388   -0.0692    2.5906 H   0  0  0  0  0  0  0  0  0  0  0  0
   -0.1593    0.1859    2.9751 H   0  0  0  0  0  0  0  0  0  0  0  0
    3.8542   -2.8298    0.6577 H   0  0  0  0  0  0  0  0  0  0  0  0
    2.2251   -3.4027   -0.0171 H   0  0  0  0  0  0  0  0  0  0  0  0
    2.7227   -2.0198   -2.0634 H   0  0  0  0  0  0  0  0  0  0  0  0
    3.9870   -3.2653   -1.8479 H   0  0  0  0  0  0  0  0  0  0  0  0
    7.1152   -0.1310   -2.9767 H   0  0  0  0  0  0  0  0  0  0  0  0
    5.2517    1.5557    0.4759 H   0  0  0  0  0  0  0  0  0  0  0  0
    2.9630    0.6755    0.8697 H   0  0  0  0  0  0  0  0  0  0  0  0
    3.8680   -0.6152    1.6701 H   0  0  0  0  0  0  0  0  0  0  0  0
   -1.6700   -0.1928    1.8451 H   0  0  0  0  0  0  0  0  0  0  0  0
   -1.3383   -1.5222    0.6698 H   0  0  0  0  0  0  0  0  0  0  0  0
  1  2  1  0
  2  3  1  0
  3  4  1  0
  4  5  1  0
  5  6  1  0
  6  7  1  0
  7  8  1  0
  8  9  1  0
  9 10  1  0
 10 11  1  0
 11 12  1  0
 12 13  1  0
 13 14  1  0
 14 15  1  0
 14 16  1  0
 16 17  1  0
 17 18  1  6
 18 19  2  0
 18 20  1  0
 20 21  1  0
 21 22  1  0
 22 23  1  0
 23 24  2  0
 24 25  1  0
 25 26  2  0
 26 27  1  0
 27 28  1  0
 27 29  1  0
 27 30  1  0
 26 31  1  0
 31 32  2  0
 32 33  1  0
 17 34  1  0
  8  3  1  0
 34 10  1  0
 17 12  1  0
 33 20  1  0
 32 23  1  0
  1 35  1  0
  1 36  1  0
  1 37  1  0
  3 38  1  0
  4 39  1  0
  4 40  1  0
  6 41  1  0
  6 42  1  0
  7 43  1  0
  7 44  1  0
  8 45  1  0
  9 46  1  0
 10 47  1  1
 11 48  1  0
 11 49  1  0
 12 50  1  6
 13 51  1  0
 13 52  1  0
 14 53  1  6
 16 54  1  0
 16 55  1  0
 21 56  1  0
 21 57  1  0
 22 58  1  0
 22 59  1  0
 25 60  1  0
 31 61  1  0
 33 62  1  0
 33 63  1  0
 34 64  1  0
 34 65  1  0
M  END
$$$$
