@<TRIPOS>MOLECULE
*****
 65 69 0 0 0
SMALL
GASTEIGER

@<TRIPOS>ATOM
      1 C          -5.2910    2.4028   -0.9377 C.3     1  UNL1        0.0370
      2 O          -5.5605    1.0385   -1.0311 O.3     1  UNL1       -0.3760
      3 C          -4.9798    0.3301    0.0160 C.3     1  UNL1        0.0969
      4 C          -6.1004   -0.3249    0.7940 C.3     1  UNL1        0.0753
      5 O          -6.3117   -1.5751    0.2273 O.3     1  UNL1       -0.3771
      6 C          -5.3693   -2.5073    0.6330 C.3     1  UNL1        0.0493
      7 C          -3.9735   -1.8953    0.5089 C.3     1  UNL1       -0.0115
      8 C          -4.0738   -0.7693   -0.4818 C.3     1  UNL1        0.0383
      9 N          -2.8430   -0.3767   -0.9759 N.3     1  UNL1       -0.3079
     10 C          -1.9330    0.3909   -0.2419 C.3     1  UNL1        0.0092
     11 C          -0.7684    0.8280   -1.1030 C.3     1  UNL1       -0.0337
     12 C           0.3137    1.0703   -0.0503 C.3     1  UNL1       -0.0243
     13 C           0.0343    2.2790    0.8018 C.3     1  UNL1       -0.0328
     14 C           0.6923    1.9111    2.1250 C.3     1  UNL1        0.0352
     15 CL         -0.2812    2.7025    3.3965 Cl      1  UNL1       -0.1217
     16 C           0.6300    0.4118    2.2076 C.3     1  UNL1       -0.0224
     17 C           0.2045   -0.0940    0.8441 C.3     1  UNL1        0.0528
     18 C           1.0011   -1.2649    0.4618 C.2     1  UNL1        0.2224
     19 O           0.3404   -2.3309    0.1515 O.2     1  UNL1       -0.2750
     20 N           2.3823   -1.3481    0.3999 N.am    1  UNL1       -0.2963
     21 C           2.9911   -2.6310   -0.0228 C.3     1  UNL1        0.0204
     22 C           3.5636   -2.3545   -1.3973 C.3     1  UNL1        0.0058
     23 C           4.5050   -1.2245   -1.3207 C.ar    1  UNL1        0.0474
     24 N           5.4722   -1.1550   -2.2438 N.ar    1  UNL1       -0.2590
     25 C           6.3540   -0.1311   -2.2017 C.ar    1  UNL1        0.0395
     26 C           6.2921    0.8545   -1.2319 C.ar    1  UNL1        0.0732
     27 C           7.2991    1.9272   -1.2700 C.3     1  UNL1        0.4188
     28 F           8.2427    1.6646   -0.2869 F       1  UNL1       -0.1658
     29 F           6.6883    3.1534   -1.0282 F       1  UNL1       -0.1658
     30 F           7.9163    1.9738   -2.5007 F       1  UNL1       -0.1658
     31 C           5.2890    0.7793   -0.2770 C.ar    1  UNL1       -0.0423
     32 C           4.4152   -0.2645   -0.3456 C.ar    1  UNL1       -0.0083
     33 C           3.3318   -0.3215    0.7111 C.3     1  UNL1        0.0414
     34 C          -1.2875   -0.4201    0.8500 C.3     1  UNL1       -0.0232
     35 H          -5.7600    2.9571   -1.7783 H       1  UNL1        0.0524
     36 H          -4.2097    2.6276   -0.9689 H       1  UNL1        0.0524
     37 H          -5.7210    2.7476    0.0371 H       1  UNL1        0.0524
     38 H          -4.4561    1.0626    0.6497 H       1  UNL1        0.0634
     39 H          -7.0391    0.2597    0.6401 H       1  UNL1        0.0586
     40 H          -5.8401   -0.4077    1.8752 H       1  UNL1        0.0586
     41 H          -5.5983   -2.7907    1.6841 H       1  UNL1        0.0560
     42 H          -5.3933   -3.4041   -0.0248 H       1  UNL1        0.0560
     43 H          -3.2858   -2.6691    0.0562 H       1  UNL1        0.0303
     44 H          -3.5638   -1.6225    1.4809 H       1  UNL1        0.0303
     45 H          -4.6590   -1.2232   -1.3556 H       1  UNL1        0.0487
     46 H          -2.5589   -0.6652   -1.9251 H       1  UNL1        0.1225
     47 H          -2.4702    1.2293    0.2431 H       1  UNL1        0.0461
     48 H          -0.4474   -0.0238   -1.7102 H       1  UNL1        0.0283
     49 H          -0.9682    1.7401   -1.6849 H       1  UNL1        0.0283
     50 H           1.2764    1.1691   -0.6059 H       1  UNL1        0.0312
     51 H          -1.0336    2.4323    0.9104 H       1  UNL1        0.0282
     52 H           0.4650    3.1700    0.3453 H       1  UNL1        0.0282
     53 H           1.7190    2.3128    2.1028 H       1  UNL1        0.0466
     54 H           1.5388   -0.0692    2.5906 H       1  UNL1        0.0289
     55 H          -0.1593    0.1859    2.9751 H       1  UNL1        0.0289
     56 H           3.8542   -2.8298    0.6577 H       1  UNL1        0.0468
     57 H           2.2251   -3.4027   -0.0171 H       1  UNL1        0.0468
     58 H           2.7227   -2.0198   -2.0634 H       1  UNL1        0.0344
     59 H           3.9870   -3.2653   -1.8479 H       1  UNL1        0.0344
     60 H           7.1152   -0.1310   -2.9767 H       1  UNL1        0.0835
     61 H           5.2517    1.5557    0.4759 H       1  UNL1        0.0627
     62 H           2.9630    0.6755    0.8697 H       1  UNL1        0.0514
     63 H           3.8680   -0.6152    1.6701 H       1  UNL1        0.0514
     64 H          -1.6700   -0.1928    1.8451 H       1  UNL1        0.0290
     65 H          -1.3383   -1.5222    0.6698 H       1  UNL1        0.0290
@<TRIPOS>BOND
     1     1     2    1
     2     2     3    1
     3     3     4    1
     4     4     5    1
     5     5     6    1
     6     6     7    1
     7     7     8    1
     8     8     9    1
     9     9    10    1
    10    10    11    1
    11    11    12    1
    12    12    13    1
    13    13    14    1
    14    14    15    1
    15    14    16    1
    16    16    17    1
    17    17    18    1
    18    18    19    2
    19    18    20   am
    20    20    21    1
    21    21    22    1
    22    22    23    1
    23    23    24   ar
    24    24    25   ar
    25    25    26   ar
    26    26    27    1
    27    27    28    1
    28    27    29    1
    29    27    30    1
    30    26    31   ar
    31    31    32   ar
    32    32    33    1
    33    17    34    1
    34     8     3    1
    35    34    10    1
    36    17    12    1
    37    33    20    1
    38    32    23   ar
    39     1    35    1
    40     1    36    1
    41     1    37    1
    42     3    38    1
    43     4    39    1
    44     4    40    1
    45     6    41    1
    46     6    42    1
    47     7    43    1
    48     7    44    1
    49     8    45    1
    50     9    46    1
    51    10    47    1
    52    11    48    1
    53    11    49    1
    54    12    50    1
    55    13    51    1
    56    13    52    1
    57    14    53    1
    58    16    54    1
    59    16    55    1
    60    21    56    1
    61    21    57    1
    62    22    58    1
    63    22    59    1
    64    25    60    1
    65    31    61    1
    66    33    62    1
    67    33    63    1
    68    34    64    1
    69    34    65    1
