@<TRIPOS>MOLECULE
*****
 50 52 0 0 0
SMALL
GASTEIGER

@<TRIPOS>ATOM
      1 C          -6.6881    0.4105    1.1709 C.3     1  UNL1       -0.0128
      2 N          -6.2120    0.1964   -0.1785 N.3     1  UNL1       -0.3052
      3 C          -5.1268   -0.7850   -0.1174 C.3     1  UNL1        0.0003
      4 C          -3.8822   -0.0096    0.2513 C.3     1  UNL1       -0.0175
      5 C          -3.3707    0.6734   -1.0017 C.3     1  UNL1        0.0845
      6 S          -2.3815   -0.3962   -1.9806 S.O2    1  UNL1        0.0047
      7 O          -1.9364    0.3779   -3.2178 O.2     1  UNL1       -0.1689
      8 O          -3.1639   -1.5839   -2.4823 O.2     1  UNL1       -0.1689
      9 C          -0.9637   -0.9925   -1.1557 C.ar    1  UNL1        0.1497
     10 C          -1.0296   -2.2078   -0.5227 C.ar    1  UNL1        0.0694
     11 CL         -2.4680   -3.2213   -0.5291 Cl      1  UNL1       -0.0815
     12 C           0.1107   -2.6228    0.1246 C.ar    1  UNL1       -0.0395
     13 C           1.2879   -1.8575    0.1464 C.ar    1  UNL1       -0.0354
     14 C           1.3582   -0.6411   -0.4862 C.ar    1  UNL1        0.0785
     15 N           2.4878    0.2092   -0.5282 N.am    1  UNL1       -0.2661
     16 C           3.7367   -0.0333    0.0662 C.2     1  UNL1        0.3082
     17 O           3.9659   -1.0596    0.7074 O.2     1  UNL1       -0.2521
     18 N           4.8198    0.9118   -0.0445 N.am    1  UNL1       -0.2678
     19 C           6.0825    0.6705    0.5544 C.ar    1  UNL1        0.0559
     20 C           6.3287    1.0934    1.8440 C.ar    1  UNL1       -0.0388
     21 C           7.5627    0.8496    2.4094 C.ar    1  UNL1       -0.0572
     22 C           8.5677    0.1860    1.7094 C.ar    1  UNL1       -0.0249
     23 C           8.3003   -0.2282    0.4210 C.ar    1  UNL1        0.1434
     24 F           9.2820   -0.8823   -0.2775 F       1  UNL1       -0.2039
     25 C           7.0758    0.0040   -0.1641 C.ar    1  UNL1        0.0972
     26 CL          6.7659   -0.5367   -1.8084 Cl      1  UNL1       -0.0786
     27 C           0.1910   -0.2427   -1.1341 C.ar    1  UNL1        0.1644
     28 O           0.2131    0.9838   -1.7901 O.3     1  UNL1       -0.5032
     29 C          -4.5859    1.1467   -1.7676 C.3     1  UNL1       -0.0175
     30 C          -5.7276    1.4093   -0.7833 C.3     1  UNL1        0.0003
     31 H          -6.4623   -0.4832    1.8233 H       1  UNL1        0.0391
     32 H          -6.2244    1.2739    1.6684 H       1  UNL1        0.0391
     33 H          -7.8128    0.4724    1.1735 H       1  UNL1        0.0391
     34 H          -5.3384   -1.5664    0.6540 H       1  UNL1        0.0427
     35 H          -4.9779   -1.2825   -1.0798 H       1  UNL1        0.0427
     36 H          -3.1453   -0.6427    0.7459 H       1  UNL1        0.0296
     37 H          -4.2058    0.7618    0.9967 H       1  UNL1        0.0296
     38 H          -2.7500    1.5714   -0.7273 H       1  UNL1        0.0541
     39 H           0.0996   -3.5716    0.6343 H       1  UNL1        0.0633
     40 H           2.1528   -2.2354    0.6716 H       1  UNL1        0.0638
     41 H           2.3982    1.1279   -1.0593 H       1  UNL1        0.1565
     42 H           4.6166    1.7745   -0.5874 H       1  UNL1        0.1564
     43 H           5.5217    1.6041    2.3510 H       1  UNL1        0.0637
     44 H           7.7651    1.1755    3.4153 H       1  UNL1        0.0619
     45 H           9.5201    0.0197    2.2003 H       1  UNL1        0.0647
     46 H          -0.4421    1.6912   -1.4819 H       1  UNL1        0.2923
     47 H          -4.4258    2.0890   -2.3054 H       1  UNL1        0.0296
     48 H          -4.9447    0.3220   -2.4280 H       1  UNL1        0.0296
     49 H          -6.5359    1.9293   -1.3507 H       1  UNL1        0.0427
     50 H          -5.4087    2.1468   -0.0007 H       1  UNL1        0.0427
@<TRIPOS>BOND
     1     1     2    1
     2     2     3    1
     3     3     4    1
     4     4     5    1
     5     5     6    1
     6     6     7    2
     7     6     8    2
     8     6     9    1
     9     9    10   ar
    10    10    11    1
    11    10    12   ar
    12    12    13   ar
    13    13    14   ar
    14    14    15    1
    15    15    16   am
    16    16    17    2
    17    16    18   am
    18    18    19    1
    19    19    20   ar
    20    20    21   ar
    21    21    22   ar
    22    22    23   ar
    23    23    24    1
    24    23    25   ar
    25    25    26    1
    26    14    27   ar
    27    27    28    1
    28     5    29    1
    29    29    30    1
    30    30     2    1
    31    27     9   ar
    32    25    19   ar
    33     1    31    1
    34     1    32    1
    35     1    33    1
    36     3    34    1
    37     3    35    1
    38     4    36    1
    39     4    37    1
    40     5    38    1
    41    12    39    1
    42    13    40    1
    43    15    41    1
    44    18    42    1
    45    20    43    1
    46    21    44    1
    47    22    45    1
    48    28    46    1
    49    29    47    1
    50    29    48    1
    51    30    49    1
    52    30    50    1
