
     RDKit          3D

 50 52  0  0  0  0  0  0  0  0999 V2000
   -6.6881    0.4105    1.1709 C   0  0  0  0  0  0  0  0  0  0  0  0
   -6.2120    0.1964   -0.1785 N   0  0  0  0  0  0  0  0  0  0  0  0
   -5.1268   -0.7850   -0.1174 C   0  0  0  0  0  0  0  0  0  0  0  0
   -3.8822   -0.0096    0.2513 C   0  0  0  0  0  0  0  0  0  0  0  0
   -3.3707    0.6734   -1.0017 C   0  0  0  0  0  0  0  0  0  0  0  0
   -2.3815   -0.3962   -1.9806 S   0  0  0  0  0  6  0  0  0  0  0  0
   -1.9364    0.3779   -3.2178 O   0  0  0  0  0  0  0  0  0  0  0  0
   -3.1639   -1.5839   -2.4823 O   0  0  0  0  0  0  0  0  0  0  0  0
   -0.9637   -0.9925   -1.1557 C   0  0  0  0  0  0  0  0  0  0  0  0
   -1.0296   -2.2078   -0.5227 C   0  0  0  0  0  0  0  0  0  0  0  0
   -2.4680   -3.2213   -0.5291 Cl  0  0  0  0  0  0  0  0  0  0  0  0
    0.1107   -2.6228    0.1246 C   0  0  0  0  0  0  0  0  0  0  0  0
    1.2879   -1.8575    0.1464 C   0  0  0  0  0  0  0  0  0  0  0  0
    1.3582   -0.6411   -0.4862 C   0  0  0  0  0  0  0  0  0  0  0  0
    2.4878    0.2092   -0.5282 N   0  0  0  0  0  0  0  0  0  0  0  0
    3.7367   -0.0333    0.0662 C   0  0  0  0  0  0  0  0  0  0  0  0
    3.9659   -1.0596    0.7074 O   0  0  0  0  0  0  0  0  0  0  0  0
    4.8198    0.9118   -0.0445 N   0  0  0  0  0  0  0  0  0  0  0  0
    6.0825    0.6705    0.5544 C   0  0  0  0  0  0  0  0  0  0  0  0
    6.3287    1.0934    1.8440 C   0  0  0  0  0  0  0  0  0  0  0  0
    7.5627    0.8496    2.4094 C   0  0  0  0  0  0  0  0  0  0  0  0
    8.5677    0.1860    1.7094 C   0  0  0  0  0  0  0  0  0  0  0  0
    8.3003   -0.2282    0.4210 C   0  0  0  0  0  0  0  0  0  0  0  0
    9.2820   -0.8823   -0.2775 F   0  0  0  0  0  0  0  0  0  0  0  0
    7.0758    0.0040   -0.1641 C   0  0  0  0  0  0  0  0  0  0  0  0
    6.7659   -0.5367   -1.8084 Cl  0  0  0  0  0  0  0  0  0  0  0  0
    0.1910   -0.2427   -1.1341 C   0  0  0  0  0  0  0  0  0  0  0  0
    0.2131    0.9838   -1.7901 O   0  0  0  0  0  0  0  0  0  0  0  0
   -4.5859    1.1467   -1.7676 C   0  0  0  0  0  0  0  0  0  0  0  0
   -5.7276    1.4093   -0.7833 C   0  0  0  0  0  0  0  0  0  0  0  0
   -6.4623   -0.4832    1.8233 H   0  0  0  0  0  0  0  0  0  0  0  0
   -6.2244    1.2739    1.6684 H   0  0  0  0  0  0  0  0  0  0  0  0
   -7.8128    0.4724    1.1735 H   0  0  0  0  0  0  0  0  0  0  0  0
   -5.3384   -1.5664    0.6540 H   0  0  0  0  0  0  0  0  0  0  0  0
   -4.9779   -1.2825   -1.0798 H   0  0  0  0  0  0  0  0  0  0  0  0
   -3.1453   -0.6427    0.7459 H   0  0  0  0  0  0  0  0  0  0  0  0
   -4.2058    0.7618    0.9967 H   0  0  0  0  0  0  0  0  0  0  0  0
   -2.7500    1.5714   -0.7273 H   0  0  0  0  0  0  0  0  0  0  0  0
    0.0996   -3.5716    0.6343 H   0  0  0  0  0  0  0  0  0  0  0  0
    2.1528   -2.2354    0.6716 H   0  0  0  0  0  0  0  0  0  0  0  0
    2.3982    1.1279   -1.0593 H   0  0  0  0  0  0  0  0  0  0  0  0
    4.6166    1.7745   -0.5874 H   0  0  0  0  0  0  0  0  0  0  0  0
    5.5217    1.6041    2.3510 H   0  0  0  0  0  0  0  0  0  0  0  0
    7.7651    1.1755    3.4153 H   0  0  0  0  0  0  0  0  0  0  0  0
    9.5201    0.0197    2.2003 H   0  0  0  0  0  0  0  0  0  0  0  0
   -0.4421    1.6912   -1.4819 H   0  0  0  0  0  0  0  0  0  0  0  0
   -4.4258    2.0890   -2.3054 H   0  0  0  0  0  0  0  0  0  0  0  0
   -4.9447    0.3220   -2.4280 H   0  0  0  0  0  0  0  0  0  0  0  0
   -6.5359    1.9293   -1.3507 H   0  0  0  0  0  0  0  0  0  0  0  0
   -5.4087    2.1468   -0.0007 H   0  0  0  0  0  0  0  0  0  0  0  0
  1  2  1  0
  2  3  1  0
  3  4  1  0
  4  5  1  0
  5  6  1  0
  6  7  2  0
  6  8  2  0
  6  9  1  0
  9 10  2  0
 10 11  1  0
 10 12  1  0
 12 13  2  0
 13 14  1  0
 14 15  1  0
 15 16  1  0
 16 17  2  0
 16 18  1  0
 18 19  1  0
 19 20  2  0
 20 21  1  0
 21 22  2  0
 22 23  1  0
 23 24  1  0
 23 25  2  0
 25 26  1  0
 14 27  2  0
 27 28  1  0
  5 29  1  0
 29 30  1  0
 30  2  1  0
 27  9  1  0
 25 19  1  0
  1 31  1  0
  1 32  1  0
  1 33  1  0
  3 34  1  0
  3 35  1  0
  4 36  1  0
  4 37  1  0
  5 38  1  0
 12 39  1  0
 13 40  1  0
 15 41  1  0
 18 42  1  0
 20 43  1  0
 21 44  1  0
 22 45  1  0
 28 46  1  0
 29 47  1  0
 29 48  1  0
 30 49  1  0
 30 50  1  0
M  END
$$$$
