@<TRIPOS>MOLECULE
*****
 55 57 0 0 0
SMALL
GASTEIGER

@<TRIPOS>ATOM
      1 C          -8.3090    0.2358    1.1614 C.3     1  UNL1       -0.0653
      2 C          -7.2829    0.6888    0.1365 C.3     1  UNL1       -0.0559
      3 C          -6.6205   -0.4999   -0.4840 C.3     1  UNL1       -0.0533
      4 C          -5.5942   -0.1540   -1.5081 C.3     1  UNL1       -0.0530
      5 C          -4.4803    0.6788   -0.9379 C.3     1  UNL1       -0.0515
      6 C          -3.7412    0.0021    0.1752 C.3     1  UNL1       -0.0305
      7 C          -3.0962   -1.3047   -0.2544 C.3     1  UNL1        0.1094
      8 S          -2.2411   -2.0064    1.1815 S.3     1  UNL1       -0.0712
      9 C          -0.8593   -0.9601    1.6697 C.ar    1  UNL1        0.1920
     10 N          -1.0270    0.0440    2.5587 N.ar    1  UNL1       -0.2101
     11 C          -0.0669    0.8589    2.9662 C.ar    1  UNL1        0.1354
     12 CL         -0.3015    2.1562    4.1195 Cl      1  UNL1       -0.0618
     13 C           1.2025    0.6847    2.4568 C.ar    1  UNL1        0.0151
     14 C           1.4050   -0.3424    1.5387 C.ar    1  UNL1        0.1247
     15 N           2.7224   -0.4842    1.0351 N.pl3   1  UNL1       -0.3248
     16 C           3.1172    0.1591   -0.1923 C.3     1  UNL1        0.0357
     17 C           4.5459   -0.0874   -0.5164 C.ar    1  UNL1       -0.0297
     18 C           4.9357   -1.1813   -1.2593 C.ar    1  UNL1       -0.0550
     19 C           6.2818   -1.3926   -1.5555 C.ar    1  UNL1       -0.0354
     20 C           7.2634   -0.5353   -1.1281 C.ar    1  UNL1        0.0710
     21 N           8.5737   -0.7420   -1.4182 N.ar    1  UNL1       -0.2550
     22 C           9.5229    0.1153   -0.9879 C.ar    1  UNL1        0.0283
     23 C           9.2198    1.2343   -0.2396 C.ar    1  UNL1       -0.0430
     24 C           7.8721    1.4262    0.0456 C.ar    1  UNL1       -0.0511
     25 C           6.8877    0.5615   -0.3850 C.ar    1  UNL1        0.0007
     26 C           5.5490    0.7707   -0.0909 C.ar    1  UNL1       -0.0479
     27 N           0.3788   -1.1315    1.1718 N.ar    1  UNL1       -0.2070
     28 C          -2.1701   -1.0484   -1.3648 C.2     1  UNL1        0.3182
     29 O          -2.3550   -1.6108   -2.4685 O.2     1  UNL1       -0.2498
     30 O          -1.1080   -0.2002   -1.2003 O.3     1  UNL1       -0.4798
     31 H          -7.9361    0.4392    2.1962 H       1  UNL1        0.0230
     32 H          -8.4648   -0.8453    1.0522 H       1  UNL1        0.0230
     33 H          -9.2744    0.7703    1.0365 H       1  UNL1        0.0230
     34 H          -6.5704    1.3609    0.6570 H       1  UNL1        0.0263
     35 H          -7.8325    1.3074   -0.6053 H       1  UNL1        0.0263
     36 H          -7.4087   -1.1044   -0.9880 H       1  UNL1        0.0265
     37 H          -6.1571   -1.1009    0.3107 H       1  UNL1        0.0265
     38 H          -5.1863   -1.0721   -1.9634 H       1  UNL1        0.0265
     39 H          -6.1088    0.4762   -2.2867 H       1  UNL1        0.0265
     40 H          -4.9286    1.6029   -0.5183 H       1  UNL1        0.0266
     41 H          -3.7670    1.0202   -1.7202 H       1  UNL1        0.0266
     42 H          -4.3977   -0.1849    1.0410 H       1  UNL1        0.0281
     43 H          -2.9062    0.6814    0.4716 H       1  UNL1        0.0281
     44 H          -3.8933   -1.9892   -0.5416 H       1  UNL1        0.0531
     45 H           2.0255    1.3198    2.7533 H       1  UNL1        0.0682
     46 H           3.3898   -1.0668    1.5822 H       1  UNL1        0.1478
     47 H           2.4426   -0.2442   -0.9875 H       1  UNL1        0.0511
     48 H           2.9868    1.2496   -0.0550 H       1  UNL1        0.0511
     49 H           4.2204   -1.9006   -1.6307 H       1  UNL1        0.0621
     50 H           6.5701   -2.2540   -2.1382 H       1  UNL1        0.0639
     51 H          10.5618   -0.0716   -1.2326 H       1  UNL1        0.0830
     52 H           9.9664    1.9345    0.1152 H       1  UNL1        0.0633
     53 H           7.5719    2.2827    0.6260 H       1  UNL1        0.0625
     54 H           5.2475    1.6201    0.4858 H       1  UNL1        0.0627
     55 H          -0.3755   -0.1661   -1.8858 H       1  UNL1        0.2951
@<TRIPOS>BOND
     1     1     2    1
     2     2     3    1
     3     3     4    1
     4     4     5    1
     5     5     6    1
     6     6     7    1
     7     7     8    1
     8     8     9    1
     9     9    10   ar
    10    10    11   ar
    11    11    12    1
    12    11    13   ar
    13    13    14   ar
    14    14    15    1
    15    15    16    1
    16    16    17    1
    17    17    18   ar
    18    18    19   ar
    19    19    20   ar
    20    20    21   ar
    21    21    22   ar
    22    22    23   ar
    23    23    24   ar
    24    24    25   ar
    25    25    26   ar
    26    14    27   ar
    27     7    28    1
    28    28    29    2
    29    28    30    1
    30    27     9   ar
    31    26    17   ar
    32    25    20   ar
    33     1    31    1
    34     1    32    1
    35     1    33    1
    36     2    34    1
    37     2    35    1
    38     3    36    1
    39     3    37    1
    40     4    38    1
    41     4    39    1
    42     5    40    1
    43     5    41    1
    44     6    42    1
    45     6    43    1
    46     7    44    1
    47    13    45    1
    48    15    46    1
    49    16    47    1
    50    16    48    1
    51    18    49    1
    52    19    50    1
    53    22    51    1
    54    23    52    1
    55    24    53    1
    56    26    54    1
    57    30    55    1
