
     RDKit          3D

 55 57  0  0  0  0  0  0  0  0999 V2000
   -8.3090    0.2358    1.1614 C   0  0  0  0  0  0  0  0  0  0  0  0
   -7.2829    0.6888    0.1365 C   0  0  0  0  0  0  0  0  0  0  0  0
   -6.6205   -0.4999   -0.4840 C   0  0  0  0  0  0  0  0  0  0  0  0
   -5.5942   -0.1540   -1.5081 C   0  0  0  0  0  0  0  0  0  0  0  0
   -4.4803    0.6788   -0.9379 C   0  0  0  0  0  0  0  0  0  0  0  0
   -3.7412    0.0021    0.1752 C   0  0  0  0  0  0  0  0  0  0  0  0
   -3.0962   -1.3047   -0.2544 C   0  0  0  0  0  0  0  0  0  0  0  0
   -2.2411   -2.0064    1.1815 S   0  0  0  0  0  0  0  0  0  0  0  0
   -0.8593   -0.9601    1.6697 C   0  0  0  0  0  0  0  0  0  0  0  0
   -1.0270    0.0440    2.5587 N   0  0  0  0  0  0  0  0  0  0  0  0
   -0.0669    0.8589    2.9662 C   0  0  0  0  0  0  0  0  0  0  0  0
   -0.3015    2.1562    4.1195 Cl  0  0  0  0  0  0  0  0  0  0  0  0
    1.2025    0.6847    2.4568 C   0  0  0  0  0  0  0  0  0  0  0  0
    1.4050   -0.3424    1.5387 C   0  0  0  0  0  0  0  0  0  0  0  0
    2.7224   -0.4842    1.0351 N   0  0  0  0  0  0  0  0  0  0  0  0
    3.1172    0.1591   -0.1923 C   0  0  0  0  0  0  0  0  0  0  0  0
    4.5459   -0.0874   -0.5164 C   0  0  0  0  0  0  0  0  0  0  0  0
    4.9357   -1.1813   -1.2593 C   0  0  0  0  0  0  0  0  0  0  0  0
    6.2818   -1.3926   -1.5555 C   0  0  0  0  0  0  0  0  0  0  0  0
    7.2634   -0.5353   -1.1281 C   0  0  0  0  0  0  0  0  0  0  0  0
    8.5737   -0.7420   -1.4182 N   0  0  0  0  0  0  0  0  0  0  0  0
    9.5229    0.1153   -0.9879 C   0  0  0  0  0  0  0  0  0  0  0  0
    9.2198    1.2343   -0.2396 C   0  0  0  0  0  0  0  0  0  0  0  0
    7.8721    1.4262    0.0456 C   0  0  0  0  0  0  0  0  0  0  0  0
    6.8877    0.5615   -0.3850 C   0  0  0  0  0  0  0  0  0  0  0  0
    5.5490    0.7707   -0.0909 C   0  0  0  0  0  0  0  0  0  0  0  0
    0.3788   -1.1315    1.1718 N   0  0  0  0  0  0  0  0  0  0  0  0
   -2.1701   -1.0484   -1.3648 C   0  0  0  0  0  0  0  0  0  0  0  0
   -2.3550   -1.6108   -2.4685 O   0  0  0  0  0  0  0  0  0  0  0  0
   -1.1080   -0.2002   -1.2003 O   0  0  0  0  0  0  0  0  0  0  0  0
   -7.9361    0.4392    2.1962 H   0  0  0  0  0  0  0  0  0  0  0  0
   -8.4648   -0.8453    1.0522 H   0  0  0  0  0  0  0  0  0  0  0  0
   -9.2744    0.7703    1.0365 H   0  0  0  0  0  0  0  0  0  0  0  0
   -6.5704    1.3609    0.6570 H   0  0  0  0  0  0  0  0  0  0  0  0
   -7.8325    1.3074   -0.6053 H   0  0  0  0  0  0  0  0  0  0  0  0
   -7.4087   -1.1044   -0.9880 H   0  0  0  0  0  0  0  0  0  0  0  0
   -6.1571   -1.1009    0.3107 H   0  0  0  0  0  0  0  0  0  0  0  0
   -5.1863   -1.0721   -1.9634 H   0  0  0  0  0  0  0  0  0  0  0  0
   -6.1088    0.4762   -2.2867 H   0  0  0  0  0  0  0  0  0  0  0  0
   -4.9286    1.6029   -0.5183 H   0  0  0  0  0  0  0  0  0  0  0  0
   -3.7670    1.0202   -1.7202 H   0  0  0  0  0  0  0  0  0  0  0  0
   -4.3977   -0.1849    1.0410 H   0  0  0  0  0  0  0  0  0  0  0  0
   -2.9062    0.6814    0.4716 H   0  0  0  0  0  0  0  0  0  0  0  0
   -3.8933   -1.9892   -0.5416 H   0  0  0  0  0  0  0  0  0  0  0  0
    2.0255    1.3198    2.7533 H   0  0  0  0  0  0  0  0  0  0  0  0
    3.3898   -1.0668    1.5822 H   0  0  0  0  0  0  0  0  0  0  0  0
    2.4426   -0.2442   -0.9875 H   0  0  0  0  0  0  0  0  0  0  0  0
    2.9868    1.2496   -0.0550 H   0  0  0  0  0  0  0  0  0  0  0  0
    4.2204   -1.9006   -1.6307 H   0  0  0  0  0  0  0  0  0  0  0  0
    6.5701   -2.2540   -2.1382 H   0  0  0  0  0  0  0  0  0  0  0  0
   10.5618   -0.0716   -1.2326 H   0  0  0  0  0  0  0  0  0  0  0  0
    9.9664    1.9345    0.1152 H   0  0  0  0  0  0  0  0  0  0  0  0
    7.5719    2.2827    0.6260 H   0  0  0  0  0  0  0  0  0  0  0  0
    5.2475    1.6201    0.4858 H   0  0  0  0  0  0  0  0  0  0  0  0
   -0.3755   -0.1661   -1.8858 H   0  0  0  0  0  0  0  0  0  0  0  0
  1  2  1  0
  2  3  1  0
  3  4  1  0
  4  5  1  0
  5  6  1  0
  6  7  1  0
  7  8  1  0
  8  9  1  0
  9 10  2  0
 10 11  1  0
 11 12  1  0
 11 13  2  0
 13 14  1  0
 14 15  1  0
 15 16  1  0
 16 17  1  0
 17 18  2  0
 18 19  1  0
 19 20  2  0
 20 21  1  0
 21 22  2  0
 22 23  1  0
 23 24  2  0
 24 25  1  0
 25 26  2  0
 14 27  2  0
  7 28  1  0
 28 29  2  0
 28 30  1  0
 27  9  1  0
 26 17  1  0
 25 20  1  0
  1 31  1  0
  1 32  1  0
  1 33  1  0
  2 34  1  0
  2 35  1  0
  3 36  1  0
  3 37  1  0
  4 38  1  0
  4 39  1  0
  5 40  1  0
  5 41  1  0
  6 42  1  0
  6 43  1  0
  7 44  1  0
 13 45  1  0
 15 46  1  0
 16 47  1  0
 16 48  1  0
 18 49  1  0
 19 50  1  0
 22 51  1  0
 23 52  1  0
 24 53  1  0
 26 54  1  0
 30 55  1  0
M  END
$$$$
