
     RDKit          3D

 55 58  0  0  0  0  0  0  0  0999 V2000
   -2.4703   -2.3866    1.5675 C   0  0  0  0  0  0  0  0  0  0  0  0
   -1.8677   -1.8238    0.3039 C   0  0  0  0  0  0  0  0  0  0  0  0
   -2.1509   -2.8908   -0.7656 C   0  0  0  0  0  0  0  0  0  0  0  0
   -0.4364   -1.6306    0.5004 C   0  0  0  0  0  0  0  0  0  0  0  0
    0.2397   -2.5432    1.0974 O   0  0  0  0  0  0  0  0  0  0  0  0
    0.3461   -0.5255    0.1035 N   0  0  0  0  0  0  0  0  0  0  0  0
    1.7493   -0.4118    0.3382 C   0  0  1  0  0  0  0  0  0  0  0  0
    2.4519   -0.3822   -1.0159 C   0  0  0  0  0  0  0  0  0  0  0  0
    2.1589    0.9006   -1.7545 C   0  0  0  0  0  0  0  0  0  0  0  0
    2.6310    2.0942   -0.9544 C   0  0  1  0  0  0  0  0  0  0  0  0
    1.8800    2.0907    0.3546 C   0  0  0  0  0  0  0  0  0  0  0  0
    2.1807    0.8094    1.0876 C   0  0  0  0  0  0  0  0  0  0  0  0
    3.6851    0.7084    1.2679 C   0  0  0  0  0  0  0  0  0  0  0  0
    4.4181    0.6814   -0.0489 C   0  0  1  0  0  0  0  0  0  0  0  0
    5.7635    0.5221    0.2173 O   0  0  0  0  0  0  0  0  0  0  0  0
    3.9454   -0.5011   -0.8524 C   0  0  0  0  0  0  0  0  0  0  0  0
    4.1170    1.9942   -0.7516 C   0  0  0  0  0  0  0  0  0  0  0  0
   -2.5360   -0.6257   -0.1588 N   0  0  0  0  0  0  0  0  0  0  0  0
   -3.8768   -0.9543   -0.6329 C   0  0  0  0  0  0  0  0  0  0  0  0
   -4.8963    0.0291   -0.1087 C   0  0  0  0  0  0  0  0  0  0  0  0
   -4.4829    1.4536   -0.2484 C   0  0  0  0  0  0  0  0  0  0  0  0
   -3.0790    1.6436    0.2661 C   0  0  0  0  0  0  0  0  0  0  0  0
   -2.6403    0.3598    0.9200 C   0  0  0  0  0  0  0  0  0  0  0  0
   -3.5561   -2.4328    1.5728 H   0  0  0  0  0  0  0  0  0  0  0  0
   -2.0384   -1.9223    2.4792 H   0  0  0  0  0  0  0  0  0  0  0  0
   -2.1186   -3.4603    1.6122 H   0  0  0  0  0  0  0  0  0  0  0  0
   -1.2225   -3.5021   -0.8362 H   0  0  0  0  0  0  0  0  0  0  0  0
   -2.3237   -2.4300   -1.7464 H   0  0  0  0  0  0  0  0  0  0  0  0
   -2.9585   -3.5790   -0.4506 H   0  0  0  0  0  0  0  0  0  0  0  0
   -0.1340    0.2502   -0.4004 H   0  0  0  0  0  0  0  0  0  0  0  0
    2.1647   -1.2936    0.8719 H   0  0  0  0  0  0  0  0  0  0  0  0
    2.0271   -1.2082   -1.6235 H   0  0  0  0  0  0  0  0  0  0  0  0
    1.0867    0.9962   -2.0343 H   0  0  0  0  0  0  0  0  0  0  0  0
    2.7344    0.8835   -2.6889 H   0  0  0  0  0  0  0  0  0  0  0  0
    2.4019    3.0130   -1.5207 H   0  0  0  0  0  0  0  0  0  0  0  0
    0.7944    2.1087    0.0999 H   0  0  0  0  0  0  0  0  0  0  0  0
    2.1429    2.9308    1.0154 H   0  0  0  0  0  0  0  0  0  0  0  0
    1.7685    0.8974    2.0989 H   0  0  0  0  0  0  0  0  0  0  0  0
    3.8700   -0.2265    1.8481 H   0  0  0  0  0  0  0  0  0  0  0  0
    4.0262    1.5890    1.8425 H   0  0  0  0  0  0  0  0  0  0  0  0
    5.9530    0.2528    1.1574 H   0  0  0  0  0  0  0  0  0  0  0  0
    4.4050   -0.4946   -1.8438 H   0  0  0  0  0  0  0  0  0  0  0  0
    4.1672   -1.4084   -0.2652 H   0  0  0  0  0  0  0  0  0  0  0  0
    4.6151    2.0517   -1.7301 H   0  0  0  0  0  0  0  0  0  0  0  0
    4.4587    2.7999   -0.0499 H   0  0  0  0  0  0  0  0  0  0  0  0
   -4.1807   -1.9605   -0.2932 H   0  0  0  0  0  0  0  0  0  0  0  0
   -3.8741   -0.9411   -1.7224 H   0  0  0  0  0  0  0  0  0  0  0  0
   -5.8108   -0.1113   -0.7575 H   0  0  0  0  0  0  0  0  0  0  0  0
   -5.2356   -0.1975    0.9169 H   0  0  0  0  0  0  0  0  0  0  0  0
   -4.5858    1.8333   -1.2996 H   0  0  0  0  0  0  0  0  0  0  0  0
   -5.1910    2.1043    0.3417 H   0  0  0  0  0  0  0  0  0  0  0  0
   -3.0637    2.4920    0.9805 H   0  0  0  0  0  0  0  0  0  0  0  0
   -2.4369    1.8370   -0.6217 H   0  0  0  0  0  0  0  0  0  0  0  0
   -1.6551    0.4937    1.3631 H   0  0  0  0  0  0  0  0  0  0  0  0
   -3.3606    0.0232    1.6909 H   0  0  0  0  0  0  0  0  0  0  0  0
  1  2  1  0
  2  3  1  0
  2  4  1  0
  4  5  2  0
  4  6  1  0
  6  7  1  0
  7  8  1  0
  8  9  1  0
  9 10  1  0
 10 11  1  0
 11 12  1  0
 12 13  1  0
 13 14  1  0
 14 15  1  1
 14 16  1  0
 14 17  1  0
  2 18  1  0
 18 19  1  0
 19 20  1  0
 20 21  1  0
 21 22  1  0
 22 23  1  0
 12  7  1  0
 23 18  1  0
 16  8  1  0
 17 10  1  0
  1 24  1  0
  1 25  1  0
  1 26  1  0
  3 27  1  0
  3 28  1  0
  3 29  1  0
  6 30  1  0
  7 31  1  1
  8 32  1  0
  9 33  1  0
  9 34  1  0
 10 35  1  6
 11 36  1  0
 11 37  1  0
 12 38  1  0
 13 39  1  0
 13 40  1  0
 15 41  1  0
 16 42  1  0
 16 43  1  0
 17 44  1  0
 17 45  1  0
 19 46  1  0
 19 47  1  0
 20 48  1  0
 20 49  1  0
 21 50  1  0
 21 51  1  0
 22 52  1  0
 22 53  1  0
 23 54  1  0
 23 55  1  0
M  END
$$$$
