@<TRIPOS>MOLECULE
*****
 55 58 0 0 0
SMALL
GASTEIGER

@<TRIPOS>ATOM
      1 C          -2.4703   -2.3866    1.5675 C.3     1  UNL1       -0.0383
      2 C          -1.8677   -1.8238    0.3039 C.3     1  UNL1        0.0929
      3 C          -2.1509   -2.8908   -0.7656 C.3     1  UNL1       -0.0383
      4 C          -0.4364   -1.6306    0.5004 C.2     1  UNL1        0.2331
      5 O           0.2397   -2.5432    1.0974 O.2     1  UNL1       -0.2738
      6 N           0.3461   -0.5255    0.1035 N.am    1  UNL1       -0.3104
      7 C           1.7493   -0.4118    0.3382 C.3     1  UNL1        0.0290
      8 C           2.4519   -0.3822   -1.0159 C.3     1  UNL1       -0.0195
      9 C           2.1589    0.9006   -1.7545 C.3     1  UNL1       -0.0455
     10 C           2.6310    2.0942   -0.9544 C.3     1  UNL1       -0.0378
     11 C           1.8800    2.0907    0.3546 C.3     1  UNL1       -0.0455
     12 C           2.1807    0.8094    1.0876 C.3     1  UNL1       -0.0195
     13 C           3.6851    0.7084    1.2679 C.3     1  UNL1       -0.0195
     14 C           4.4181    0.6814   -0.0489 C.3     1  UNL1        0.0670
     15 O           5.7635    0.5221    0.2173 O.3     1  UNL1       -0.3885
     16 C           3.9454   -0.5011   -0.8524 C.3     1  UNL1       -0.0195
     17 C           4.1170    1.9942   -0.7516 C.3     1  UNL1       -0.0211
     18 N          -2.5360   -0.6257   -0.1588 N.3     1  UNL1       -0.2894
     19 C          -3.8768   -0.9543   -0.6329 C.3     1  UNL1       -0.0002
     20 C          -4.8963    0.0291   -0.1087 C.3     1  UNL1       -0.0401
     21 C          -4.4829    1.4536   -0.2484 C.3     1  UNL1       -0.0507
     22 C          -3.0790    1.6436    0.2661 C.3     1  UNL1       -0.0401
     23 C          -2.6403    0.3598    0.9200 C.3     1  UNL1       -0.0002
     24 H          -3.5561   -2.4328    1.5728 H       1  UNL1        0.0252
     25 H          -2.0384   -1.9223    2.4792 H       1  UNL1        0.0252
     26 H          -2.1186   -3.4603    1.6122 H       1  UNL1        0.0252
     27 H          -1.2225   -3.5021   -0.8362 H       1  UNL1        0.0252
     28 H          -2.3237   -2.4300   -1.7464 H       1  UNL1        0.0252
     29 H          -2.9585   -3.5790   -0.4506 H       1  UNL1        0.0252
     30 H          -0.1340    0.2502   -0.4004 H       1  UNL1        0.1490
     31 H           2.1647   -1.2936    0.8719 H       1  UNL1        0.0504
     32 H           2.0271   -1.2082   -1.6235 H       1  UNL1        0.0320
     33 H           1.0867    0.9962   -2.0343 H       1  UNL1        0.0271
     34 H           2.7344    0.8835   -2.6889 H       1  UNL1        0.0271
     35 H           2.4019    3.0130   -1.5207 H       1  UNL1        0.0302
     36 H           0.7944    2.1087    0.0999 H       1  UNL1        0.0271
     37 H           2.1429    2.9308    1.0154 H       1  UNL1        0.0271
     38 H           1.7685    0.8974    2.0989 H       1  UNL1        0.0320
     39 H           3.8700   -0.2265    1.8481 H       1  UNL1        0.0296
     40 H           4.0262    1.5890    1.8425 H       1  UNL1        0.0296
     41 H           5.9530    0.2528    1.1574 H       1  UNL1        0.2102
     42 H           4.4050   -0.4946   -1.8438 H       1  UNL1        0.0296
     43 H           4.1672   -1.4084   -0.2652 H       1  UNL1        0.0296
     44 H           4.6151    2.0517   -1.7301 H       1  UNL1        0.0296
     45 H           4.4587    2.7999   -0.0499 H       1  UNL1        0.0296
     46 H          -4.1807   -1.9605   -0.2932 H       1  UNL1        0.0427
     47 H          -3.8741   -0.9411   -1.7224 H       1  UNL1        0.0427
     48 H          -5.8108   -0.1113   -0.7575 H       1  UNL1        0.0278
     49 H          -5.2356   -0.1975    0.9169 H       1  UNL1        0.0278
     50 H          -4.5858    1.8333   -1.2996 H       1  UNL1        0.0266
     51 H          -5.1910    2.1043    0.3417 H       1  UNL1        0.0266
     52 H          -3.0637    2.4920    0.9805 H       1  UNL1        0.0278
     53 H          -2.4369    1.8370   -0.6217 H       1  UNL1        0.0278
     54 H          -1.6551    0.4937    1.3631 H       1  UNL1        0.0427
     55 H          -3.3606    0.0232    1.6909 H       1  UNL1        0.0427
@<TRIPOS>BOND
     1     1     2    1
     2     2     3    1
     3     2     4    1
     4     4     5    2
     5     4     6   am
     6     6     7    1
     7     7     8    1
     8     8     9    1
     9     9    10    1
    10    10    11    1
    11    11    12    1
    12    12    13    1
    13    13    14    1
    14    14    15    1
    15    14    16    1
    16    14    17    1
    17     2    18    1
    18    18    19    1
    19    19    20    1
    20    20    21    1
    21    21    22    1
    22    22    23    1
    23    12     7    1
    24    23    18    1
    25    16     8    1
    26    17    10    1
    27     1    24    1
    28     1    25    1
    29     1    26    1
    30     3    27    1
    31     3    28    1
    32     3    29    1
    33     6    30    1
    34     7    31    1
    35     8    32    1
    36     9    33    1
    37     9    34    1
    38    10    35    1
    39    11    36    1
    40    11    37    1
    41    12    38    1
    42    13    39    1
    43    13    40    1
    44    15    41    1
    45    16    42    1
    46    16    43    1
    47    17    44    1
    48    17    45    1
    49    19    46    1
    50    19    47    1
    51    20    48    1
    52    20    49    1
    53    21    50    1
    54    21    51    1
    55    22    52    1
    56    22    53    1
    57    23    54    1
    58    23    55    1
