@<TRIPOS>MOLECULE
*****
 57 60 0 0 0
SMALL
GASTEIGER

@<TRIPOS>ATOM
      1 C           0.2238    2.9123    0.7106 C.3     1  UNL1       -0.0421
      2 C           0.4336    1.8651   -0.3779 C.3     1  UNL1        0.0515
      3 C           1.7676    1.2470   -0.1718 C.ar    1  UNL1       -0.0271
      4 C           2.7373    1.4328   -1.1645 C.ar    1  UNL1       -0.0562
      5 C           4.0086    0.9131   -1.0741 C.ar    1  UNL1       -0.0536
      6 C           4.3789    0.1636    0.0421 C.ar    1  UNL1       -0.0151
      7 C           5.7337   -0.3895    0.1121 C.ar    1  UNL1        0.0175
      8 C           6.4831   -0.3337    1.2661 C.ar    1  UNL1       -0.0486
      9 C           7.7565   -0.8595    1.3444 C.ar    1  UNL1       -0.0257
     10 C           8.3312   -1.4688    0.2516 C.ar    1  UNL1        0.1262
     11 F           9.5796   -1.9940    0.2979 F       1  UNL1       -0.2054
     12 C           7.5973   -1.5342   -0.9111 C.ar    1  UNL1        0.0094
     13 C           6.3113   -1.0027   -0.9892 C.ar    1  UNL1        0.1338
     14 F           5.5783   -1.0513   -2.1108 F       1  UNL1       -0.2048
     15 C           3.4459   -0.0227    1.0130 C.ar    1  UNL1       -0.0536
     16 C           2.1599    0.5115    0.9078 C.ar    1  UNL1       -0.0562
     17 N          -0.6612    0.9324   -0.4409 N.am    1  UNL1       -0.2605
     18 C          -0.9906    0.1222    0.6846 C.3     1  UNL1        0.0224
     19 C          -2.3856   -0.4491    0.6810 C.3     1  UNL1        0.0079
     20 C          -3.2732    0.0173   -0.4147 C.3     1  UNL1        0.1496
     21 C          -3.7924    1.3701   -0.1519 C.3     1  UNL1        0.0680
     22 C          -4.5751    1.6407    1.0310 C.2     1  UNL1        0.2146
     23 N          -4.8455    0.8426    2.1531 N.am    1  UNL1       -0.3292
     24 O          -5.1188    2.8241    1.0609 O.2     1  UNL1       -0.2759
     25 C          -4.2939   -1.0291   -0.6851 C.ar    1  UNL1       -0.0035
     26 C          -5.6366   -0.8973   -0.5438 C.ar    1  UNL1       -0.0521
     27 C          -6.4787   -1.9561   -0.8064 C.ar    1  UNL1       -0.0261
     28 C          -6.0029   -3.1873   -1.2214 C.ar    1  UNL1        0.1234
     29 F          -6.8475   -4.2399   -1.4818 F       1  UNL1       -0.2055
     30 C          -4.6290   -3.3075   -1.3614 C.ar    1  UNL1       -0.0261
     31 C          -3.7816   -2.2596   -1.1023 C.ar    1  UNL1       -0.0521
     32 O          -2.5508    0.1071   -1.6669 O.3     1  UNL1       -0.4383
     33 C          -1.4125    0.8764   -1.6681 C.2     1  UNL1        0.4042
     34 O          -1.0534    1.4991   -2.7057 O.2     1  UNL1       -0.2262
     35 H           0.3956    2.4600    1.7155 H       1  UNL1        0.0251
     36 H           1.0324    3.6638    0.5882 H       1  UNL1        0.0251
     37 H          -0.7921    3.3448    0.6380 H       1  UNL1        0.0251
     38 H           0.4407    2.4344   -1.3509 H       1  UNL1        0.0549
     39 H           2.4540    2.0142   -2.0331 H       1  UNL1        0.0621
     40 H           4.7258    1.0814   -1.8635 H       1  UNL1        0.0624
     41 H           6.0306    0.1456    2.1261 H       1  UNL1        0.0625
     42 H           8.3206   -0.7978    2.2751 H       1  UNL1        0.0646
     43 H           8.0361   -2.0042   -1.7590 H       1  UNL1        0.0675
     44 H           3.6863   -0.5922    1.8901 H       1  UNL1        0.0624
     45 H           1.4604    0.3479    1.7211 H       1  UNL1        0.0621
     46 H          -0.8254    0.7281    1.5977 H       1  UNL1        0.0467
     47 H          -0.2972   -0.7395    0.6967 H       1  UNL1        0.0467
     48 H          -2.3431   -1.5747    0.6039 H       1  UNL1        0.0323
     49 H          -2.8347   -0.2576    1.6624 H       1  UNL1        0.0323
     50 H          -4.3662    1.6968   -1.0556 H       1  UNL1        0.0401
     51 H          -2.9001    2.0698   -0.1544 H       1  UNL1        0.0401
     52 H          -5.5766    0.1236    2.1200 H       1  UNL1        0.1449
     53 H          -4.3089    0.9840    3.0239 H       1  UNL1        0.1449
     54 H          -6.0158    0.0731   -0.2261 H       1  UNL1        0.0622
     55 H          -7.5538   -1.7932   -0.6759 H       1  UNL1        0.0646
     56 H          -4.2601   -4.2832   -1.6864 H       1  UNL1        0.0646
     57 H          -2.7056   -2.4206   -1.2325 H       1  UNL1        0.0622
@<TRIPOS>BOND
     1     1     2    1
     2     2     3    1
     3     3     4   ar
     4     4     5   ar
     5     5     6   ar
     6     6     7    1
     7     7     8   ar
     8     8     9   ar
     9     9    10   ar
    10    10    11    1
    11    10    12   ar
    12    12    13   ar
    13    13    14    1
    14     6    15   ar
    15    15    16   ar
    16     2    17    1
    17    17    18    1
    18    18    19    1
    19    19    20    1
    20    20    21    1
    21    21    22    1
    22    22    23   am
    23    22    24    2
    24    20    25    1
    25    25    26   ar
    26    26    27   ar
    27    27    28   ar
    28    28    29    1
    29    28    30   ar
    30    30    31   ar
    31    20    32    1
    32    32    33    1
    33    33    34    2
    34    16     3   ar
    35    33    17   am
    36    13     7   ar
    37    31    25   ar
    38     1    35    1
    39     1    36    1
    40     1    37    1
    41     2    38    1
    42     4    39    1
    43     5    40    1
    44     8    41    1
    45     9    42    1
    46    12    43    1
    47    15    44    1
    48    16    45    1
    49    18    46    1
    50    18    47    1
    51    19    48    1
    52    19    49    1
    53    21    50    1
    54    21    51    1
    55    23    52    1
    56    23    53    1
    57    26    54    1
    58    27    55    1
    59    30    56    1
    60    31    57    1
