
     RDKit          3D

 57 60  0  0  0  0  0  0  0  0999 V2000
    0.2238    2.9123    0.7106 C   0  0  0  0  0  0  0  0  0  0  0  0
    0.4336    1.8651   -0.3779 C   0  0  1  0  0  0  0  0  0  0  0  0
    1.7676    1.2470   -0.1718 C   0  0  0  0  0  0  0  0  0  0  0  0
    2.7373    1.4328   -1.1645 C   0  0  0  0  0  0  0  0  0  0  0  0
    4.0086    0.9131   -1.0741 C   0  0  0  0  0  0  0  0  0  0  0  0
    4.3789    0.1636    0.0421 C   0  0  0  0  0  0  0  0  0  0  0  0
    5.7337   -0.3895    0.1121 C   0  0  0  0  0  0  0  0  0  0  0  0
    6.4831   -0.3337    1.2661 C   0  0  0  0  0  0  0  0  0  0  0  0
    7.7565   -0.8595    1.3444 C   0  0  0  0  0  0  0  0  0  0  0  0
    8.3312   -1.4688    0.2516 C   0  0  0  0  0  0  0  0  0  0  0  0
    9.5796   -1.9940    0.2979 F   0  0  0  0  0  0  0  0  0  0  0  0
    7.5973   -1.5342   -0.9111 C   0  0  0  0  0  0  0  0  0  0  0  0
    6.3113   -1.0027   -0.9892 C   0  0  0  0  0  0  0  0  0  0  0  0
    5.5783   -1.0513   -2.1108 F   0  0  0  0  0  0  0  0  0  0  0  0
    3.4459   -0.0227    1.0130 C   0  0  0  0  0  0  0  0  0  0  0  0
    2.1599    0.5115    0.9078 C   0  0  0  0  0  0  0  0  0  0  0  0
   -0.6612    0.9324   -0.4409 N   0  0  0  0  0  0  0  0  0  0  0  0
   -0.9906    0.1222    0.6846 C   0  0  0  0  0  0  0  0  0  0  0  0
   -2.3856   -0.4491    0.6810 C   0  0  0  0  0  0  0  0  0  0  0  0
   -3.2732    0.0173   -0.4147 C   0  0  2  0  0  0  0  0  0  0  0  0
   -3.7924    1.3701   -0.1519 C   0  0  0  0  0  0  0  0  0  0  0  0
   -4.5751    1.6407    1.0310 C   0  0  0  0  0  0  0  0  0  0  0  0
   -4.8455    0.8426    2.1531 N   0  0  0  0  0  0  0  0  0  0  0  0
   -5.1188    2.8241    1.0609 O   0  0  0  0  0  0  0  0  0  0  0  0
   -4.2939   -1.0291   -0.6851 C   0  0  0  0  0  0  0  0  0  0  0  0
   -5.6366   -0.8973   -0.5438 C   0  0  0  0  0  0  0  0  0  0  0  0
   -6.4787   -1.9561   -0.8064 C   0  0  0  0  0  0  0  0  0  0  0  0
   -6.0029   -3.1873   -1.2214 C   0  0  0  0  0  0  0  0  0  0  0  0
   -6.8475   -4.2399   -1.4818 F   0  0  0  0  0  0  0  0  0  0  0  0
   -4.6290   -3.3075   -1.3614 C   0  0  0  0  0  0  0  0  0  0  0  0
   -3.7816   -2.2596   -1.1023 C   0  0  0  0  0  0  0  0  0  0  0  0
   -2.5508    0.1071   -1.6669 O   0  0  0  0  0  0  0  0  0  0  0  0
   -1.4125    0.8764   -1.6681 C   0  0  0  0  0  0  0  0  0  0  0  0
   -1.0534    1.4991   -2.7057 O   0  0  0  0  0  0  0  0  0  0  0  0
    0.3956    2.4600    1.7155 H   0  0  0  0  0  0  0  0  0  0  0  0
    1.0324    3.6638    0.5882 H   0  0  0  0  0  0  0  0  0  0  0  0
   -0.7921    3.3448    0.6380 H   0  0  0  0  0  0  0  0  0  0  0  0
    0.4407    2.4344   -1.3509 H   0  0  0  0  0  0  0  0  0  0  0  0
    2.4540    2.0142   -2.0331 H   0  0  0  0  0  0  0  0  0  0  0  0
    4.7258    1.0814   -1.8635 H   0  0  0  0  0  0  0  0  0  0  0  0
    6.0306    0.1456    2.1261 H   0  0  0  0  0  0  0  0  0  0  0  0
    8.3206   -0.7978    2.2751 H   0  0  0  0  0  0  0  0  0  0  0  0
    8.0361   -2.0042   -1.7590 H   0  0  0  0  0  0  0  0  0  0  0  0
    3.6863   -0.5922    1.8901 H   0  0  0  0  0  0  0  0  0  0  0  0
    1.4604    0.3479    1.7211 H   0  0  0  0  0  0  0  0  0  0  0  0
   -0.8254    0.7281    1.5977 H   0  0  0  0  0  0  0  0  0  0  0  0
   -0.2972   -0.7395    0.6967 H   0  0  0  0  0  0  0  0  0  0  0  0
   -2.3431   -1.5747    0.6039 H   0  0  0  0  0  0  0  0  0  0  0  0
   -2.8347   -0.2576    1.6624 H   0  0  0  0  0  0  0  0  0  0  0  0
   -4.3662    1.6968   -1.0556 H   0  0  0  0  0  0  0  0  0  0  0  0
   -2.9001    2.0698   -0.1544 H   0  0  0  0  0  0  0  0  0  0  0  0
   -5.5766    0.1236    2.1200 H   0  0  0  0  0  0  0  0  0  0  0  0
   -4.3089    0.9840    3.0239 H   0  0  0  0  0  0  0  0  0  0  0  0
   -6.0158    0.0731   -0.2261 H   0  0  0  0  0  0  0  0  0  0  0  0
   -7.5538   -1.7932   -0.6759 H   0  0  0  0  0  0  0  0  0  0  0  0
   -4.2601   -4.2832   -1.6864 H   0  0  0  0  0  0  0  0  0  0  0  0
   -2.7056   -2.4206   -1.2325 H   0  0  0  0  0  0  0  0  0  0  0  0
  1  2  1  0
  2  3  1  0
  3  4  2  0
  4  5  1  0
  5  6  2  0
  6  7  1  0
  7  8  2  0
  8  9  1  0
  9 10  2  0
 10 11  1  0
 10 12  1  0
 12 13  2  0
 13 14  1  0
  6 15  1  0
 15 16  2  0
  2 17  1  0
 17 18  1  0
 18 19  1  0
 19 20  1  0
 20 21  1  1
 21 22  1  0
 22 23  1  0
 22 24  2  0
 20 25  1  0
 25 26  2  0
 26 27  1  0
 27 28  2  0
 28 29  1  0
 28 30  1  0
 30 31  2  0
 20 32  1  0
 32 33  1  0
 33 34  2  0
 16  3  1  0
 33 17  1  0
 13  7  1  0
 31 25  1  0
  1 35  1  0
  1 36  1  0
  1 37  1  0
  2 38  1  6
  4 39  1  0
  5 40  1  0
  8 41  1  0
  9 42  1  0
 12 43  1  0
 15 44  1  0
 16 45  1  0
 18 46  1  0
 18 47  1  0
 19 48  1  0
 19 49  1  0
 21 50  1  0
 21 51  1  0
 23 52  1  0
 23 53  1  0
 26 54  1  0
 27 55  1  0
 30 56  1  0
 31 57  1  0
M  END
$$$$
