@<TRIPOS>MOLECULE
*****
 34 36 0 0 0
SMALL
GASTEIGER

@<TRIPOS>ATOM
      1 C           5.2877    3.6051   -0.0936 C.1     1  UNL1       -0.1158
      2 C           4.6778    3.0087   -1.3921 C.1     1  UNL1       -0.0648
      3 C           4.2081    2.5399   -2.3887 C.3     1  UNL1        0.1496
      4 O           2.7032    2.2659   -2.1596 O.3     1  UNL1       -0.4793
      5 C           2.2805    1.2689   -1.3765 C.ar    1  UNL1        0.1289
      6 C           3.0118    0.3473   -0.6719 C.ar    1  UNL1        0.0225
      7 C           2.5338   -0.6718    0.0757 C.ar    1  UNL1        0.1347
      8 O           3.4378   -1.5772    0.7110 O.3     1  UNL1       -0.5058
      9 C           1.1516   -0.8095    0.1826 C.ar    1  UNL1        0.1055
     10 C           0.6229   -1.7651    0.9403 C.ar    1  UNL1        0.1966
     11 O           1.2356   -2.6590    1.6403 O.2     1  UNL1       -0.2869
     12 C          -0.7752   -1.8569    1.0808 C.ar    1  UNL1        0.0288
     13 C          -1.5685   -0.9066    0.4115 C.ar    1  UNL1        0.1392
     14 C          -2.9729   -0.9727    0.6585 C.ar    1  UNL1        0.0174
     15 C          -3.7797    0.0367    0.2251 C.ar    1  UNL1       -0.0511
     16 C          -5.1523   -0.0381    0.3433 C.ar    1  UNL1       -0.0611
     17 C          -5.7807   -1.1269    0.8952 C.ar    1  UNL1       -0.0617
     18 C          -4.9588   -2.1737    1.3617 C.ar    1  UNL1       -0.0611
     19 C          -3.5853   -2.1038    1.2536 C.ar    1  UNL1       -0.0511
     20 O          -0.9757   -0.0136   -0.3234 O.2     1  UNL1       -0.4544
     21 C           0.3380    0.1164   -0.4978 C.ar    1  UNL1        0.1462
     22 C           0.8514    1.1143   -1.2572 C.ar    1  UNL1        0.0234
     23 H           5.6861    3.9808    0.7614 H       1  UNL1        0.1229
     24 H           3.9453    3.3546   -3.2702 H       1  UNL1        0.0837
     25 H           4.5884    1.6957   -2.9753 H       1  UNL1        0.0837
     26 H           4.0995    0.5220   -0.6756 H       1  UNL1        0.0691
     27 H           4.1809   -1.0534    1.2948 H       1  UNL1        0.2922
     28 H          -1.1777   -2.6634    1.5631 H       1  UNL1        0.0693
     29 H          -3.3554    0.9169   -0.1873 H       1  UNL1        0.0625
     30 H          -5.7102    0.8579   -0.0273 H       1  UNL1        0.0618
     31 H          -6.8461   -1.1678    0.9469 H       1  UNL1        0.0618
     32 H          -5.4644   -3.0081    1.8651 H       1  UNL1        0.0618
     33 H          -3.0156   -2.8929    1.6959 H       1  UNL1        0.0625
     34 H           0.2780    1.8294   -1.8104 H       1  UNL1        0.0691
@<TRIPOS>BOND
     1     1     2    3
     2     2     3    1
     3     3     4    1
     4     4     5    1
     5     5     6   ar
     6     6     7   ar
     7     7     8    1
     8     7     9   ar
     9     9    10   ar
    10    10    11    2
    11    10    12   ar
    12    12    13   ar
    13    13    14    1
    14    14    15   ar
    15    15    16   ar
    16    16    17   ar
    17    17    18   ar
    18    18    19   ar
    19    13    20   ar
    20    20    21   ar
    21    21    22   ar
    22    22     5   ar
    23    21     9   ar
    24    19    14   ar
    25     1    23    1
    26     3    24    1
    27     3    25    1
    28     6    26    1
    29     8    27    1
    30    12    28    1
    31    15    29    1
    32    16    30    1
    33    17    31    1
    34    18    32    1
    35    19    33    1
    36    22    34    1
