@<TRIPOS>MOLECULE
*****
 25 25 0 0 0
SMALL
GASTEIGER

@<TRIPOS>ATOM
      1 C          -3.5341   -0.6857   -0.1507 C.3     1  UNL1       -0.0157
      2 N          -2.2462   -0.0919   -0.4463 N.3     1  UNL1       -0.3162
      3 C          -1.7389    0.6833    0.6586 C.3     1  UNL1        0.0258
      4 C          -0.3932    1.2537    0.2739 C.3     1  UNL1        0.0927
      5 O          -0.5174    2.0542   -0.8568 O.3     1  UNL1       -0.3859
      6 C           0.6745    0.2705    0.1213 C.ar    1  UNL1       -0.0145
      7 C           1.7988    0.8329   -0.4852 C.ar    1  UNL1       -0.0145
      8 C           2.9426    0.0626   -0.7219 C.ar    1  UNL1        0.1172
      9 O           4.0811    0.5701   -1.3185 O.3     1  UNL1       -0.5068
     10 C           2.9446   -1.2699   -0.3452 C.ar    1  UNL1       -0.0202
     11 C           1.8378   -1.8310    0.2541 C.ar    1  UNL1       -0.0580
     12 C           0.7386   -1.0489    0.4698 C.ar    1  UNL1       -0.0559
     13 H          -4.1967    0.1614    0.1632 H       1  UNL1        0.0388
     14 H          -3.9844   -1.1654   -1.0183 H       1  UNL1        0.0388
     15 H          -3.4491   -1.3562    0.7245 H       1  UNL1        0.0388
     16 H          -1.5654   -0.7477   -0.8437 H       1  UNL1        0.1217
     17 H          -2.4255    1.5326    0.8538 H       1  UNL1        0.0453
     18 H          -1.6921    0.1193    1.5988 H       1  UNL1        0.0453
     19 H          -0.0748    1.9626    1.0944 H       1  UNL1        0.0656
     20 H          -1.2413    1.7299   -1.4624 H       1  UNL1        0.2103
     21 H           1.9150    1.8589   -0.8221 H       1  UNL1        0.0658
     22 H           4.6620    1.2768   -0.8828 H       1  UNL1        0.2921
     23 H           3.8214   -1.8760   -0.5224 H       1  UNL1        0.0654
     24 H           1.7872   -2.8730    0.5695 H       1  UNL1        0.0619
     25 H          -0.1445   -1.4231    0.9323 H       1  UNL1        0.0621
@<TRIPOS>BOND
     1     1     2    1
     2     2     3    1
     3     3     4    1
     4     4     5    1
     5     4     6    1
     6     6     7   ar
     7     7     8   ar
     8     8     9    1
     9     8    10   ar
    10    10    11   ar
    11    11    12   ar
    12    12     6   ar
    13     1    13    1
    14     1    14    1
    15     1    15    1
    16     2    16    1
    17     3    17    1
    18     3    18    1
    19     4    19    1
    20     5    20    1
    21     7    21    1
    22     9    22    1
    23    10    23    1
    24    11    24    1
    25    12    25    1
