@<TRIPOS>MOLECULE
*****
 38 41 0 0 0
SMALL
GASTEIGER

@<TRIPOS>ATOM
      1 C          -6.7439   -0.0539    2.2672 C.3     1  UNL1        0.0596
      2 S          -6.2882   -0.6453    0.6727 S.O2    1  UNL1       -0.0058
      3 O          -6.1793   -2.1463    0.7281 O.2     1  UNL1       -0.1696
      4 O          -7.3653   -0.3299   -0.3494 O.2     1  UNL1       -0.1696
      5 C          -4.7718    0.0472    0.1449 C.ar    1  UNL1        0.0899
      6 C          -4.6812    1.2163   -0.5676 C.ar    1  UNL1       -0.0348
      7 C          -3.4613    1.7215   -0.9609 C.ar    1  UNL1       -0.0324
      8 C          -2.2879    1.0591   -0.6457 C.ar    1  UNL1        0.0896
      9 N          -0.9694    1.3110   -0.8932 N.ar    1  UNL1       -0.2277
     10 C          -0.2260    0.3298   -0.3544 C.ar    1  UNL1        0.1393
     11 C           1.2489    0.2161   -0.3925 C.ar    1  UNL1        0.0173
     12 C           2.0338    1.1388   -1.0065 C.ar    1  UNL1       -0.0505
     13 C           3.4049    1.0067   -1.0259 C.ar    1  UNL1       -0.0529
     14 C           4.0327   -0.0622   -0.4258 C.ar    1  UNL1       -0.0113
     15 C           5.4440   -0.2547   -0.4116 C.ar    1  UNL1        0.0193
     16 C           6.4996    0.4281   -0.9004 C.ar    1  UNL1       -0.0469
     17 C           7.7572    0.0162   -0.7426 C.ar    1  UNL1       -0.0541
     18 C           7.9577   -1.1662   -0.0430 C.ar    1  UNL1       -0.0237
     19 S           6.2715   -1.6798    0.3892 S.2     1  UNL1       -0.0967
     20 C           3.2170   -0.9878    0.1922 C.ar    1  UNL1       -0.0529
     21 C           1.8490   -0.8656    0.2174 C.ar    1  UNL1       -0.0505
     22 N          -1.0897   -0.5212    0.2219 N.ar    1  UNL1       -0.3378
     23 C          -2.3600   -0.1174    0.0700 C.ar    1  UNL1        0.0683
     24 C          -3.6018   -0.6035    0.4533 C.ar    1  UNL1       -0.0114
     25 H          -6.4657    0.9984    2.4434 H       1  UNL1        0.0468
     26 H          -7.8390   -0.1530    2.3711 H       1  UNL1        0.0468
     27 H          -6.2426   -0.6669    3.0672 H       1  UNL1        0.0468
     28 H          -5.6277    1.7126   -0.7988 H       1  UNL1        0.0637
     29 H          -3.4179    2.6441   -1.5212 H       1  UNL1        0.0640
     30 H           1.5435    1.9791   -1.4785 H       1  UNL1        0.0625
     31 H           4.0494    1.7204   -1.5035 H       1  UNL1        0.0624
     32 H           6.2675    1.3861   -1.4621 H       1  UNL1        0.0629
     33 H           8.6536    0.5484   -1.1289 H       1  UNL1        0.0623
     34 H           8.9043   -1.7271    0.2273 H       1  UNL1        0.0693
     35 H           3.6444   -1.8631    0.6900 H       1  UNL1        0.0624
     36 H           1.2294   -1.6235    0.7200 H       1  UNL1        0.0625
     37 H          -0.8050   -1.3852    0.7231 H       1  UNL1        0.1674
     38 H          -3.5847   -1.5332    1.0135 H       1  UNL1        0.0658
@<TRIPOS>BOND
     1     1     2    1
     2     2     3    2
     3     2     4    2
     4     2     5    1
     5     5     6   ar
     6     6     7   ar
     7     7     8   ar
     8     8     9   ar
     9     9    10   ar
    10    10    11    1
    11    11    12   ar
    12    12    13   ar
    13    13    14   ar
    14    14    15    1
    15    15    16   ar
    16    16    17   ar
    17    17    18   ar
    18    18    19   ar
    19    14    20   ar
    20    20    21   ar
    21    10    22   ar
    22    22    23   ar
    23    23    24   ar
    24    24     5   ar
    25    23     8   ar
    26    21    11   ar
    27    19    15   ar
    28     1    25    1
    29     1    26    1
    30     1    27    1
    31     6    28    1
    32     7    29    1
    33    12    30    1
    34    13    31    1
    35    16    32    1
    36    17    33    1
    37    18    34    1
    38    20    35    1
    39    21    36    1
    40    22    37    1
    41    24    38    1
