
     RDKit          3D

 38 41  0  0  0  0  0  0  0  0999 V2000
   -6.7439   -0.0539    2.2672 C   0  0  0  0  0  0  0  0  0  0  0  0
   -6.2882   -0.6453    0.6727 S   0  0  0  0  0  6  0  0  0  0  0  0
   -6.1793   -2.1463    0.7281 O   0  0  0  0  0  0  0  0  0  0  0  0
   -7.3653   -0.3299   -0.3494 O   0  0  0  0  0  0  0  0  0  0  0  0
   -4.7718    0.0472    0.1449 C   0  0  0  0  0  0  0  0  0  0  0  0
   -4.6812    1.2163   -0.5676 C   0  0  0  0  0  0  0  0  0  0  0  0
   -3.4613    1.7215   -0.9609 C   0  0  0  0  0  0  0  0  0  0  0  0
   -2.2879    1.0591   -0.6457 C   0  0  0  0  0  0  0  0  0  0  0  0
   -0.9694    1.3110   -0.8932 N   0  0  0  0  0  0  0  0  0  0  0  0
   -0.2260    0.3298   -0.3544 C   0  0  0  0  0  0  0  0  0  0  0  0
    1.2489    0.2161   -0.3925 C   0  0  0  0  0  0  0  0  0  0  0  0
    2.0338    1.1388   -1.0065 C   0  0  0  0  0  0  0  0  0  0  0  0
    3.4049    1.0067   -1.0259 C   0  0  0  0  0  0  0  0  0  0  0  0
    4.0327   -0.0622   -0.4258 C   0  0  0  0  0  0  0  0  0  0  0  0
    5.4440   -0.2547   -0.4116 C   0  0  0  0  0  0  0  0  0  0  0  0
    6.4996    0.4281   -0.9004 C   0  0  0  0  0  0  0  0  0  0  0  0
    7.7572    0.0162   -0.7426 C   0  0  0  0  0  0  0  0  0  0  0  0
    7.9577   -1.1662   -0.0430 C   0  0  0  0  0  0  0  0  0  0  0  0
    6.2715   -1.6798    0.3892 S   0  0  0  0  0  0  0  0  0  0  0  0
    3.2170   -0.9878    0.1922 C   0  0  0  0  0  0  0  0  0  0  0  0
    1.8490   -0.8656    0.2174 C   0  0  0  0  0  0  0  0  0  0  0  0
   -1.0897   -0.5212    0.2219 N   0  0  0  0  0  0  0  0  0  0  0  0
   -2.3600   -0.1174    0.0700 C   0  0  0  0  0  0  0  0  0  0  0  0
   -3.6018   -0.6035    0.4533 C   0  0  0  0  0  0  0  0  0  0  0  0
   -6.4657    0.9984    2.4434 H   0  0  0  0  0  0  0  0  0  0  0  0
   -7.8390   -0.1530    2.3711 H   0  0  0  0  0  0  0  0  0  0  0  0
   -6.2426   -0.6669    3.0672 H   0  0  0  0  0  0  0  0  0  0  0  0
   -5.6277    1.7126   -0.7988 H   0  0  0  0  0  0  0  0  0  0  0  0
   -3.4179    2.6441   -1.5212 H   0  0  0  0  0  0  0  0  0  0  0  0
    1.5435    1.9791   -1.4785 H   0  0  0  0  0  0  0  0  0  0  0  0
    4.0494    1.7204   -1.5035 H   0  0  0  0  0  0  0  0  0  0  0  0
    6.2675    1.3861   -1.4621 H   0  0  0  0  0  0  0  0  0  0  0  0
    8.6536    0.5484   -1.1289 H   0  0  0  0  0  0  0  0  0  0  0  0
    8.9043   -1.7271    0.2273 H   0  0  0  0  0  0  0  0  0  0  0  0
    3.6444   -1.8631    0.6900 H   0  0  0  0  0  0  0  0  0  0  0  0
    1.2294   -1.6235    0.7200 H   0  0  0  0  0  0  0  0  0  0  0  0
   -0.8050   -1.3852    0.7231 H   0  0  0  0  0  0  0  0  0  0  0  0
   -3.5847   -1.5332    1.0135 H   0  0  0  0  0  0  0  0  0  0  0  0
  1  2  1  0
  2  3  2  0
  2  4  2  0
  2  5  1  0
  5  6  2  0
  6  7  1  0
  7  8  2  0
  8  9  1  0
  9 10  2  0
 10 11  1  0
 11 12  2  0
 12 13  1  0
 13 14  2  0
 14 15  1  0
 15 16  2  0
 16 17  1  0
 17 18  2  0
 18 19  1  0
 14 20  1  0
 20 21  2  0
 10 22  1  0
 22 23  1  0
 23 24  2  0
 24  5  1  0
 23  8  1  0
 21 11  1  0
 19 15  1  0
  1 25  1  0
  1 26  1  0
  1 27  1  0
  6 28  1  0
  7 29  1  0
 12 30  1  0
 13 31  1  0
 16 32  1  0
 17 33  1  0
 18 34  1  0
 20 35  1  0
 21 36  1  0
 22 37  1  0
 24 38  1  0
M  END
$$$$
