
     RDKit          3D

 50 53  0  0  0  0  0  0  0  0999 V2000
    6.8511    0.2904   -0.1355 C   0  0  0  0  0  0  0  0  0  0  0  0
    6.1701   -0.8316    0.6516 C   0  0  0  0  0  0  0  0  0  0  0  0
    4.7982   -0.5307    0.7244 O   0  0  0  0  0  0  0  0  0  0  0  0
    3.8579   -1.3206    1.3627 C   0  0  0  0  0  0  0  0  0  0  0  0
    4.2171   -2.3893    1.9285 O   0  0  0  0  0  0  0  0  0  0  0  0
    2.5459   -0.7407    1.2598 N   0  0  0  0  0  0  0  0  0  0  0  0
    2.1000    0.4602    0.6318 C   0  0  0  0  0  0  0  0  0  0  0  0
    1.2240    0.1363   -0.5538 C   0  0  0  0  0  0  0  0  0  0  0  0
   -0.0918   -0.4147   -0.2006 C   0  0  0  0  0  0  0  0  0  0  0  0
    0.3361   -1.5476    0.6084 C   0  0  0  0  0  0  0  0  0  0  0  0
    1.3128   -1.1933    1.7525 C   0  0  0  0  0  0  0  0  0  0  0  0
   -1.3768   -0.0108   -0.3738 C   0  0  0  0  0  0  0  0  0  0  0  0
   -2.4510   -0.9072    0.1330 C   0  0  0  0  0  0  0  0  0  0  0  0
   -3.5231   -0.4774    0.9174 C   0  0  0  0  0  0  0  0  0  0  0  0
   -3.8164    0.9345    1.3563 C   0  0  0  0  0  0  0  0  0  0  0  0
   -4.0431    1.8357    0.1984 C   0  0  0  0  0  0  0  0  0  0  0  0
   -2.8742    2.0793   -0.6509 C   0  0  0  0  0  0  0  0  0  0  0  0
   -1.7185    1.3264   -0.9484 C   0  0  0  0  0  0  0  0  0  0  0  0
   -0.7391    1.6981   -1.7723 N   0  0  0  0  0  0  0  0  0  0  0  0
   -0.7631    2.8681   -2.4189 C   0  0  0  0  0  0  0  0  0  0  0  0
   -1.8846    3.6648   -2.1668 C   0  0  0  0  0  0  0  0  0  0  0  0
   -2.9235    3.3112   -1.3163 C   0  0  0  0  0  0  0  0  0  0  0  0
   -4.3994   -1.4791    1.2908 C   0  0  0  0  0  0  0  0  0  0  0  0
   -4.1745   -2.7579    0.8896 C   0  0  0  0  0  0  0  0  0  0  0  0
   -5.3352   -3.9934    1.4031 Cl  0  0  0  0  0  0  0  0  0  0  0  0
   -3.0889   -3.1555    0.1008 C   0  0  0  0  0  0  0  0  0  0  0  0
   -2.1733   -2.2029   -0.3082 C   0  0  0  0  0  0  0  0  0  0  0  0
    6.4053    0.4128   -1.1293 H   0  0  0  0  0  0  0  0  0  0  0  0
    7.9194    0.0151   -0.2580 H   0  0  0  0  0  0  0  0  0  0  0  0
    6.7083    1.2381    0.4178 H   0  0  0  0  0  0  0  0  0  0  0  0
    6.5595   -0.8048    1.6905 H   0  0  0  0  0  0  0  0  0  0  0  0
    6.3933   -1.8137    0.2259 H   0  0  0  0  0  0  0  0  0  0  0  0
    2.9976    0.9729    0.1806 H   0  0  0  0  0  0  0  0  0  0  0  0
    1.5625    1.1832    1.2710 H   0  0  0  0  0  0  0  0  0  0  0  0
    1.1994    1.0579   -1.1755 H   0  0  0  0  0  0  0  0  0  0  0  0
    1.8034   -0.6063   -1.2005 H   0  0  0  0  0  0  0  0  0  0  0  0
    0.8252   -2.3760    0.0840 H   0  0  0  0  0  0  0  0  0  0  0  0
   -0.5886   -1.9457    1.1565 H   0  0  0  0  0  0  0  0  0  0  0  0
    1.4767   -2.1811    2.2852 H   0  0  0  0  0  0  0  0  0  0  0  0
    0.8092   -0.5680    2.5195 H   0  0  0  0  0  0  0  0  0  0  0  0
   -4.6269    0.9100    2.0764 H   0  0  0  0  0  0  0  0  0  0  0  0
   -2.9159    1.3328    1.9028 H   0  0  0  0  0  0  0  0  0  0  0  0
   -4.4346    2.8134    0.5551 H   0  0  0  0  0  0  0  0  0  0  0  0
   -4.8507    1.4478   -0.4812 H   0  0  0  0  0  0  0  0  0  0  0  0
   -0.0677    3.3166   -3.1082 H   0  0  0  0  0  0  0  0  0  0  0  0
   -2.0091    4.6461   -2.6433 H   0  0  0  0  0  0  0  0  0  0  0  0
   -3.7642    3.9631   -1.1582 H   0  0  0  0  0  0  0  0  0  0  0  0
   -5.2265   -1.1474    1.8969 H   0  0  0  0  0  0  0  0  0  0  0  0
   -2.9138   -4.1590   -0.2133 H   0  0  0  0  0  0  0  0  0  0  0  0
   -1.2983   -2.3601   -0.9333 H   0  0  0  0  0  0  0  0  0  0  0  0
  1  2  1  0
  2  3  1  0
  3  4  1  0
  4  5  2  0
  4  6  1  0
  6  7  1  0
  7  8  1  0
  8  9  1  0
  9 10  1  0
 10 11  1  0
  9 12  2  3
 12 13  1  0
 13 14  2  0
 14 15  1  0
 15 16  1  0
 16 17  1  0
 17 18  2  0
 18 19  1  0
 19 20  2  0
 20 21  1  0
 21 22  2  0
 14 23  1  0
 23 24  2  0
 24 25  1  0
 24 26  1  0
 26 27  2  0
 11  6  1  0
 18 12  1  0
 27 13  1  0
 22 17  1  0
  1 28  1  0
  1 29  1  0
  1 30  1  0
  2 31  1  0
  2 32  1  0
  7 33  1  0
  7 34  1  0
  8 35  1  0
  8 36  1  0
 10 37  1  0
 10 38  1  0
 11 39  1  0
 11 40  1  0
 15 41  1  0
 15 42  1  0
 16 43  1  0
 16 44  1  0
 20 45  1  0
 21 46  1  0
 22 47  1  0
 23 48  1  0
 26 49  1  0
 27 50  1  0
M  END
$$$$
