@<TRIPOS>MOLECULE
*****
 42 45 0 0 0
SMALL
GASTEIGER

@<TRIPOS>ATOM
      1 C           5.0395   -1.7422   -0.7404 C.3     1  UNL1        0.0790
      2 O           4.0994   -0.7100   -0.5366 O.3     1  UNL1       -0.4914
      3 C           2.7611   -1.0317   -0.4465 C.ar    1  UNL1        0.1618
      4 C           2.3699   -2.3399   -0.5557 C.ar    1  UNL1       -0.0160
      5 C           1.0193   -2.6368   -0.4614 C.ar    1  UNL1       -0.0534
      6 C           0.0558   -1.6746   -0.2632 C.ar    1  UNL1       -0.0255
      7 C           0.5082   -0.3811   -0.1618 C.ar    1  UNL1        0.0158
      8 C           1.8306   -0.0152   -0.2453 C.ar    1  UNL1        0.1667
      9 O           1.9719    1.3490   -0.1054 O.3     1  UNL1       -0.4836
     10 C           0.7697    1.9109    0.4162 C.3     1  UNL1        0.1161
     11 C           0.6001    3.2346   -0.2599 C.3     1  UNL1        0.0151
     12 C          -0.8778    3.5465   -0.4279 C.3     1  UNL1        0.0768
     13 O          -1.0047    4.8219   -0.9924 O.3     1  UNL1       -0.3876
     14 C          -1.3760    2.4993   -1.3645 C.2     1  UNL1       -0.0588
     15 C          -1.0618    1.2347   -1.1241 C.2     1  UNL1       -0.0715
     16 C          -0.2427    0.8997    0.0464 C.3     1  UNL1        0.0558
     17 C          -1.1906    0.5755    1.2099 C.3     1  UNL1       -0.0235
     18 C          -2.3049   -0.2452    0.6696 C.3     1  UNL1        0.0001
     19 N          -2.1595   -1.6619    0.7534 N.3     1  UNL1       -0.3011
     20 C          -3.4664   -2.2642    0.7022 C.3     1  UNL1       -0.0124
     21 C          -1.2875   -2.2765   -0.1963 C.3     1  UNL1        0.0242
     22 H           5.0609   -2.0946   -1.7815 H       1  UNL1        0.0660
     23 H           4.9350   -2.5685    0.0024 H       1  UNL1        0.0660
     24 H           6.0581   -1.3085   -0.5457 H       1  UNL1        0.0660
     25 H           3.1123   -3.1381   -0.7148 H       1  UNL1        0.0655
     26 H           0.7472   -3.6797   -0.5522 H       1  UNL1        0.0622
     27 H           0.8522    2.0623    1.5171 H       1  UNL1        0.0746
     28 H           1.1260    4.0533    0.2794 H       1  UNL1        0.0329
     29 H           1.0262    3.1561   -1.3049 H       1  UNL1        0.0329
     30 H          -1.3641    3.5594    0.5423 H       1  UNL1        0.0639
     31 H          -1.8987    4.9587   -1.3968 H       1  UNL1        0.2102
     32 H          -1.9931    2.7476   -2.2436 H       1  UNL1        0.0595
     33 H          -1.4224    0.4503   -1.8319 H       1  UNL1        0.0580
     34 H          -1.5283    1.5094    1.6839 H       1  UNL1        0.0290
     35 H          -0.5893   -0.0297    1.9285 H       1  UNL1        0.0290
     36 H          -2.6534    0.0261   -0.3413 H       1  UNL1        0.0427
     37 H          -3.2005   -0.0061    1.3379 H       1  UNL1        0.0427
     38 H          -4.1830   -1.6450    1.2857 H       1  UNL1        0.0391
     39 H          -3.4341   -3.3191    1.0444 H       1  UNL1        0.0391
     40 H          -3.7737   -2.2908   -0.3691 H       1  UNL1        0.0391
     41 H          -1.1837   -3.3614    0.0026 H       1  UNL1        0.0476
     42 H          -1.7470   -2.1745   -1.2026 H       1  UNL1        0.0476
@<TRIPOS>BOND
     1     1     2    1
     2     2     3    1
     3     3     4   ar
     4     4     5   ar
     5     5     6   ar
     6     6     7   ar
     7     7     8   ar
     8     8     9    1
     9     9    10    1
    10    10    11    1
    11    11    12    1
    12    12    13    1
    13    12    14    1
    14    14    15    2
    15    15    16    1
    16    16    17    1
    17    17    18    1
    18    18    19    1
    19    19    20    1
    20    19    21    1
    21     8     3   ar
    22    16    10    1
    23    21     6    1
    24    16     7    1
    25     1    22    1
    26     1    23    1
    27     1    24    1
    28     4    25    1
    29     5    26    1
    30    10    27    1
    31    11    28    1
    32    11    29    1
    33    12    30    1
    34    13    31    1
    35    14    32    1
    36    15    33    1
    37    17    34    1
    38    17    35    1
    39    18    36    1
    40    18    37    1
    41    20    38    1
    42    20    39    1
    43    20    40    1
    44    21    41    1
    45    21    42    1
