
     RDKit          3D

 42 45  0  0  0  0  0  0  0  0999 V2000
    5.0395   -1.7422   -0.7404 C   0  0  0  0  0  0  0  0  0  0  0  0
    4.0994   -0.7100   -0.5366 O   0  0  0  0  0  0  0  0  0  0  0  0
    2.7611   -1.0317   -0.4465 C   0  0  0  0  0  0  0  0  0  0  0  0
    2.3699   -2.3399   -0.5557 C   0  0  0  0  0  0  0  0  0  0  0  0
    1.0193   -2.6368   -0.4614 C   0  0  0  0  0  0  0  0  0  0  0  0
    0.0558   -1.6746   -0.2632 C   0  0  0  0  0  0  0  0  0  0  0  0
    0.5082   -0.3811   -0.1618 C   0  0  0  0  0  0  0  0  0  0  0  0
    1.8306   -0.0152   -0.2453 C   0  0  0  0  0  0  0  0  0  0  0  0
    1.9719    1.3490   -0.1054 O   0  0  0  0  0  0  0  0  0  0  0  0
    0.7697    1.9109    0.4162 C   0  0  1  0  0  0  0  0  0  0  0  0
    0.6001    3.2346   -0.2599 C   0  0  0  0  0  0  0  0  0  0  0  0
   -0.8778    3.5465   -0.4279 C   0  0  1  0  0  0  0  0  0  0  0  0
   -1.0047    4.8219   -0.9924 O   0  0  0  0  0  0  0  0  0  0  0  0
   -1.3760    2.4993   -1.3645 C   0  0  0  0  0  0  0  0  0  0  0  0
   -1.0618    1.2347   -1.1241 C   0  0  0  0  0  0  0  0  0  0  0  0
   -0.2427    0.8997    0.0464 C   0  0  1  0  0  0  0  0  0  0  0  0
   -1.1906    0.5755    1.2099 C   0  0  0  0  0  0  0  0  0  0  0  0
   -2.3049   -0.2452    0.6696 C   0  0  0  0  0  0  0  0  0  0  0  0
   -2.1595   -1.6619    0.7534 N   0  0  0  0  0  0  0  0  0  0  0  0
   -3.4664   -2.2642    0.7022 C   0  0  0  0  0  0  0  0  0  0  0  0
   -1.2875   -2.2765   -0.1963 C   0  0  0  0  0  0  0  0  0  0  0  0
    5.0609   -2.0946   -1.7815 H   0  0  0  0  0  0  0  0  0  0  0  0
    4.9350   -2.5685    0.0024 H   0  0  0  0  0  0  0  0  0  0  0  0
    6.0581   -1.3085   -0.5457 H   0  0  0  0  0  0  0  0  0  0  0  0
    3.1123   -3.1381   -0.7148 H   0  0  0  0  0  0  0  0  0  0  0  0
    0.7472   -3.6797   -0.5522 H   0  0  0  0  0  0  0  0  0  0  0  0
    0.8522    2.0623    1.5171 H   0  0  0  0  0  0  0  0  0  0  0  0
    1.1260    4.0533    0.2794 H   0  0  0  0  0  0  0  0  0  0  0  0
    1.0262    3.1561   -1.3049 H   0  0  0  0  0  0  0  0  0  0  0  0
   -1.3641    3.5594    0.5423 H   0  0  0  0  0  0  0  0  0  0  0  0
   -1.8987    4.9587   -1.3968 H   0  0  0  0  0  0  0  0  0  0  0  0
   -1.9931    2.7476   -2.2436 H   0  0  0  0  0  0  0  0  0  0  0  0
   -1.4224    0.4503   -1.8319 H   0  0  0  0  0  0  0  0  0  0  0  0
   -1.5283    1.5094    1.6839 H   0  0  0  0  0  0  0  0  0  0  0  0
   -0.5893   -0.0297    1.9285 H   0  0  0  0  0  0  0  0  0  0  0  0
   -2.6534    0.0261   -0.3413 H   0  0  0  0  0  0  0  0  0  0  0  0
   -3.2005   -0.0061    1.3379 H   0  0  0  0  0  0  0  0  0  0  0  0
   -4.1830   -1.6450    1.2857 H   0  0  0  0  0  0  0  0  0  0  0  0
   -3.4341   -3.3191    1.0444 H   0  0  0  0  0  0  0  0  0  0  0  0
   -3.7737   -2.2908   -0.3691 H   0  0  0  0  0  0  0  0  0  0  0  0
   -1.1837   -3.3614    0.0026 H   0  0  0  0  0  0  0  0  0  0  0  0
   -1.7470   -2.1745   -1.2026 H   0  0  0  0  0  0  0  0  0  0  0  0
  1  2  1  0
  2  3  1  0
  3  4  2  0
  4  5  1  0
  5  6  2  0
  6  7  1  0
  7  8  2  0
  8  9  1  0
  9 10  1  0
 10 11  1  0
 11 12  1  0
 12 13  1  0
 12 14  1  0
 14 15  2  0
 15 16  1  0
 16 17  1  1
 17 18  1  0
 18 19  1  0
 19 20  1  0
 19 21  1  0
  8  3  1  0
 16 10  1  0
 21  6  1  0
 16  7  1  0
  1 22  1  0
  1 23  1  0
  1 24  1  0
  4 25  1  0
  5 26  1  0
 10 27  1  1
 11 28  1  0
 11 29  1  0
 12 30  1  1
 13 31  1  0
 14 32  1  0
 15 33  1  0
 17 34  1  0
 17 35  1  0
 18 36  1  0
 18 37  1  0
 20 38  1  0
 20 39  1  0
 20 40  1  0
 21 41  1  0
 21 42  1  0
M  END
$$$$
