@<TRIPOS>MOLECULE
*****
 44 43 0 0 0
SMALL
GASTEIGER

@<TRIPOS>ATOM
      1 C           6.2012    1.4248    1.8281 C.3     1  UNL1       -0.0416
      2 C           5.1020    0.7497    0.9990 C.3     1  UNL1        0.0449
      3 O           5.7044    0.1144   -0.0394 O.3     1  UNL1       -0.3778
      4 C           4.9461   -0.5681   -0.9160 C.3     1  UNL1        0.0710
      5 C           3.9189    0.2152   -1.6675 C.3     1  UNL1        0.0711
      6 O           2.9413    0.8272   -0.9592 O.3     1  UNL1       -0.3752
      7 C           2.1070   -0.0289   -0.2819 C.3     1  UNL1        0.0711
      8 C           1.3332   -0.9891   -1.1379 C.3     1  UNL1        0.0711
      9 O           0.5382   -0.3442   -2.0313 O.3     1  UNL1       -0.3752
     10 C          -0.3706    0.4886   -1.4468 C.3     1  UNL1        0.0711
     11 C          -1.3264   -0.2303   -0.4875 C.3     1  UNL1        0.0711
     12 O          -2.2265    0.6795    0.0619 O.3     1  UNL1       -0.3752
     13 C          -3.0762    0.0621    0.9452 C.3     1  UNL1        0.0711
     14 C          -3.9354   -1.0252    0.4098 C.3     1  UNL1        0.0711
     15 O          -4.7820   -0.6310   -0.6050 O.3     1  UNL1       -0.3752
     16 C          -5.6680    0.3460   -0.2763 C.3     1  UNL1        0.0708
     17 C          -6.6253    0.0303    0.8399 C.3     1  UNL1        0.0676
     18 O          -7.4239   -1.0900    0.5339 O.3     1  UNL1       -0.3927
     19 H           6.7353    2.0891    1.1253 H       1  UNL1        0.0252
     20 H           5.6756    1.9716    2.6300 H       1  UNL1        0.0252
     21 H           6.8217    0.6062    2.2153 H       1  UNL1        0.0252
     22 H           4.5881    0.0242    1.6954 H       1  UNL1        0.0557
     23 H           4.3504    1.4868    0.7015 H       1  UNL1        0.0557
     24 H           5.5670   -1.2033   -1.6206 H       1  UNL1        0.0583
     25 H           4.3992   -1.3709   -0.3205 H       1  UNL1        0.0583
     26 H           4.5051    0.9641   -2.2782 H       1  UNL1        0.0583
     27 H           3.4638   -0.4672   -2.4418 H       1  UNL1        0.0583
     28 H           2.6676   -0.6349    0.4894 H       1  UNL1        0.0583
     29 H           1.3885    0.5965    0.3238 H       1  UNL1        0.0583
     30 H           2.0468   -1.6474   -1.7102 H       1  UNL1        0.0583
     31 H           0.7797   -1.6645   -0.4281 H       1  UNL1        0.0583
     32 H          -1.0698    0.9412   -2.2238 H       1  UNL1        0.0583
     33 H           0.0537    1.3797   -0.9274 H       1  UNL1        0.0583
     34 H          -0.7153   -0.6374    0.3292 H       1  UNL1        0.0583
     35 H          -1.9157   -0.9806   -1.0512 H       1  UNL1        0.0583
     36 H          -3.6502    0.8725    1.4500 H       1  UNL1        0.0583
     37 H          -2.4296   -0.4112    1.7463 H       1  UNL1        0.0583
     38 H          -3.3166   -1.8597    0.0390 H       1  UNL1        0.0583
     39 H          -4.4891   -1.4557    1.2790 H       1  UNL1        0.0583
     40 H          -6.2730    0.5784   -1.1719 H       1  UNL1        0.0583
     41 H          -5.1399    1.2740    0.0101 H       1  UNL1        0.0583
     42 H          -7.3486    0.8806    0.8553 H       1  UNL1        0.0580
     43 H          -6.1733   -0.0315    1.8363 H       1  UNL1        0.0580
     44 H          -7.8794   -1.3317    1.3692 H       1  UNL1        0.2095
@<TRIPOS>BOND
     1     1     2    1
     2     2     3    1
     3     3     4    1
     4     4     5    1
     5     5     6    1
     6     6     7    1
     7     7     8    1
     8     8     9    1
     9     9    10    1
    10    10    11    1
    11    11    12    1
    12    12    13    1
    13    13    14    1
    14    14    15    1
    15    15    16    1
    16    16    17    1
    17    17    18    1
    18     1    19    1
    19     1    20    1
    20     1    21    1
    21     2    22    1
    22     2    23    1
    23     4    24    1
    24     4    25    1
    25     5    26    1
    26     5    27    1
    27     7    28    1
    28     7    29    1
    29     8    30    1
    30     8    31    1
    31    10    32    1
    32    10    33    1
    33    11    34    1
    34    11    35    1
    35    13    36    1
    36    13    37    1
    37    14    38    1
    38    14    39    1
    39    16    40    1
    40    16    41    1
    41    17    42    1
    42    17    43    1
    43    18    44    1
