
     RDKit          3D

 44 43  0  0  0  0  0  0  0  0999 V2000
    6.2012    1.4248    1.8281 C   0  0  0  0  0  0  0  0  0  0  0  0
    5.1020    0.7497    0.9990 C   0  0  0  0  0  0  0  0  0  0  0  0
    5.7044    0.1144   -0.0394 O   0  0  0  0  0  0  0  0  0  0  0  0
    4.9461   -0.5681   -0.9160 C   0  0  0  0  0  0  0  0  0  0  0  0
    3.9189    0.2152   -1.6675 C   0  0  0  0  0  0  0  0  0  0  0  0
    2.9413    0.8272   -0.9592 O   0  0  0  0  0  0  0  0  0  0  0  0
    2.1070   -0.0289   -0.2819 C   0  0  0  0  0  0  0  0  0  0  0  0
    1.3332   -0.9891   -1.1379 C   0  0  0  0  0  0  0  0  0  0  0  0
    0.5382   -0.3442   -2.0313 O   0  0  0  0  0  0  0  0  0  0  0  0
   -0.3706    0.4886   -1.4468 C   0  0  0  0  0  0  0  0  0  0  0  0
   -1.3264   -0.2303   -0.4875 C   0  0  0  0  0  0  0  0  0  0  0  0
   -2.2265    0.6795    0.0619 O   0  0  0  0  0  0  0  0  0  0  0  0
   -3.0762    0.0621    0.9452 C   0  0  0  0  0  0  0  0  0  0  0  0
   -3.9354   -1.0252    0.4098 C   0  0  0  0  0  0  0  0  0  0  0  0
   -4.7820   -0.6310   -0.6050 O   0  0  0  0  0  0  0  0  0  0  0  0
   -5.6680    0.3460   -0.2763 C   0  0  0  0  0  0  0  0  0  0  0  0
   -6.6253    0.0303    0.8399 C   0  0  0  0  0  0  0  0  0  0  0  0
   -7.4239   -1.0900    0.5339 O   0  0  0  0  0  0  0  0  0  0  0  0
    6.7353    2.0891    1.1253 H   0  0  0  0  0  0  0  0  0  0  0  0
    5.6756    1.9716    2.6300 H   0  0  0  0  0  0  0  0  0  0  0  0
    6.8217    0.6062    2.2153 H   0  0  0  0  0  0  0  0  0  0  0  0
    4.5881    0.0242    1.6954 H   0  0  0  0  0  0  0  0  0  0  0  0
    4.3504    1.4868    0.7015 H   0  0  0  0  0  0  0  0  0  0  0  0
    5.5670   -1.2033   -1.6206 H   0  0  0  0  0  0  0  0  0  0  0  0
    4.3992   -1.3709   -0.3205 H   0  0  0  0  0  0  0  0  0  0  0  0
    4.5051    0.9641   -2.2782 H   0  0  0  0  0  0  0  0  0  0  0  0
    3.4638   -0.4672   -2.4418 H   0  0  0  0  0  0  0  0  0  0  0  0
    2.6676   -0.6349    0.4894 H   0  0  0  0  0  0  0  0  0  0  0  0
    1.3885    0.5965    0.3238 H   0  0  0  0  0  0  0  0  0  0  0  0
    2.0468   -1.6474   -1.7102 H   0  0  0  0  0  0  0  0  0  0  0  0
    0.7797   -1.6645   -0.4281 H   0  0  0  0  0  0  0  0  0  0  0  0
   -1.0698    0.9412   -2.2238 H   0  0  0  0  0  0  0  0  0  0  0  0
    0.0537    1.3797   -0.9274 H   0  0  0  0  0  0  0  0  0  0  0  0
   -0.7153   -0.6374    0.3292 H   0  0  0  0  0  0  0  0  0  0  0  0
   -1.9157   -0.9806   -1.0512 H   0  0  0  0  0  0  0  0  0  0  0  0
   -3.6502    0.8725    1.4500 H   0  0  0  0  0  0  0  0  0  0  0  0
   -2.4296   -0.4112    1.7463 H   0  0  0  0  0  0  0  0  0  0  0  0
   -3.3166   -1.8597    0.0390 H   0  0  0  0  0  0  0  0  0  0  0  0
   -4.4891   -1.4557    1.2790 H   0  0  0  0  0  0  0  0  0  0  0  0
   -6.2730    0.5784   -1.1719 H   0  0  0  0  0  0  0  0  0  0  0  0
   -5.1399    1.2740    0.0101 H   0  0  0  0  0  0  0  0  0  0  0  0
   -7.3486    0.8806    0.8553 H   0  0  0  0  0  0  0  0  0  0  0  0
   -6.1733   -0.0315    1.8363 H   0  0  0  0  0  0  0  0  0  0  0  0
   -7.8794   -1.3317    1.3692 H   0  0  0  0  0  0  0  0  0  0  0  0
  1  2  1  0
  2  3  1  0
  3  4  1  0
  4  5  1  0
  5  6  1  0
  6  7  1  0
  7  8  1  0
  8  9  1  0
  9 10  1  0
 10 11  1  0
 11 12  1  0
 12 13  1  0
 13 14  1  0
 14 15  1  0
 15 16  1  0
 16 17  1  0
 17 18  1  0
  1 19  1  0
  1 20  1  0
  1 21  1  0
  2 22  1  0
  2 23  1  0
  4 24  1  0
  4 25  1  0
  5 26  1  0
  5 27  1  0
  7 28  1  0
  7 29  1  0
  8 30  1  0
  8 31  1  0
 10 32  1  0
 10 33  1  0
 11 34  1  0
 11 35  1  0
 13 36  1  0
 13 37  1  0
 14 38  1  0
 14 39  1  0
 16 40  1  0
 16 41  1  0
 17 42  1  0
 17 43  1  0
 18 44  1  0
M  END
$$$$
