@<TRIPOS>MOLECULE
*****
 41 44 0 0 0
SMALL
GASTEIGER

@<TRIPOS>ATOM
      1 N          -5.2331   -2.0041    0.4939 N.1     1  UNL1       -0.1909
      2 C          -5.2199   -0.9803    0.3063 C.1     1  UNL1        0.0998
      3 C          -5.2268    0.5020    0.0391 C.ar    1  UNL1        0.0595
      4 C          -6.3752    1.2106    0.4110 C.ar    1  UNL1       -0.0438
      5 C          -6.4709    2.5545    0.2483 C.ar    1  UNL1       -0.0605
      6 C          -5.3966    3.2464   -0.3079 C.ar    1  UNL1       -0.0611
      7 C          -4.2991    2.5243   -0.6588 C.ar    1  UNL1       -0.0528
      8 C          -4.1712    1.1192   -0.4992 C.ar    1  UNL1       -0.0005
      9 C          -2.9333    0.5050   -0.9467 C.ar    1  UNL1       -0.0166
     10 C          -2.1835   -0.3224   -0.1672 C.ar    1  UNL1       -0.0537
     11 C          -0.9803   -0.8667   -0.6797 C.ar    1  UNL1       -0.0572
     12 C          -0.5662   -0.5754   -1.9328 C.ar    1  UNL1       -0.0370
     13 C           0.6903   -1.0729   -2.5681 C.3     1  UNL1        0.0278
     14 S           2.0311    0.0800   -2.3450 S.3     1  UNL1       -0.0609
     15 C           2.7431    0.0983   -0.7408 C.ar    1  UNL1        0.2779
     16 N           2.3551    0.8054    0.3420 N.ar    1  UNL1       -0.1006
     17 N           3.1762    0.5421    1.3843 N.ar    1  UNL1       -0.1065
     18 C           4.0689   -0.3410    0.9021 C.ar    1  UNL1        0.2493
     19 C           5.1989   -0.9445    1.6565 C.ar    1  UNL1        0.0414
     20 C           6.0389   -1.8299    1.0299 C.ar    1  UNL1       -0.0313
     21 C           7.1121   -2.4071    1.6188 C.ar    1  UNL1        0.0283
     22 N           7.3424   -2.0652    2.9183 N.ar    1  UNL1       -0.2632
     23 C           6.5531   -1.2063    3.5811 C.ar    1  UNL1        0.0283
     24 C           5.4548   -0.6175    2.9745 C.ar    1  UNL1       -0.0313
     25 O           3.8033   -0.5863   -0.3268 O.2     1  UNL1       -0.4110
     26 C          -1.3317    0.2716   -2.7413 C.ar    1  UNL1       -0.0572
     27 C          -2.4858    0.7860   -2.2321 C.ar    1  UNL1       -0.0537
     28 H          -7.2341    0.6772    0.8446 H       1  UNL1        0.0631
     29 H          -7.3456    3.1578    0.5220 H       1  UNL1        0.0618
     30 H          -5.4272    4.3154   -0.4510 H       1  UNL1        0.0618
     31 H          -3.4398    3.0234   -1.0844 H       1  UNL1        0.0624
     32 H          -2.4476   -0.5916    0.8283 H       1  UNL1        0.0624
     33 H          -0.3761   -1.5363   -0.0500 H       1  UNL1        0.0621
     34 H           0.9405   -2.0735   -2.1112 H       1  UNL1        0.0430
     35 H           0.4849   -1.2075   -3.6629 H       1  UNL1        0.0430
     36 H           5.8180   -2.0895   -0.0171 H       1  UNL1        0.0640
     37 H           7.7947   -3.1132    1.1273 H       1  UNL1        0.0830
     38 H           6.8034   -0.9825    4.6261 H       1  UNL1        0.0830
     39 H           4.8169    0.0673    3.4865 H       1  UNL1        0.0640
     40 H          -0.9715    0.4811   -3.7297 H       1  UNL1        0.0621
     41 H          -3.1108    1.4458   -2.8323 H       1  UNL1        0.0624
@<TRIPOS>BOND
     1     1     2    3
     2     2     3    1
     3     3     4   ar
     4     4     5   ar
     5     5     6   ar
     6     6     7   ar
     7     7     8   ar
     8     8     9    1
     9     9    10   ar
    10    10    11   ar
    11    11    12   ar
    12    12    13    1
    13    13    14    1
    14    14    15    1
    15    15    16   ar
    16    16    17   ar
    17    17    18   ar
    18    18    19    1
    19    19    20   ar
    20    20    21   ar
    21    21    22   ar
    22    22    23   ar
    23    23    24   ar
    24    18    25   ar
    25    12    26   ar
    26    26    27   ar
    27     8     3   ar
    28    27     9   ar
    29    25    15   ar
    30    24    19   ar
    31     4    28    1
    32     5    29    1
    33     6    30    1
    34     7    31    1
    35    10    32    1
    36    11    33    1
    37    13    34    1
    38    13    35    1
    39    20    36    1
    40    21    37    1
    41    23    38    1
    42    24    39    1
    43    26    40    1
    44    27    41    1
