
     RDKit          3D

 58 62  0  0  0  0  0  0  0  0999 V2000
   -1.7753   -0.4889   -3.8780 C   0  0  0  0  0  0  0  0  0  0  0  0
   -2.2387   -0.4174   -2.4396 C   0  0  1  0  0  0  0  0  0  0  0  0
   -2.4769    0.9208   -2.1219 O   0  0  0  0  0  0  0  0  0  0  0  0
   -1.7811    1.6706   -1.2024 C   0  0  0  0  0  0  0  0  0  0  0  0
   -0.7628    1.1402   -0.5024 N   0  0  0  0  0  0  0  0  0  0  0  0
   -0.0620    1.8560    0.4081 C   0  0  0  0  0  0  0  0  0  0  0  0
    1.0359    1.2496    1.1505 C   0  0  0  0  0  0  0  0  0  0  0  0
    1.8413    1.8341    2.1015 C   0  0  0  0  0  0  0  0  0  0  0  0
    2.7324    0.9241    2.5405 N   0  0  0  0  0  0  0  0  0  0  0  0
    2.5193   -0.2216    1.8986 N   0  0  0  0  0  0  0  0  0  0  0  0
    3.2957   -1.4265    2.1191 C   0  0  0  0  0  0  0  0  0  0  0  0
    4.2316   -1.5842    0.9535 C   0  0  0  0  0  0  0  0  0  0  0  0
    5.4156   -2.4475    1.2384 C   0  0  0  0  0  0  0  0  0  0  0  0
    5.1978   -3.2841    2.4803 C   0  0  0  0  0  0  0  0  0  0  0  0
    6.3147   -4.0753    2.6620 F   0  0  0  0  0  0  0  0  0  0  0  0
    4.0615   -4.0417    2.3769 F   0  0  0  0  0  0  0  0  0  0  0  0
    5.0843   -2.3113    3.6461 C   0  0  0  0  0  0  0  0  0  0  0  0
    3.9777   -1.3281    3.4375 C   0  0  0  0  0  0  0  0  0  0  0  0
    1.4864   -0.0455    1.0436 C   0  0  0  0  0  0  0  0  0  0  0  0
   -0.4418    3.1690    0.5894 C   0  0  0  0  0  0  0  0  0  0  0  0
   -1.4775    3.7721   -0.0973 C   0  0  0  0  0  0  0  0  0  0  0  0
   -2.0459    4.9772   -0.1272 N   0  0  0  0  0  0  0  0  0  0  0  0
   -3.0410    5.0367   -0.9932 N   0  0  0  0  0  0  0  0  0  0  0  0
   -3.8942    6.1942   -1.2966 C   0  0  0  0  0  0  0  0  0  0  0  0
   -3.1178    3.8140   -1.5471 C   0  0  0  0  0  0  0  0  0  0  0  0
   -2.1529    2.9860   -1.0130 C   0  0  0  0  0  0  0  0  0  0  0  0
   -3.4172   -1.3120   -2.1767 C   0  0  1  0  0  0  0  0  0  0  0  0
   -3.0277   -2.7406   -2.4804 C   0  0  0  0  0  0  0  0  0  0  0  0
   -3.7767   -3.5416   -1.5024 N   0  0  0  0  0  0  0  0  0  0  0  0
   -4.3365   -2.6839   -0.5128 C   0  0  0  0  0  0  0  0  0  0  0  0
   -5.2314   -3.0196    0.2830 O   0  0  0  0  0  0  0  0  0  0  0  0
   -3.6258   -1.3788   -0.6665 C   0  0  0  0  0  0  0  0  0  0  0  0
   -1.8079   -1.5323   -4.2547 H   0  0  0  0  0  0  0  0  0  0  0  0
   -2.3299    0.2159   -4.5308 H   0  0  0  0  0  0  0  0  0  0  0  0
   -0.7108   -0.1777   -3.9023 H   0  0  0  0  0  0  0  0  0  0  0  0
   -1.3915   -0.7792   -1.8211 H   0  0  0  0  0  0  0  0  0  0  0  0
    1.8073    2.8486    2.4708 H   0  0  0  0  0  0  0  0  0  0  0  0
    2.5463   -2.2654    2.0806 H   0  0  0  0  0  0  0  0  0  0  0  0
    3.6514   -2.0586    0.1244 H   0  0  0  0  0  0  0  0  0  0  0  0
    4.5135   -0.5691    0.5507 H   0  0  0  0  0  0  0  0  0  0  0  0
    6.2816   -1.7704    1.4774 H   0  0  0  0  0  0  0  0  0  0  0  0
    5.7592   -3.0497    0.3709 H   0  0  0  0  0  0  0  0  0  0  0  0
    6.0500   -1.7303    3.6411 H   0  0  0  0  0  0  0  0  0  0  0  0
    5.0555   -2.8277    4.6197 H   0  0  0  0  0  0  0  0  0  0  0  0
    3.2013   -1.5529    4.2274 H   0  0  0  0  0  0  0  0  0  0  0  0
    4.3092   -0.2910    3.6721 H   0  0  0  0  0  0  0  0  0  0  0  0
    1.1205   -0.8278    0.4081 H   0  0  0  0  0  0  0  0  0  0  0  0
    0.1002    3.7604    1.3083 H   0  0  0  0  0  0  0  0  0  0  0  0
   -4.7747    6.1909   -0.6190 H   0  0  0  0  0  0  0  0  0  0  0  0
   -3.3451    7.1379   -1.0782 H   0  0  0  0  0  0  0  0  0  0  0  0
   -4.2773    6.1479   -2.3247 H   0  0  0  0  0  0  0  0  0  0  0  0
   -3.8475    3.5575   -2.3012 H   0  0  0  0  0  0  0  0  0  0  0  0
   -4.3345   -1.0088   -2.6803 H   0  0  0  0  0  0  0  0  0  0  0  0
   -3.3878   -3.0653   -3.4813 H   0  0  0  0  0  0  0  0  0  0  0  0
   -1.9691   -2.9351   -2.3002 H   0  0  0  0  0  0  0  0  0  0  0  0
   -3.8379   -4.5767   -1.5946 H   0  0  0  0  0  0  0  0  0  0  0  0
   -2.6552   -1.4831   -0.1467 H   0  0  0  0  0  0  0  0  0  0  0  0
   -4.2377   -0.5541   -0.2881 H   0  0  0  0  0  0  0  0  0  0  0  0
  1  2  1  0
  2  3  1  0
  3  4  1  0
  4  5  2  0
  5  6  1  0
  6  7  1  0
  7  8  1  0
  8  9  2  0
  9 10  1  0
 10 11  1  0
 11 12  1  0
 12 13  1  0
 13 14  1  0
 14 15  1  0
 14 16  1  0
 14 17  1  0
 17 18  1  0
 10 19  1  0
  6 20  2  0
 20 21  1  0
 21 22  2  0
 22 23  1  0
 23 24  1  0
 23 25  1  0
 25 26  2  0
  2 27  1  0
 27 28  1  0
 28 29  1  0
 29 30  1  0
 30 31  2  0
 30 32  1  0
 26  4  1  0
 32 27  1  0
 19  7  2  0
 26 21  1  0
 18 11  1  0
  1 33  1  0
  1 34  1  0
  1 35  1  0
  2 36  1  1
  8 37  1  0
 11 38  1  0
 12 39  1  0
 12 40  1  0
 13 41  1  0
 13 42  1  0
 17 43  1  0
 17 44  1  0
 18 45  1  0
 18 46  1  0
 19 47  1  0
 20 48  1  0
 24 49  1  0
 24 50  1  0
 24 51  1  0
 25 52  1  0
 27 53  1  6
 28 54  1  0
 28 55  1  0
 29 56  1  0
 32 57  1  0
 32 58  1  0
M  END
$$$$
