@<TRIPOS>MOLECULE
*****
 58 62 0 0 0
SMALL
GASTEIGER

@<TRIPOS>ATOM
      1 C          -1.7753   -0.4889   -3.8780 C.3     1  UNL1       -0.0274
      2 C          -2.2387   -0.4174   -2.4396 C.3     1  UNL1        0.1037
      3 O          -2.4769    0.9208   -2.1219 O.3     1  UNL1       -0.4725
      4 C          -1.7811    1.6706   -1.2024 C.ar    1  UNL1        0.2265
      5 N          -0.7628    1.1402   -0.5024 N.ar    1  UNL1       -0.2121
      6 C          -0.0620    1.8560    0.4081 C.ar    1  UNL1        0.0798
      7 C           1.0359    1.2496    1.1505 C.ar    1  UNL1        0.0380
      8 C           1.8413    1.8341    2.1015 C.ar    1  UNL1        0.0586
      9 N           2.7324    0.9241    2.5405 N.ar    1  UNL1       -0.1787
     10 N           2.5193   -0.2216    1.8986 N.ar    1  UNL1       -0.2678
     11 C           3.2957   -1.4265    2.1191 C.3     1  UNL1        0.0530
     12 C           4.2316   -1.5842    0.9535 C.3     1  UNL1       -0.0251
     13 C           5.4156   -2.4475    1.2384 C.3     1  UNL1        0.0127
     14 C           5.1978   -3.2841    2.4803 C.3     1  UNL1        0.2491
     15 F           6.3147   -4.0753    2.6620 F       1  UNL1       -0.2057
     16 F           4.0615   -4.0417    2.3769 F       1  UNL1       -0.2057
     17 C           5.0843   -2.3113    3.6461 C.3     1  UNL1        0.0127
     18 C           3.9777   -1.3281    3.4375 C.3     1  UNL1       -0.0251
     19 C           1.4864   -0.0455    1.0436 C.ar    1  UNL1        0.0350
     20 C          -0.4418    3.1690    0.5894 C.ar    1  UNL1       -0.0076
     21 C          -1.4775    3.7721   -0.0973 C.ar    1  UNL1        0.0999
     22 N          -2.0459    4.9772   -0.1272 N.ar    1  UNL1       -0.1712
     23 N          -3.0410    5.0367   -0.9932 N.ar    1  UNL1       -0.2732
     24 C          -3.8942    6.1942   -1.2966 C.3     1  UNL1        0.0302
     25 C          -3.1178    3.8140   -1.5471 C.ar    1  UNL1        0.0380
     26 C          -2.1529    2.9860   -1.0130 C.ar    1  UNL1        0.0812
     27 C          -3.4172   -1.3120   -2.1767 C.3     1  UNL1        0.0196
     28 C          -3.0277   -2.7406   -2.4804 C.3     1  UNL1        0.0182
     29 N          -3.7767   -3.5416   -1.5024 N.am    1  UNL1       -0.3149
     30 C          -4.3365   -2.6839   -0.5128 C.2     1  UNL1        0.2135
     31 O          -5.2314   -3.0196    0.2830 O.2     1  UNL1       -0.2758
     32 C          -3.6258   -1.3788   -0.6665 C.3     1  UNL1        0.0315
     33 H          -1.8079   -1.5323   -4.2547 H       1  UNL1        0.0265
     34 H          -2.3299    0.2159   -4.5308 H       1  UNL1        0.0265
     35 H          -0.7108   -0.1777   -3.9023 H       1  UNL1        0.0265
     36 H          -1.3915   -0.7792   -1.8211 H       1  UNL1        0.0734
     37 H           1.8073    2.8486    2.4708 H       1  UNL1        0.0854
     38 H           2.5463   -2.2654    2.0806 H       1  UNL1        0.0545
     39 H           3.6514   -2.0586    0.1244 H       1  UNL1        0.0287
     40 H           4.5135   -0.5691    0.5507 H       1  UNL1        0.0287
     41 H           6.2816   -1.7704    1.4774 H       1  UNL1        0.0323
     42 H           5.7592   -3.0497    0.3709 H       1  UNL1        0.0323
     43 H           6.0500   -1.7303    3.6411 H       1  UNL1        0.0323
     44 H           5.0555   -2.8277    4.6197 H       1  UNL1        0.0323
     45 H           3.2013   -1.5529    4.2274 H       1  UNL1        0.0287
     46 H           4.3092   -0.2910    3.6721 H       1  UNL1        0.0287
     47 H           1.1205   -0.8278    0.4081 H       1  UNL1        0.0833
     48 H           0.1002    3.7604    1.3083 H       1  UNL1        0.0661
     49 H          -4.7747    6.1909   -0.6190 H       1  UNL1        0.0473
     50 H          -3.3451    7.1379   -1.0782 H       1  UNL1        0.0473
     51 H          -4.2773    6.1479   -2.3247 H       1  UNL1        0.0473
     52 H          -3.8475    3.5575   -2.3012 H       1  UNL1        0.0834
     53 H          -4.3345   -1.0088   -2.6803 H       1  UNL1        0.0356
     54 H          -3.3878   -3.0653   -3.4813 H       1  UNL1        0.0466
     55 H          -1.9691   -2.9351   -2.3002 H       1  UNL1        0.0466
     56 H          -3.8379   -4.5767   -1.5946 H       1  UNL1        0.1487
     57 H          -2.6552   -1.4831   -0.1467 H       1  UNL1        0.0363
     58 H          -4.2377   -0.5541   -0.2881 H       1  UNL1        0.0363
@<TRIPOS>BOND
     1     1     2    1
     2     2     3    1
     3     3     4    1
     4     4     5   ar
     5     5     6   ar
     6     6     7    1
     7     7     8   ar
     8     8     9   ar
     9     9    10   ar
    10    10    11    1
    11    11    12    1
    12    12    13    1
    13    13    14    1
    14    14    15    1
    15    14    16    1
    16    14    17    1
    17    17    18    1
    18    10    19   ar
    19     6    20   ar
    20    20    21   ar
    21    21    22   ar
    22    22    23   ar
    23    23    24    1
    24    23    25   ar
    25    25    26   ar
    26     2    27    1
    27    27    28    1
    28    28    29    1
    29    29    30   am
    30    30    31    2
    31    30    32    1
    32    26     4   ar
    33    32    27    1
    34    19     7   ar
    35    26    21   ar
    36    18    11    1
    37     1    33    1
    38     1    34    1
    39     1    35    1
    40     2    36    1
    41     8    37    1
    42    11    38    1
    43    12    39    1
    44    12    40    1
    45    13    41    1
    46    13    42    1
    47    17    43    1
    48    17    44    1
    49    18    45    1
    50    18    46    1
    51    19    47    1
    52    20    48    1
    53    24    49    1
    54    24    50    1
    55    24    51    1
    56    25    52    1
    57    27    53    1
    58    28    54    1
    59    28    55    1
    60    29    56    1
    61    32    57    1
    62    32    58    1
