
     RDKit          3D

 41 44  0  0  0  0  0  0  0  0999 V2000
   -6.5944    1.3467   -1.6910 C   0  0  0  0  0  0  0  0  0  0  0  0
   -5.7551   -0.1694   -2.0686 S   0  0  0  0  0  6  0  0  0  0  0  0
   -6.5127   -1.3501   -1.5356 O   0  0  0  0  0  0  0  0  0  0  0  0
   -5.6595   -0.2684   -3.5770 O   0  0  0  0  0  0  0  0  0  0  0  0
   -4.1430   -0.1779   -1.3839 C   0  0  0  0  0  0  0  0  0  0  0  0
   -3.9332   -0.6707   -0.1046 C   0  0  0  0  0  0  0  0  0  0  0  0
   -2.6607   -0.6903    0.4671 C   0  0  0  0  0  0  0  0  0  0  0  0
   -1.5752   -0.2154   -0.2354 C   0  0  0  0  0  0  0  0  0  0  0  0
   -0.2606   -0.2568    0.4060 C   0  0  0  0  0  0  0  0  0  0  0  0
    0.6064    0.8236    0.3593 C   0  0  0  0  0  0  0  0  0  0  0  0
    1.8156    0.7844    0.9499 N   0  0  0  0  0  0  0  0  0  0  0  0
    2.2096   -0.3147    1.6031 C   0  0  0  0  0  0  0  0  0  0  0  0
    3.4981   -0.3904    2.2467 N   0  0  0  0  0  0  0  0  0  0  0  0
    4.4132    0.7227    2.2059 C   0  0  0  0  0  0  0  0  0  0  0  0
    4.7452    1.0170    0.7827 C   0  0  0  0  0  0  0  0  0  0  0  0
    5.7774    0.4744    0.0656 C   0  0  0  0  0  0  0  0  0  0  0  0
    5.7306    1.0186   -1.2232 C   0  0  0  0  0  0  0  0  0  0  0  0
    4.6453    1.8727   -1.1904 C   0  0  0  0  0  0  0  0  0  0  0  0
    4.0847    1.8462    0.0159 O   0  0  0  0  0  0  0  0  0  0  0  0
    1.3899   -1.3594    1.6570 N   0  0  0  0  0  0  0  0  0  0  0  0
    1.5763   -2.5692    2.2586 C   0  0  0  0  0  0  0  0  0  0  0  0
    0.4644   -3.2897    2.0364 N   0  0  0  0  0  0  0  0  0  0  0  0
   -0.3940   -2.5832    1.3294 N   0  0  0  0  0  0  0  0  0  0  0  0
    0.1702   -1.3770    1.0856 C   0  0  0  0  0  0  0  0  0  0  0  0
   -1.7813    0.2731   -1.5030 C   0  0  0  0  0  0  0  0  0  0  0  0
   -3.0527    0.2901   -2.0677 C   0  0  0  0  0  0  0  0  0  0  0  0
   -7.6564    1.2225   -2.0000 H   0  0  0  0  0  0  0  0  0  0  0  0
   -6.1638    2.1743   -2.2522 H   0  0  0  0  0  0  0  0  0  0  0  0
   -6.6011    1.5689   -0.6105 H   0  0  0  0  0  0  0  0  0  0  0  0
   -4.7728   -1.0527    0.4743 H   0  0  0  0  0  0  0  0  0  0  0  0
   -2.5285   -1.0801    1.4650 H   0  0  0  0  0  0  0  0  0  0  0  0
    0.2848    1.7250   -0.1756 H   0  0  0  0  0  0  0  0  0  0  0  0
    3.7833   -1.2555    2.7510 H   0  0  0  0  0  0  0  0  0  0  0  0
    5.3152    0.4592    2.7707 H   0  0  0  0  0  0  0  0  0  0  0  0
    3.9641    1.6189    2.6874 H   0  0  0  0  0  0  0  0  0  0  0  0
    6.5188   -0.2457    0.3907 H   0  0  0  0  0  0  0  0  0  0  0  0
    6.4119    0.7932   -2.0344 H   0  0  0  0  0  0  0  0  0  0  0  0
    4.3306    2.4592   -2.0424 H   0  0  0  0  0  0  0  0  0  0  0  0
    2.4508   -2.9009    2.8143 H   0  0  0  0  0  0  0  0  0  0  0  0
   -0.9284    0.6454   -2.0528 H   0  0  0  0  0  0  0  0  0  0  0  0
   -3.2131    0.6785   -3.0741 H   0  0  0  0  0  0  0  0  0  0  0  0
  1  2  1  0
  2  3  2  0
  2  4  2  0
  2  5  1  0
  5  6  2  0
  6  7  1  0
  7  8  2  0
  8  9  1  0
  9 10  2  0
 10 11  1  0
 11 12  2  0
 12 13  1  0
 13 14  1  0
 14 15  1  0
 15 16  2  0
 16 17  1  0
 17 18  2  0
 18 19  1  0
 12 20  1  0
 20 21  1  0
 21 22  2  0
 22 23  1  0
 23 24  2  0
  8 25  1  0
 25 26  2  0
 26  5  1  0
 24  9  1  0
 19 15  1  0
 24 20  1  0
  1 27  1  0
  1 28  1  0
  1 29  1  0
  6 30  1  0
  7 31  1  0
 10 32  1  0
 13 33  1  0
 14 34  1  0
 14 35  1  0
 16 36  1  0
 17 37  1  0
 18 38  1  0
 21 39  1  0
 25 40  1  0
 26 41  1  0
M  END
$$$$
