@<TRIPOS>MOLECULE
*****
 41 44 0 0 0
SMALL
GASTEIGER

@<TRIPOS>ATOM
      1 C          -6.5944    1.3467   -1.6910 C.3     1  UNL1        0.0596
      2 S          -5.7551   -0.1694   -2.0686 S.O2    1  UNL1       -0.0059
      3 O          -6.5127   -1.3501   -1.5356 O.2     1  UNL1       -0.1696
      4 O          -5.6595   -0.2684   -3.5770 O.2     1  UNL1       -0.1696
      5 C          -4.1430   -0.1779   -1.3839 C.ar    1  UNL1        0.0879
      6 C          -3.9332   -0.6707   -0.1046 C.ar    1  UNL1       -0.0363
      7 C          -2.6607   -0.6903    0.4671 C.ar    1  UNL1       -0.0521
      8 C          -1.5752   -0.2154   -0.2354 C.ar    1  UNL1       -0.0128
      9 C          -0.2606   -0.2568    0.4060 C.ar    1  UNL1        0.0449
     10 C           0.6064    0.8236    0.3593 C.ar    1  UNL1        0.0424
     11 N           1.8156    0.7844    0.9499 N.ar    1  UNL1       -0.2233
     12 C           2.2096   -0.3147    1.6031 C.ar    1  UNL1        0.2028
     13 N           3.4981   -0.3904    2.2467 N.pl3   1  UNL1       -0.3074
     14 C           4.4132    0.7227    2.2059 C.3     1  UNL1        0.0699
     15 C           4.7452    1.0170    0.7827 C.ar    1  UNL1        0.1218
     16 C           5.7774    0.4744    0.0656 C.ar    1  UNL1       -0.0192
     17 C           5.7306    1.0186   -1.2232 C.ar    1  UNL1       -0.0236
     18 C           4.6453    1.8727   -1.1904 C.ar    1  UNL1        0.0921
     19 O           4.0847    1.8462    0.0159 O.2     1  UNL1       -0.4662
     20 N           1.3899   -1.3594    1.6570 N.ar    1  UNL1       -0.2530
     21 C           1.5763   -2.5692    2.2586 C.ar    1  UNL1        0.1267
     22 N           0.4644   -3.2897    2.0364 N.ar    1  UNL1       -0.1371
     23 N          -0.3940   -2.5832    1.3294 N.ar    1  UNL1       -0.1289
     24 C           0.1702   -1.3770    1.0856 C.ar    1  UNL1        0.1726
     25 C          -1.7813    0.2731   -1.5030 C.ar    1  UNL1       -0.0521
     26 C          -3.0527    0.2901   -2.0677 C.ar    1  UNL1       -0.0363
     27 H          -7.6564    1.2225   -2.0000 H       1  UNL1        0.0468
     28 H          -6.1638    2.1743   -2.2522 H       1  UNL1        0.0468
     29 H          -6.6011    1.5689   -0.6105 H       1  UNL1        0.0468
     30 H          -4.7728   -1.0527    0.4743 H       1  UNL1        0.0637
     31 H          -2.5285   -1.0801    1.4650 H       1  UNL1        0.0624
     32 H           0.2848    1.7250   -0.1756 H       1  UNL1        0.0838
     33 H           3.7833   -1.2555    2.7510 H       1  UNL1        0.1493
     34 H           5.3152    0.4592    2.7707 H       1  UNL1        0.0543
     35 H           3.9641    1.6189    2.6874 H       1  UNL1        0.0543
     36 H           6.5188   -0.2457    0.3907 H       1  UNL1        0.0652
     37 H           6.4119    0.7932   -2.0344 H       1  UNL1        0.0649
     38 H           4.3306    2.4592   -2.0424 H       1  UNL1        0.1029
     39 H           2.4508   -2.9009    2.8143 H       1  UNL1        0.1052
     40 H          -0.9284    0.6454   -2.0528 H       1  UNL1        0.0624
     41 H          -3.2131    0.6785   -3.0741 H       1  UNL1        0.0637
@<TRIPOS>BOND
     1     1     2    1
     2     2     3    2
     3     2     4    2
     4     2     5    1
     5     5     6   ar
     6     6     7   ar
     7     7     8   ar
     8     8     9    1
     9     9    10   ar
    10    10    11   ar
    11    11    12   ar
    12    12    13    1
    13    13    14    1
    14    14    15    1
    15    15    16   ar
    16    16    17   ar
    17    17    18   ar
    18    18    19   ar
    19    12    20   ar
    20    20    21   ar
    21    21    22   ar
    22    22    23   ar
    23    23    24   ar
    24     8    25   ar
    25    25    26   ar
    26    26     5   ar
    27    24     9   ar
    28    19    15   ar
    29    24    20   ar
    30     1    27    1
    31     1    28    1
    32     1    29    1
    33     6    30    1
    34     7    31    1
    35    10    32    1
    36    13    33    1
    37    14    34    1
    38    14    35    1
    39    16    36    1
    40    17    37    1
    41    18    38    1
    42    21    39    1
    43    25    40    1
    44    26    41    1
