@<TRIPOS>MOLECULE
*****
 72 75 0 0 0
SMALL
GASTEIGER

@<TRIPOS>ATOM
      1 O           9.6269   -2.3825    1.2571 O.3     1  UNL1       -0.4804
      2 C           8.7289   -1.7045    0.4268 C.2     1  UNL1        0.3091
      3 O           8.1445   -2.2571   -0.5456 O.2     1  UNL1       -0.2507
      4 C           8.5124   -0.2596    0.7844 C.3     1  UNL1        0.0700
      5 C           7.5363    0.3045   -0.1952 C.ar    1  UNL1       -0.0333
      6 C           6.2066    0.2753    0.1468 C.ar    1  UNL1       -0.0162
      7 C           5.2520    0.7653   -0.7147 C.ar    1  UNL1        0.1208
      8 O           3.8846    0.8652   -0.6433 O.3     1  UNL1       -0.4919
      9 C           3.0517    0.4758    0.4073 C.3     1  UNL1        0.0907
     10 C           1.5837    0.7554    0.0206 C.3     1  UNL1       -0.0058
     11 C           0.7060    0.3731    1.1491 C.3     1  UNL1        0.0023
     12 N          -0.7371    0.5467    0.8878 N.3     1  UNL1       -0.2971
     13 C          -1.0988   -0.4096   -0.0831 C.3     1  UNL1        0.0100
     14 C          -2.5330   -0.6692   -0.3332 C.3     1  UNL1        0.0220
     15 C          -3.2294   -1.1609    0.9207 C.ar    1  UNL1       -0.0388
     16 C          -2.6047   -1.8242    1.9523 C.ar    1  UNL1       -0.0579
     17 C          -3.3038   -2.2528    3.0551 C.ar    1  UNL1       -0.0615
     18 C          -4.6565   -2.0403    3.1818 C.ar    1  UNL1       -0.0617
     19 C          -5.3165   -1.3803    2.1708 C.ar    1  UNL1       -0.0615
     20 C          -4.5844   -0.9579    1.0666 C.ar    1  UNL1       -0.0579
     21 C          -2.7291   -1.7849   -1.3050 C.ar    1  UNL1       -0.0388
     22 C          -1.9153   -2.8769   -1.5130 C.ar    1  UNL1       -0.0579
     23 C          -2.2334   -3.8415   -2.4444 C.ar    1  UNL1       -0.0615
     24 C          -3.3841   -3.7738   -3.2246 C.ar    1  UNL1       -0.0617
     25 C          -4.2122   -2.6924   -3.0348 C.ar    1  UNL1       -0.0615
     26 C          -3.8832   -1.7334   -2.1001 C.ar    1  UNL1       -0.0579
     27 C          -1.0198    1.9095    0.7261 C.3     1  UNL1        0.0255
     28 C          -2.3512    2.3791    0.3715 C.ar    1  UNL1       -0.0145
     29 C          -3.4686    2.4237    1.1724 C.ar    1  UNL1        0.0570
     30 CL         -3.2864    1.7930    2.7967 Cl      1  UNL1       -0.0826
     31 C          -4.6590    2.9406    0.7036 C.ar    1  UNL1        0.0734
     32 C          -4.7918    3.4322   -0.5729 C.ar    1  UNL1       -0.0487
     33 C          -3.7152    3.4204   -1.4327 C.ar    1  UNL1       -0.0608
     34 C          -2.5478    2.8959   -0.9225 C.ar    1  UNL1       -0.0559
     35 C          -5.8540    2.9820    1.6074 C.3     1  UNL1        0.4188
     36 F          -6.9408    3.5217    0.9724 F       1  UNL1       -0.1658
     37 F          -5.5772    3.8114    2.7077 F       1  UNL1       -0.1658
     38 F          -6.0494    1.7093    2.0798 F       1  UNL1       -0.1658
     39 C           5.6765    1.2911   -1.9414 C.ar    1  UNL1       -0.0199
     40 C           7.0160    1.3301   -2.3049 C.ar    1  UNL1       -0.0580
     41 C           7.9541    0.8216   -1.4004 C.ar    1  UNL1       -0.0578
     42 H          10.0210   -3.2569    0.8786 H       1  UNL1        0.2951
     43 H           9.4710    0.2767    0.7969 H       1  UNL1        0.0426
     44 H           8.0697   -0.2556    1.8016 H       1  UNL1        0.0426
     45 H           5.7674   -0.0998    1.0489 H       1  UNL1        0.0657
     46 H           3.1347   -0.5793    0.7094 H       1  UNL1        0.0697
     47 H           3.3204    1.0786    1.3060 H       1  UNL1        0.0697
     48 H           1.5806    1.7919   -0.3032 H       1  UNL1        0.0310
     49 H           1.3858    0.0845   -0.8590 H       1  UNL1        0.0310
     50 H           0.9632    1.0164    2.0138 H       1  UNL1        0.0428
     51 H           0.8853   -0.6639    1.4249 H       1  UNL1        0.0428
     52 H          -0.6182   -0.2424   -1.0811 H       1  UNL1        0.0436
     53 H          -0.6221   -1.3809    0.2578 H       1  UNL1        0.0436
     54 H          -3.0781    0.1917   -0.6947 H       1  UNL1        0.0410
     55 H          -1.5659   -2.0148    1.9056 H       1  UNL1        0.0620
     56 H          -2.7578   -2.7768    3.8498 H       1  UNL1        0.0618
     57 H          -5.1370   -2.4053    4.0775 H       1  UNL1        0.0618
     58 H          -6.3845   -1.1991    2.2477 H       1  UNL1        0.0618
     59 H          -5.1699   -0.4488    0.3174 H       1  UNL1        0.0620
     60 H          -1.0210   -2.9369   -0.9143 H       1  UNL1        0.0620
     61 H          -1.5804   -4.6823   -2.5849 H       1  UNL1        0.0618
     62 H          -3.6706   -4.5098   -3.9641 H       1  UNL1        0.0618
     63 H          -5.1082   -2.6049   -3.6154 H       1  UNL1        0.0618
     64 H          -4.5563   -0.9027   -1.9837 H       1  UNL1        0.0620
     65 H          -0.6430    2.4206    1.6807 H       1  UNL1        0.0476
     66 H          -0.2693    2.3191   -0.0295 H       1  UNL1        0.0476
     67 H          -5.7120    3.8425   -0.9693 H       1  UNL1        0.0623
     68 H          -3.7184    3.7881   -2.4661 H       1  UNL1        0.0618
     69 H          -1.6850    2.8837   -1.6089 H       1  UNL1        0.0621
     70 H           5.0600    1.7218   -2.7451 H       1  UNL1        0.0654
     71 H           7.4048    1.7209   -3.2267 H       1  UNL1        0.0619
     72 H           9.0365    0.8023   -1.5803 H       1  UNL1        0.0620
@<TRIPOS>BOND
     1     1     2    1
     2     2     3    2
     3     2     4    1
     4     4     5    1
     5     5     6   ar
     6     6     7   ar
     7     7     8    1
     8     8     9    1
     9     9    10    1
    10    10    11    1
    11    11    12    1
    12    12    13    1
    13    13    14    1
    14    14    15    1
    15    15    16   ar
    16    16    17   ar
    17    17    18   ar
    18    18    19   ar
    19    19    20   ar
    20    14    21    1
    21    21    22   ar
    22    22    23   ar
    23    23    24   ar
    24    24    25   ar
    25    25    26   ar
    26    12    27    1
    27    27    28    1
    28    28    29   ar
    29    29    30    1
    30    29    31   ar
    31    31    32   ar
    32    32    33   ar
    33    33    34   ar
    34    31    35    1
    35    35    36    1
    36    35    37    1
    37    35    38    1
    38     7    39   ar
    39    39    40   ar
    40    40    41   ar
    41    41     5   ar
    42    20    15   ar
    43    26    21   ar
    44    34    28   ar
    45     1    42    1
    46     4    43    1
    47     4    44    1
    48     6    45    1
    49     9    46    1
    50     9    47    1
    51    10    48    1
    52    10    49    1
    53    11    50    1
    54    11    51    1
    55    13    52    1
    56    13    53    1
    57    14    54    1
    58    16    55    1
    59    17    56    1
    60    18    57    1
    61    19    58    1
    62    20    59    1
    63    22    60    1
    64    23    61    1
    65    24    62    1
    66    25    63    1
    67    26    64    1
    68    27    65    1
    69    27    66    1
    70    32    67    1
    71    33    68    1
    72    34    69    1
    73    39    70    1
    74    40    71    1
    75    41    72    1
