@<TRIPOS>MOLECULE
*****
 57 62 0 0 0
SMALL
GASTEIGER

@<TRIPOS>ATOM
      1 O           4.9396    1.7234    0.5824 O.2     1  UNL1       -0.2702
      2 C           4.9835    0.4913    0.8675 C.2     1  UNL1        0.2443
      3 N           6.2486   -0.0341    1.2047 N.am    1  UNL1       -0.3072
      4 C           7.4859    0.7039    1.2469 C.3     1  UNL1        0.0372
      5 C           8.0787    0.9505   -0.0951 C.ar    1  UNL1       -0.0275
      6 C           7.8346    2.0810   -0.8426 C.ar    1  UNL1       -0.0389
      7 C           8.3817    2.2965   -2.0802 C.ar    1  UNL1        0.0279
      8 N           9.1985    1.3844   -2.6203 N.ar    1  UNL1       -0.2632
      9 C           9.4611    0.2717   -1.9261 C.ar    1  UNL1        0.0279
     10 C           8.9332    0.0174   -0.6830 C.ar    1  UNL1       -0.0389
     11 C           3.7557   -0.3199    0.8386 C.ar    1  UNL1        0.0370
     12 C           3.7782   -1.6727    1.0611 C.ar    1  UNL1       -0.0490
     13 C           2.6435   -2.4713    1.0468 C.ar    1  UNL1       -0.0516
     14 C           1.4341   -1.8510    0.7925 C.ar    1  UNL1        0.0036
     15 C           1.3836   -0.5028    0.5672 C.ar    1  UNL1       -0.0331
     16 C           2.5330    0.2746    0.5868 C.ar    1  UNL1       -0.0455
     17 C          -0.0558   -0.1628    0.3321 C.3     1  UNL1        0.0023
     18 C          -0.7694   -1.4367    0.4441 C.ar    1  UNL1        0.0099
     19 C          -2.0253   -2.0387    0.3798 C.ar    1  UNL1        0.0966
     20 C          -3.2958   -1.3614    0.1111 C.ar    1  UNL1        0.0024
     21 C          -4.3540   -1.6987    0.9307 C.ar    1  UNL1       -0.0519
     22 C          -5.5755   -1.0915    0.7242 C.ar    1  UNL1       -0.0534
     23 C          -5.7980   -0.1497   -0.2751 C.ar    1  UNL1       -0.0178
     24 C          -7.1042    0.4701   -0.4551 C.ar    1  UNL1       -0.0177
     25 C          -7.5562    0.8693   -1.6861 C.ar    1  UNL1       -0.0506
     26 C          -8.8168    1.4646   -1.8232 C.ar    1  UNL1       -0.0196
     27 C          -9.6463    1.6727   -0.7428 C.ar    1  UNL1        0.1169
     28 O         -10.8994    2.2657   -0.8856 O.3     1  UNL1       -0.5068
     29 C          -9.1767    1.2637    0.5002 C.ar    1  UNL1       -0.0196
     30 C          -7.9340    0.6787    0.6217 C.ar    1  UNL1       -0.0506
     31 C          -4.7209    0.1655   -1.0772 C.ar    1  UNL1       -0.0534
     32 C          -3.4720   -0.4326   -0.8920 C.ar    1  UNL1       -0.0519
     33 N          -1.8281   -3.3537    0.6175 N.ar    1  UNL1       -0.1730
     34 N          -0.5730   -3.6366    0.8245 N.ar    1  UNL1       -0.2761
     35 C           0.1078   -2.4576    0.7216 C.ar    1  UNL1        0.0701
     36 H           6.2990   -1.0620    1.4495 H       1  UNL1        0.1493
     37 H           7.3729    1.6622    1.8055 H       1  UNL1        0.0512
     38 H           8.2219    0.1161    1.8276 H       1  UNL1        0.0512
     39 H           7.1729    2.8648   -0.4412 H       1  UNL1        0.0636
     40 H           8.1408    3.2246   -2.6197 H       1  UNL1        0.0829
     41 H          10.1238   -0.5079   -2.3219 H       1  UNL1        0.0829
     42 H           9.1342   -0.8797   -0.1030 H       1  UNL1        0.0636
     43 H           4.7129   -2.2142    1.2663 H       1  UNL1        0.0625
     44 H           2.6995   -3.5358    1.2269 H       1  UNL1        0.0624
     45 H           2.4514    1.3180    0.4070 H       1  UNL1        0.0628
     46 H          -0.3651    0.5810    1.0956 H       1  UNL1        0.0363
     47 H          -0.1702    0.3093   -0.6494 H       1  UNL1        0.0363
     48 H          -4.2148   -2.4407    1.7330 H       1  UNL1        0.0624
     49 H          -6.4213   -1.3390    1.3527 H       1  UNL1        0.0624
     50 H          -6.9347    0.7241   -2.5600 H       1  UNL1        0.0625
     51 H          -9.1752    1.7823   -2.8087 H       1  UNL1        0.0654
     52 H         -11.6079    2.1575   -0.1715 H       1  UNL1        0.2921
     53 H          -9.8196    1.4216    1.3573 H       1  UNL1        0.0654
     54 H          -7.5489    0.3498    1.6005 H       1  UNL1        0.0625
     55 H          -4.8667    0.8944   -1.8624 H       1  UNL1        0.0624
     56 H          -2.6390   -0.1738   -1.5303 H       1  UNL1        0.0624
     57 H          -0.1457   -4.5633    1.0287 H       1  UNL1        0.1889
@<TRIPOS>BOND
     1     1     2    2
     2     2     3   am
     3     3     4    1
     4     4     5    1
     5     5     6   ar
     6     6     7   ar
     7     7     8   ar
     8     8     9   ar
     9     9    10   ar
    10     2    11    1
    11    11    12   ar
    12    12    13   ar
    13    13    14   ar
    14    14    15   ar
    15    15    16   ar
    16    15    17    1
    17    17    18    1
    18    18    19   ar
    19    19    20    1
    20    20    21   ar
    21    21    22   ar
    22    22    23   ar
    23    23    24    1
    24    24    25   ar
    25    25    26   ar
    26    26    27   ar
    27    27    28    1
    28    27    29   ar
    29    29    30   ar
    30    23    31   ar
    31    31    32   ar
    32    19    33   ar
    33    33    34   ar
    34    34    35   ar
    35    10     5   ar
    36    16    11   ar
    37    35    18   ar
    38    35    14    1
    39    32    20   ar
    40    30    24   ar
    41     3    36    1
    42     4    37    1
    43     4    38    1
    44     6    39    1
    45     7    40    1
    46     9    41    1
    47    10    42    1
    48    12    43    1
    49    13    44    1
    50    16    45    1
    51    17    46    1
    52    17    47    1
    53    21    48    1
    54    22    49    1
    55    25    50    1
    56    26    51    1
    57    28    52    1
    58    29    53    1
    59    30    54    1
    60    31    55    1
    61    32    56    1
    62    34    57    1
