
     RDKit          3D

 36 39  0  0  0  0  0  0  0  0999 V2000
    0.8186   -2.1945    0.0219 N   0  0  0  0  0  0  0  0  0  0  0  0
    1.0066   -0.8024   -0.0106 C   0  0  0  0  0  0  0  0  0  0  0  0
   -0.0188    0.0882    0.0978 C   0  0  0  0  0  0  0  0  0  0  0  0
    0.1179    1.4926   -0.0627 C   0  0  0  0  0  0  0  0  0  0  0  0
    1.3508    1.9365   -0.3303 N   0  0  0  0  0  0  0  0  0  0  0  0
    2.4014    1.1093   -0.4435 C   0  0  0  0  0  0  0  0  0  0  0  0
    3.6771    1.6200   -0.7236 C   0  0  0  0  0  0  0  0  0  0  0  0
    4.7504    0.7685   -0.8395 C   0  0  0  0  0  0  0  0  0  0  0  0
    4.5786   -0.6022   -0.6800 C   0  0  0  0  0  0  0  0  0  0  0  0
    3.3128   -1.1354   -0.3996 C   0  0  0  0  0  0  0  0  0  0  0  0
    2.2691   -0.2531   -0.2919 C   0  0  0  0  0  0  0  0  0  0  0  0
   -0.9103    2.5543   -0.0303 C   0  0  0  0  0  0  0  0  0  0  0  0
   -2.3236    2.2034   -0.1329 C   0  0  0  0  0  0  0  0  0  0  0  0
   -2.7389    0.9793   -0.9243 C   0  0  0  0  0  0  0  0  0  0  0  0
   -2.5149   -0.2443   -0.0701 C   0  0  0  0  0  0  0  0  0  0  0  0
   -3.5928   -0.9695    0.2776 C   0  0  0  0  0  0  0  0  0  0  0  0
   -3.4309   -2.0512    1.1507 C   0  0  0  0  0  0  0  0  0  0  0  0
   -2.1587   -2.3617    1.6493 C   0  0  0  0  0  0  0  0  0  0  0  0
   -1.0465   -1.6216    1.2973 C   0  0  0  0  0  0  0  0  0  0  0  0
   -1.2684   -0.5889    0.4434 C   0  0  0  0  0  0  0  0  0  0  0  0
    0.0515   -2.7340   -0.4647 H   0  0  0  0  0  0  0  0  0  0  0  0
    1.4734   -2.8604    0.5436 H   0  0  0  0  0  0  0  0  0  0  0  0
    3.7860    2.6851   -0.8431 H   0  0  0  0  0  0  0  0  0  0  0  0
    5.7572    1.1452   -1.0581 H   0  0  0  0  0  0  0  0  0  0  0  0
    5.3916   -1.2944   -0.7634 H   0  0  0  0  0  0  0  0  0  0  0  0
    3.1713   -2.1982   -0.2750 H   0  0  0  0  0  0  0  0  0  0  0  0
   -0.6082    3.3963   -0.7282 H   0  0  0  0  0  0  0  0  0  0  0  0
   -0.7682    3.0598    0.9863 H   0  0  0  0  0  0  0  0  0  0  0  0
   -2.8372    3.0591   -0.6798 H   0  0  0  0  0  0  0  0  0  0  0  0
   -2.8086    2.2123    0.8721 H   0  0  0  0  0  0  0  0  0  0  0  0
   -2.0701    0.8741   -1.7800 H   0  0  0  0  0  0  0  0  0  0  0  0
   -3.8122    1.0466   -1.1463 H   0  0  0  0  0  0  0  0  0  0  0  0
   -4.5642   -0.6932   -0.1315 H   0  0  0  0  0  0  0  0  0  0  0  0
   -4.2982   -2.6269    1.4225 H   0  0  0  0  0  0  0  0  0  0  0  0
   -2.0405   -3.2026    2.3282 H   0  0  0  0  0  0  0  0  0  0  0  0
   -0.1029   -1.7963    1.7187 H   0  0  0  0  0  0  0  0  0  0  0  0
  1  2  1  0
  2  3  2  0
  3  4  1  0
  4  5  2  0
  5  6  1  0
  6  7  2  0
  7  8  1  0
  8  9  2  0
  9 10  1  0
 10 11  2  0
  4 12  1  0
 12 13  1  0
 13 14  1  0
 14 15  1  0
 15 16  2  0
 16 17  1  0
 17 18  2  0
 18 19  1  0
 19 20  2  0
 11  2  1  0
 20 15  1  0
 20  3  1  0
 11  6  1  0
  1 21  1  0
  1 22  1  0
  7 23  1  0
  8 24  1  0
  9 25  1  0
 10 26  1  0
 12 27  1  0
 12 28  1  0
 13 29  1  0
 13 30  1  0
 14 31  1  0
 14 32  1  0
 16 33  1  0
 17 34  1  0
 18 35  1  0
 19 36  1  0
M  END
$$$$
