@<TRIPOS>MOLECULE
*****
 36 39 0 0 0
SMALL
GASTEIGER

@<TRIPOS>ATOM
      1 N           0.8186   -2.1945    0.0219 N.pl3   1  UNL1       -0.3569
      2 C           1.0066   -0.8024   -0.0106 C.ar    1  UNL1        0.0434
      3 C          -0.0188    0.0882    0.0978 C.ar    1  UNL1        0.0249
      4 C           0.1179    1.4926   -0.0627 C.ar    1  UNL1        0.0514
      5 N           1.3508    1.9365   -0.3303 N.ar    1  UNL1       -0.2509
      6 C           2.4014    1.1093   -0.4435 C.ar    1  UNL1        0.0731
      7 C           3.6771    1.6200   -0.7236 C.ar    1  UNL1       -0.0357
      8 C           4.7504    0.7685   -0.8395 C.ar    1  UNL1       -0.0597
      9 C           4.5786   -0.6022   -0.6800 C.ar    1  UNL1       -0.0610
     10 C           3.3128   -1.1354   -0.3996 C.ar    1  UNL1       -0.0508
     11 C           2.2691   -0.2531   -0.2919 C.ar    1  UNL1        0.0216
     12 C          -0.9103    2.5543   -0.0303 C.3     1  UNL1       -0.0094
     13 C          -2.3236    2.2034   -0.1329 C.3     1  UNL1       -0.0436
     14 C          -2.7389    0.9793   -0.9243 C.3     1  UNL1       -0.0268
     15 C          -2.5149   -0.2443   -0.0701 C.ar    1  UNL1       -0.0395
     16 C          -3.5928   -0.9695    0.2776 C.ar    1  UNL1       -0.0580
     17 C          -3.4309   -2.0512    1.1507 C.ar    1  UNL1       -0.0615
     18 C          -2.1587   -2.3617    1.6493 C.ar    1  UNL1       -0.0612
     19 C          -1.0465   -1.6216    1.2973 C.ar    1  UNL1       -0.0537
     20 C          -1.2684   -0.5889    0.4434 C.ar    1  UNL1       -0.0112
     21 H           0.0515   -2.7340   -0.4647 H       1  UNL1        0.1424
     22 H           1.4734   -2.8604    0.5436 H       1  UNL1        0.1424
     23 H           3.7860    2.6851   -0.8431 H       1  UNL1        0.0639
     24 H           5.7572    1.1452   -1.0581 H       1  UNL1        0.0618
     25 H           5.3916   -1.2944   -0.7634 H       1  UNL1        0.0618
     26 H           3.1713   -2.1982   -0.2750 H       1  UNL1        0.0625
     27 H          -0.6082    3.3963   -0.7282 H       1  UNL1        0.0328
     28 H          -0.7682    3.0598    0.9863 H       1  UNL1        0.0328
     29 H          -2.8372    3.0591   -0.6798 H       1  UNL1        0.0272
     30 H          -2.8086    2.2123    0.8721 H       1  UNL1        0.0272
     31 H          -2.0701    0.8741   -1.7800 H       1  UNL1        0.0313
     32 H          -3.8122    1.0466   -1.1463 H       1  UNL1        0.0313
     33 H          -4.5642   -0.6932   -0.1315 H       1  UNL1        0.0620
     34 H          -4.2982   -2.6269    1.4225 H       1  UNL1        0.0618
     35 H          -2.0405   -3.2026    2.3282 H       1  UNL1        0.0618
     36 H          -0.1029   -1.7963    1.7187 H       1  UNL1        0.0624
@<TRIPOS>BOND
     1     1     2    1
     2     2     3   ar
     3     3     4   ar
     4     4     5   ar
     5     5     6   ar
     6     6     7   ar
     7     7     8   ar
     8     8     9   ar
     9     9    10   ar
    10    10    11   ar
    11     4    12    1
    12    12    13    1
    13    13    14    1
    14    14    15    1
    15    15    16   ar
    16    16    17   ar
    17    17    18   ar
    18    18    19   ar
    19    19    20   ar
    20    11     2   ar
    21    20    15   ar
    22    20     3    1
    23    11     6   ar
    24     1    21    1
    25     1    22    1
    26     7    23    1
    27     8    24    1
    28     9    25    1
    29    10    26    1
    30    12    27    1
    31    12    28    1
    32    13    29    1
    33    13    30    1
    34    14    31    1
    35    14    32    1
    36    16    33    1
    37    17    34    1
    38    18    35    1
    39    19    36    1
