@<TRIPOS>MOLECULE
*****
 31 32 0 0 0
SMALL
GASTEIGER

@<TRIPOS>ATOM
      1 C          -0.1946    1.8979   -1.5861 C.3     1  UNL1       -0.0640
      2 C          -0.6963    1.4703   -0.2381 C.3     1  UNL1       -0.0378
      3 C          -0.4767    0.0191    0.0627 C.3     1  UNL1        0.0724
      4 C          -1.0064   -0.3395    1.4335 C.3     1  UNL1       -0.0267
      5 C          -2.4887   -0.4767    1.5123 C.3     1  UNL1        0.0256
      6 C          -3.1897   -0.2866    0.2148 C.2     1  UNL1        0.2193
      7 O          -4.3021    0.2996    0.1559 O.2     1  UNL1       -0.2754
      8 N          -2.5565   -0.7918   -0.9575 N.am    1  UNL1       -0.2557
      9 C          -1.1334   -0.8717   -0.9281 C.2     1  UNL1        0.2297
     10 O          -0.5875   -1.6889   -1.7457 O.2     1  UNL1       -0.2744
     11 C           0.9798   -0.2450    0.0700 C.ar    1  UNL1       -0.0324
     12 C           1.7604   -0.3958   -1.0545 C.ar    1  UNL1       -0.0576
     13 C           3.1172   -0.6405   -1.0277 C.ar    1  UNL1       -0.0615
     14 C           3.7689   -0.7477    0.1809 C.ar    1  UNL1       -0.0617
     15 C           3.0405   -0.6060    1.3422 C.ar    1  UNL1       -0.0615
     16 C           1.6850   -0.3620    1.2633 C.ar    1  UNL1       -0.0576
     17 H          -0.6132    2.8977   -1.8459 H       1  UNL1        0.0230
     18 H          -0.4994    1.2317   -2.4043 H       1  UNL1        0.0230
     19 H           0.9042    2.0166   -1.6357 H       1  UNL1        0.0230
     20 H          -0.2376    2.1258    0.5286 H       1  UNL1        0.0276
     21 H          -1.7874    1.6963   -0.2019 H       1  UNL1        0.0276
     22 H          -0.7018    0.4493    2.1568 H       1  UNL1        0.0283
     23 H          -0.4987   -1.2792    1.7410 H       1  UNL1        0.0283
     24 H          -2.9405    0.2042    2.2583 H       1  UNL1        0.0359
     25 H          -2.7483   -1.5307    1.8257 H       1  UNL1        0.0359
     26 H          -3.1556   -1.0795   -1.7808 H       1  UNL1        0.1575
     27 H           1.2862   -0.3193   -2.0208 H       1  UNL1        0.0621
     28 H           3.6720   -0.7488   -1.9614 H       1  UNL1        0.0618
     29 H           4.8270   -0.9389    0.1501 H       1  UNL1        0.0618
     30 H           3.5674   -0.6930    2.2759 H       1  UNL1        0.0618
     31 H           1.2058   -0.2670    2.2165 H       1  UNL1        0.0621
@<TRIPOS>BOND
     1     1     2    1
     2     2     3    1
     3     3     4    1
     4     4     5    1
     5     5     6    1
     6     6     7    2
     7     6     8   am
     8     8     9   am
     9     9    10    2
    10     3    11    1
    11    11    12   ar
    12    12    13   ar
    13    13    14   ar
    14    14    15   ar
    15    15    16   ar
    16     9     3    1
    17    16    11   ar
    18     1    17    1
    19     1    18    1
    20     1    19    1
    21     2    20    1
    22     2    21    1
    23     4    22    1
    24     4    23    1
    25     5    24    1
    26     5    25    1
    27     8    26    1
    28    12    27    1
    29    13    28    1
    30    14    29    1
    31    15    30    1
    32    16    31    1
