
     RDKit          3D

 58 63  0  0  0  0  0  0  0  0999 V2000
   -3.1677   -2.4563    3.1687 C   0  0  0  0  0  0  0  0  0  0  0  0
   -3.1827   -1.7077    1.9654 O   0  0  0  0  0  0  0  0  0  0  0  0
   -3.9164   -2.2047    0.8890 C   0  0  0  0  0  0  0  0  0  0  0  0
   -4.5965   -3.3660    0.9830 N   0  0  0  0  0  0  0  0  0  0  0  0
   -5.3045   -3.8461   -0.0546 C   0  0  0  0  0  0  0  0  0  0  0  0
   -5.3219   -3.1203   -1.2292 C   0  0  0  0  0  0  0  0  0  0  0  0
   -4.6356   -1.9287   -1.3546 C   0  0  0  0  0  0  0  0  0  0  0  0
   -3.9190   -1.4645   -0.2707 C   0  0  0  0  0  0  0  0  0  0  0  0
   -3.2046   -0.2489   -0.3641 N   0  0  0  0  0  0  0  0  0  0  0  0
   -3.7192    0.9388   -0.6231 N   0  0  0  0  0  0  0  0  0  0  0  0
   -2.7724    1.8787   -0.6420 C   0  0  0  0  0  0  0  0  0  0  0  0
   -2.8797    3.3401   -0.8884 C   0  0  0  0  0  0  0  0  0  0  0  0
   -1.5764    1.2111   -0.3721 C   0  0  0  0  0  0  0  0  0  0  0  0
   -1.8693   -0.1206   -0.2009 C   0  0  0  0  0  0  0  0  0  0  0  0
   -0.6340   -0.8677    0.0948 C   0  0  0  0  0  0  0  0  0  0  0  0
   -0.6037   -2.1079    0.2964 O   0  0  0  0  0  0  0  0  0  0  0  0
    0.4125    0.0871    0.0927 N   0  0  0  0  0  0  0  0  0  0  0  0
    1.7734   -0.2175    0.3576 C   0  0  0  0  0  0  0  0  0  0  0  0
    2.6885   -0.5794   -0.6059 C   0  0  0  0  0  0  0  0  0  0  0  0
    4.0103   -0.8683   -0.3046 C   0  0  0  0  0  0  0  0  0  0  0  0
    4.9534   -1.2513   -1.3666 C   0  0  0  0  0  0  0  0  0  0  0  0
    4.4347   -0.7942    1.0002 C   0  0  0  0  0  0  0  0  0  0  0  0
    5.6294   -1.0081    1.6131 N   0  0  0  0  0  0  0  0  0  0  0  0
    5.4908   -0.7927    2.9211 N   0  0  0  0  0  0  0  0  0  0  0  0
    4.2052   -0.4436    3.1225 C   0  0  0  0  0  0  0  0  0  0  0  0
    3.6032   -0.1102    4.4496 C   0  0  0  0  0  0  0  0  0  0  0  0
    3.5563   -0.4450    1.9385 N   0  0  0  0  0  0  0  0  0  0  0  0
    2.2703   -0.1611    1.6657 C   0  0  0  0  0  0  0  0  0  0  0  0
   -0.1073    1.3761   -0.2041 C   0  0  0  0  0  0  0  0  0  0  0  0
    0.5022    2.0369   -1.3847 C   0  0  0  0  0  0  0  0  0  0  0  0
    1.0437    3.3009   -1.2996 C   0  0  0  0  0  0  0  0  0  0  0  0
    1.6204    3.9307   -2.3954 C   0  0  0  0  0  0  0  0  0  0  0  0
    1.6682    3.2993   -3.6190 C   0  0  0  0  0  0  0  0  0  0  0  0
    2.3944    4.0856   -5.0092 Cl  0  0  0  0  0  0  0  0  0  0  0  0
    1.1246    2.0292   -3.7068 C   0  0  0  0  0  0  0  0  0  0  0  0
    0.5537    1.4127   -2.6106 C   0  0  0  0  0  0  0  0  0  0  0  0
    0.0186    0.1568   -2.7179 F   0  0  0  0  0  0  0  0  0  0  0  0
   -2.1383   -2.5120    3.5829 H   0  0  0  0  0  0  0  0  0  0  0  0
   -3.8998   -2.0136    3.8490 H   0  0  0  0  0  0  0  0  0  0  0  0
   -3.4509   -3.5225    2.9433 H   0  0  0  0  0  0  0  0  0  0  0  0
   -5.8603   -4.7839    0.0044 H   0  0  0  0  0  0  0  0  0  0  0  0
   -5.8945   -3.5140   -2.0604 H   0  0  0  0  0  0  0  0  0  0  0  0
   -4.6379   -1.3447   -2.2698 H   0  0  0  0  0  0  0  0  0  0  0  0
   -2.6397    3.5725   -1.9447 H   0  0  0  0  0  0  0  0  0  0  0  0
   -3.9186    3.6861   -0.7044 H   0  0  0  0  0  0  0  0  0  0  0  0
   -2.1467    3.9127   -0.2664 H   0  0  0  0  0  0  0  0  0  0  0  0
    2.3493   -0.6367   -1.6293 H   0  0  0  0  0  0  0  0  0  0  0  0
    5.8890   -0.6928   -1.2601 H   0  0  0  0  0  0  0  0  0  0  0  0
    4.5001   -1.1340   -2.3772 H   0  0  0  0  0  0  0  0  0  0  0  0
    5.1205   -2.3626   -1.2629 H   0  0  0  0  0  0  0  0  0  0  0  0
    2.4998   -0.0038    4.3312 H   0  0  0  0  0  0  0  0  0  0  0  0
    3.7915   -0.9222    5.1660 H   0  0  0  0  0  0  0  0  0  0  0  0
    3.9794    0.8680    4.7715 H   0  0  0  0  0  0  0  0  0  0  0  0
    1.6063    0.1153    2.4637 H   0  0  0  0  0  0  0  0  0  0  0  0
    0.0744    2.0258    0.6788 H   0  0  0  0  0  0  0  0  0  0  0  0
    1.0233    3.8276   -0.3517 H   0  0  0  0  0  0  0  0  0  0  0  0
    2.0474    4.9257   -2.3315 H   0  0  0  0  0  0  0  0  0  0  0  0
    1.1629    1.5358   -4.6668 H   0  0  0  0  0  0  0  0  0  0  0  0
  1  2  1  0
  2  3  1  0
  3  4  2  0
  4  5  1  0
  5  6  2  0
  6  7  1  0
  7  8  2  0
  8  9  1  0
  9 10  1  0
 10 11  2  0
 11 12  1  0
 11 13  1  0
 13 14  2  0
 14 15  1  0
 15 16  2  0
 15 17  1  0
 17 18  1  0
 18 19  1  0
 19 20  2  0
 20 21  1  0
 20 22  1  0
 22 23  2  0
 23 24  1  0
 24 25  2  0
 25 26  1  0
 25 27  1  0
 27 28  1  0
 17 29  1  0
 29 30  1  0
 30 31  2  0
 31 32  1  0
 32 33  2  0
 33 34  1  0
 33 35  1  0
 35 36  2  0
 36 37  1  0
  8  3  1  0
 14  9  1  0
 28 18  2  0
 36 30  1  0
 29 13  1  0
 27 22  1  0
  1 38  1  0
  1 39  1  0
  1 40  1  0
  5 41  1  0
  6 42  1  0
  7 43  1  0
 12 44  1  0
 12 45  1  0
 12 46  1  0
 19 47  1  0
 21 48  1  0
 21 49  1  0
 21 50  1  0
 26 51  1  0
 26 52  1  0
 26 53  1  0
 28 54  1  0
 29 55  1  0
 31 56  1  0
 32 57  1  0
 35 58  1  0
M  END
$$$$
