@<TRIPOS>MOLECULE
*****
 58 63 0 0 0
SMALL
GASTEIGER

@<TRIPOS>ATOM
      1 C          -3.1677   -2.4563    3.1687 C.3     1  UNL1        0.0805
      2 O          -3.1827   -1.7077    1.9654 O.3     1  UNL1       -0.4782
      3 C          -3.9164   -2.2047    0.8890 C.ar    1  UNL1        0.2408
      4 N          -4.5965   -3.3660    0.9830 N.ar    1  UNL1       -0.2195
      5 C          -5.3045   -3.8461   -0.0546 C.ar    1  UNL1        0.0315
      6 C          -5.3219   -3.1203   -1.2292 C.ar    1  UNL1       -0.0413
      7 C          -4.6356   -1.9287   -1.3546 C.ar    1  UNL1       -0.0296
      8 C          -3.9190   -1.4645   -0.2707 C.ar    1  UNL1        0.1275
      9 N          -3.2046   -0.2489   -0.3641 N.ar    1  UNL1       -0.2219
     10 N          -3.7192    0.9388   -0.6231 N.ar    1  UNL1       -0.1704
     11 C          -2.7724    1.8787   -0.6420 C.ar    1  UNL1        0.0664
     12 C          -2.8797    3.3401   -0.8884 C.3     1  UNL1       -0.0202
     13 C          -1.5764    1.2111   -0.3721 C.ar    1  UNL1        0.0310
     14 C          -1.8693   -0.1206   -0.2009 C.ar    1  UNL1        0.1353
     15 C          -0.6340   -0.8677    0.0948 C.2     1  UNL1        0.2705
     16 O          -0.6037   -2.1079    0.2964 O.2     1  UNL1       -0.2679
     17 N           0.4125    0.0871    0.0927 N.am    1  UNL1       -0.2530
     18 C           1.7734   -0.2175    0.3576 C.ar    1  UNL1        0.0545
     19 C           2.6885   -0.5794   -0.6059 C.ar    1  UNL1       -0.0324
     20 C           4.0103   -0.8683   -0.3046 C.ar    1  UNL1       -0.0041
     21 C           4.9534   -1.2513   -1.3666 C.3     1  UNL1       -0.0361
     22 C           4.4347   -0.7942    1.0002 C.ar    1  UNL1        0.1641
     23 N           5.6294   -1.0081    1.6131 N.ar    1  UNL1       -0.1292
     24 N           5.4908   -0.7927    2.9211 N.ar    1  UNL1       -0.1340
     25 C           4.2052   -0.4436    3.1225 C.ar    1  UNL1        0.1347
     26 C           3.6032   -0.1102    4.4496 C.3     1  UNL1       -0.0041
     27 N           3.5563   -0.4450    1.9385 N.ar    1  UNL1       -0.2846
     28 C           2.2703   -0.1611    1.6657 C.ar    1  UNL1        0.0344
     29 C          -0.1073    1.3761   -0.2041 C.3     1  UNL1        0.0881
     30 C           0.5022    2.0369   -1.3847 C.ar    1  UNL1        0.0131
     31 C           1.0437    3.3009   -1.2996 C.ar    1  UNL1       -0.0523
     32 C           1.6204    3.9307   -2.3954 C.ar    1  UNL1       -0.0429
     33 C           1.6682    3.2993   -3.6190 C.ar    1  UNL1        0.0437
     34 CL          2.3944    4.0856   -5.0092 Cl      1  UNL1       -0.0835
     35 C           1.1246    2.0292   -3.7068 C.ar    1  UNL1       -0.0078
     36 C           0.5537    1.4127   -2.6106 C.ar    1  UNL1        0.1300
     37 F           0.0186    0.1568   -2.7179 F       1  UNL1       -0.2051
     38 H          -2.1383   -2.5120    3.5829 H       1  UNL1        0.0660
     39 H          -3.8998   -2.0136    3.8490 H       1  UNL1        0.0660
     40 H          -3.4509   -3.5225    2.9433 H       1  UNL1        0.0660
     41 H          -5.8603   -4.7839    0.0044 H       1  UNL1        0.0831
     42 H          -5.8945   -3.5140   -2.0604 H       1  UNL1        0.0633
     43 H          -4.6379   -1.3447   -2.2698 H       1  UNL1        0.0641
     44 H          -2.6397    3.5725   -1.9447 H       1  UNL1        0.0293
     45 H          -3.9186    3.6861   -0.7044 H       1  UNL1        0.0293
     46 H          -2.1467    3.9127   -0.2664 H       1  UNL1        0.0293
     47 H           2.3493   -0.6367   -1.6293 H       1  UNL1        0.0640
     48 H           5.8890   -0.6928   -1.2601 H       1  UNL1        0.0279
     49 H           4.5001   -1.1340   -2.3772 H       1  UNL1        0.0279
     50 H           5.1205   -2.3626   -1.2629 H       1  UNL1        0.0279
     51 H           2.4998   -0.0038    4.3312 H       1  UNL1        0.0308
     52 H           3.7915   -0.9222    5.1660 H       1  UNL1        0.0308
     53 H           3.9794    0.8680    4.7715 H       1  UNL1        0.0308
     54 H           1.6063    0.1153    2.4637 H       1  UNL1        0.0833
     55 H           0.0744    2.0258    0.6788 H       1  UNL1        0.0607
     56 H           1.0233    3.8276   -0.3517 H       1  UNL1        0.0622
     57 H           2.0474    4.9257   -2.3315 H       1  UNL1        0.0632
     58 H           1.1629    1.5358   -4.6668 H       1  UNL1        0.0661
@<TRIPOS>BOND
     1     1     2    1
     2     2     3    1
     3     3     4   ar
     4     4     5   ar
     5     5     6   ar
     6     6     7   ar
     7     7     8   ar
     8     8     9    1
     9     9    10   ar
    10    10    11   ar
    11    11    12    1
    12    11    13   ar
    13    13    14   ar
    14    14    15    1
    15    15    16    2
    16    15    17   am
    17    17    18    1
    18    18    19   ar
    19    19    20   ar
    20    20    21    1
    21    20    22   ar
    22    22    23   ar
    23    23    24   ar
    24    24    25   ar
    25    25    26    1
    26    25    27   ar
    27    27    28   ar
    28    17    29    1
    29    29    30    1
    30    30    31   ar
    31    31    32   ar
    32    32    33   ar
    33    33    34    1
    34    33    35   ar
    35    35    36   ar
    36    36    37    1
    37     8     3   ar
    38    14     9   ar
    39    28    18   ar
    40    36    30   ar
    41    29    13    1
    42    27    22   ar
    43     1    38    1
    44     1    39    1
    45     1    40    1
    46     5    41    1
    47     6    42    1
    48     7    43    1
    49    12    44    1
    50    12    45    1
    51    12    46    1
    52    19    47    1
    53    21    48    1
    54    21    49    1
    55    21    50    1
    56    26    51    1
    57    26    52    1
    58    26    53    1
    59    28    54    1
    60    29    55    1
    61    31    56    1
    62    32    57    1
    63    35    58    1
