@<TRIPOS>MOLECULE
*****
 48 51 0 0 0
SMALL
GASTEIGER

@<TRIPOS>ATOM
      1 C          -1.5076   -2.9178    2.4840 C.3     1  UNL1       -0.0390
      2 C          -1.4270   -1.8058    1.5345 C.ar    1  UNL1       -0.0380
      3 C          -2.4895   -1.6687    0.6230 C.ar    1  UNL1       -0.0182
      4 C          -2.4726   -0.6509   -0.2887 C.ar    1  UNL1        0.1223
      5 N          -3.5015   -0.4593   -1.2287 N.pl3   1  UNL1       -0.3108
      6 C          -3.4963    0.6879   -2.1499 C.3     1  UNL1        0.0370
      7 C          -4.9169    1.2166   -2.2246 C.3     1  UNL1        0.0634
      8 O          -5.7048    0.7894   -1.1665 O.3     1  UNL1       -0.3767
      9 C          -5.9012   -0.5782   -1.1167 C.3     1  UNL1        0.0634
     10 C          -4.6086   -1.3462   -1.3599 C.3     1  UNL1        0.0370
     11 N          -1.4033    0.2167   -0.2839 N.ar    1  UNL1       -0.2320
     12 C          -0.3781    0.1188    0.5647 C.ar    1  UNL1        0.0736
     13 C           0.6774    1.0399    0.5131 C.ar    1  UNL1       -0.0322
     14 C           1.7233    0.9262    1.3933 C.ar    1  UNL1       -0.0409
     15 C           2.8342    1.9006    1.3241 C.3     1  UNL1        0.0023
     16 C           4.0116    1.4310    0.5841 C.ar    1  UNL1        0.0146
     17 C           5.1295    0.9979    1.2602 C.ar    1  UNL1        0.0379
     18 N           6.2265    0.5575    0.6203 N.ar    1  UNL1       -0.2227
     19 C           6.2728    0.5234   -0.7194 C.ar    1  UNL1        0.2142
     20 N           7.4641    0.0469   -1.3397 N.pl3   1  UNL1       -0.3274
     21 N           5.2028    0.9374   -1.4151 N.ar    1  UNL1       -0.1999
     22 C           4.0771    1.3890   -0.7843 C.ar    1  UNL1        0.1247
     23 N           3.0152    1.8029   -1.6066 N.pl3   1  UNL1       -0.3428
     24 C           1.6996   -0.1091    2.3157 C.ar    1  UNL1       -0.0576
     25 C           0.6593   -1.0120    2.3624 C.ar    1  UNL1       -0.0520
     26 C          -0.3961   -0.9055    1.4812 C.ar    1  UNL1        0.0034
     27 H          -0.5431   -3.3946    2.7367 H       1  UNL1        0.0278
     28 H          -2.0882   -2.6185    3.4037 H       1  UNL1        0.0278
     29 H          -2.1104   -3.7249    2.0179 H       1  UNL1        0.0278
     30 H          -3.3131   -2.3650    0.6497 H       1  UNL1        0.0655
     31 H          -2.7631    1.4490   -1.8573 H       1  UNL1        0.0487
     32 H          -3.2155    0.3266   -3.1609 H       1  UNL1        0.0487
     33 H          -5.4291    0.9638   -3.1549 H       1  UNL1        0.0575
     34 H          -4.8325    2.3293   -2.1069 H       1  UNL1        0.0575
     35 H          -6.6304   -0.8385   -1.8909 H       1  UNL1        0.0575
     36 H          -6.2549   -0.8551   -0.1151 H       1  UNL1        0.0575
     37 H          -4.5902   -2.2682   -0.7813 H       1  UNL1        0.0487
     38 H          -4.6123   -1.6782   -2.4413 H       1  UNL1        0.0487
     39 H           0.6285    1.8291   -0.2293 H       1  UNL1        0.0642
     40 H           2.4946    2.8739    0.9017 H       1  UNL1        0.0363
     41 H           3.0939    2.1510    2.3916 H       1  UNL1        0.0363
     42 H           5.1634    0.9964    2.3410 H       1  UNL1        0.0834
     43 H           7.3699   -0.7659   -1.9856 H       1  UNL1        0.1452
     44 H           8.3980    0.4735   -1.1725 H       1  UNL1        0.1452
     45 H           2.9510    2.8185   -1.8450 H       1  UNL1        0.1437
     46 H           2.2960    1.1600   -1.9880 H       1  UNL1        0.1437
     47 H           2.5280   -0.1810    2.9973 H       1  UNL1        0.0621
     48 H           0.6695   -1.8098    3.0953 H       1  UNL1        0.0624
@<TRIPOS>BOND
     1     1     2    1
     2     2     3   ar
     3     3     4   ar
     4     4     5    1
     5     5     6    1
     6     6     7    1
     7     7     8    1
     8     8     9    1
     9     9    10    1
    10     4    11   ar
    11    11    12   ar
    12    12    13   ar
    13    13    14   ar
    14    14    15    1
    15    15    16    1
    16    16    17   ar
    17    17    18   ar
    18    18    19   ar
    19    19    20    1
    20    19    21   ar
    21    21    22   ar
    22    22    23    1
    23    14    24   ar
    24    24    25   ar
    25    25    26   ar
    26    26     2   ar
    27    10     5    1
    28    26    12   ar
    29    22    16   ar
    30     1    27    1
    31     1    28    1
    32     1    29    1
    33     3    30    1
    34     6    31    1
    35     6    32    1
    36     7    33    1
    37     7    34    1
    38     9    35    1
    39     9    36    1
    40    10    37    1
    41    10    38    1
    42    13    39    1
    43    15    40    1
    44    15    41    1
    45    17    42    1
    46    20    43    1
    47    20    44    1
    48    23    45    1
    49    23    46    1
    50    24    47    1
    51    25    48    1
