@<TRIPOS>MOLECULE
*****
 37 39 0 0 0
SMALL
GASTEIGER

@<TRIPOS>ATOM
      1 C          -1.9294    0.1029   -2.1485 C.3     1  UNL1       -0.0457
      2 C          -1.5280   -0.6455   -0.8863 C.3     1  UNL1        0.0278
      3 N          -2.4719   -1.7966   -0.8758 N.3     1  UNL1       -0.3238
      4 C          -1.8147    0.1501    0.3256 C.ar    1  UNL1       -0.0247
      5 C          -3.0818   -0.0467    0.8941 C.ar    1  UNL1       -0.0384
      6 C          -3.5070    0.6179    2.0206 C.ar    1  UNL1        0.0413
      7 CL         -5.1143    0.3385    2.7041 Cl      1  UNL1       -0.0835
      8 C          -2.6299    1.4987    2.5801 C.ar    1  UNL1       -0.0431
      9 C          -1.3953    1.7025    2.0408 C.ar    1  UNL1       -0.0552
     10 C          -0.9492    1.0296    0.8913 C.ar    1  UNL1       -0.0230
     11 C           0.3694    1.3881    0.4299 C.3     1  UNL1        0.0510
     12 N           1.4748    0.5246    0.5199 N.ar    1  UNL1       -0.3149
     13 C           2.1590    0.2341    1.6598 C.ar    1  UNL1        0.1614
     14 S           1.6018    0.8345    3.0603 S.2     1  UNL1       -0.0128
     15 N           3.2619   -0.5127    1.7191 N.ar    1  UNL1       -0.3009
     16 C           3.8087   -1.0580    0.6259 C.ar    1  UNL1        0.2761
     17 O           4.8445   -1.7634    0.6651 O.2     1  UNL1       -0.2655
     18 C           3.1739   -0.8062   -0.5602 C.ar    1  UNL1        0.1283
     19 N           3.5048   -1.1871   -1.7986 N.ar    1  UNL1       -0.3553
     20 C           2.6138   -0.6819   -2.6664 C.ar    1  UNL1        0.0043
     21 C           1.7008    0.0342   -1.9462 C.ar    1  UNL1       -0.0200
     22 C           2.0241   -0.0221   -0.5861 C.ar    1  UNL1        0.0743
     23 H          -3.0307    0.0954   -2.2025 H       1  UNL1        0.0248
     24 H          -1.5054    1.1265   -2.1712 H       1  UNL1        0.0248
     25 H          -1.4789   -0.4271   -3.0189 H       1  UNL1        0.0248
     26 H          -0.5465   -1.0971   -0.9030 H       1  UNL1        0.0505
     27 H          -2.1109   -2.4790   -1.6079 H       1  UNL1        0.1188
     28 H          -2.4607   -2.2348    0.0719 H       1  UNL1        0.1188
     29 H          -3.7938   -0.7439    0.4597 H       1  UNL1        0.0635
     30 H          -2.9683    2.0269    3.4758 H       1  UNL1        0.0632
     31 H          -0.7449    2.4316    2.5193 H       1  UNL1        0.0621
     32 H           0.2940    1.6793   -0.6839 H       1  UNL1        0.0542
     33 H           0.7124    2.3884    0.8584 H       1  UNL1        0.0542
     34 H           3.7565   -0.7093    2.6319 H       1  UNL1        0.1709
     35 H           4.3257   -1.7837   -2.0581 H       1  UNL1        0.1655
     36 H           2.5850   -0.7946   -3.7404 H       1  UNL1        0.0807
     37 H           0.8506    0.5857   -2.2993 H       1  UNL1        0.0653
@<TRIPOS>BOND
     1     1     2    1
     2     2     3    1
     3     2     4    1
     4     4     5   ar
     5     5     6   ar
     6     6     7    1
     7     6     8   ar
     8     8     9   ar
     9     9    10   ar
    10    10    11    1
    11    11    12    1
    12    12    13   ar
    13    13    14    2
    14    13    15   ar
    15    15    16   ar
    16    16    17    2
    17    16    18   ar
    18    18    19   ar
    19    19    20   ar
    20    20    21   ar
    21    21    22   ar
    22    10     4   ar
    23    22    12   ar
    24    22    18   ar
    25     1    23    1
    26     1    24    1
    27     1    25    1
    28     2    26    1
    29     3    27    1
    30     3    28    1
    31     5    29    1
    32     8    30    1
    33     9    31    1
    34    11    32    1
    35    11    33    1
    36    15    34    1
    37    19    35    1
    38    20    36    1
    39    21    37    1
