
     RDKit          3D

 37 39  0  0  0  0  0  0  0  0999 V2000
   -1.9294    0.1029   -2.1485 C   0  0  0  0  0  0  0  0  0  0  0  0
   -1.5280   -0.6455   -0.8863 C   0  0  2  0  0  0  0  0  0  0  0  0
   -2.4719   -1.7966   -0.8758 N   0  0  0  0  0  0  0  0  0  0  0  0
   -1.8147    0.1501    0.3256 C   0  0  0  0  0  0  0  0  0  0  0  0
   -3.0818   -0.0467    0.8941 C   0  0  0  0  0  0  0  0  0  0  0  0
   -3.5070    0.6179    2.0206 C   0  0  0  0  0  0  0  0  0  0  0  0
   -5.1143    0.3385    2.7041 Cl  0  0  0  0  0  0  0  0  0  0  0  0
   -2.6299    1.4987    2.5801 C   0  0  0  0  0  0  0  0  0  0  0  0
   -1.3953    1.7025    2.0408 C   0  0  0  0  0  0  0  0  0  0  0  0
   -0.9492    1.0296    0.8913 C   0  0  0  0  0  0  0  0  0  0  0  0
    0.3694    1.3881    0.4299 C   0  0  0  0  0  0  0  0  0  0  0  0
    1.4748    0.5246    0.5199 N   0  0  0  0  0  0  0  0  0  0  0  0
    2.1590    0.2341    1.6598 C   0  0  0  0  0  0  0  0  0  0  0  0
    1.6018    0.8345    3.0603 S   0  0  0  0  0  0  0  0  0  0  0  0
    3.2619   -0.5127    1.7191 N   0  0  0  0  0  0  0  0  0  0  0  0
    3.8087   -1.0580    0.6259 C   0  0  0  0  0  0  0  0  0  0  0  0
    4.8445   -1.7634    0.6651 O   0  0  0  0  0  0  0  0  0  0  0  0
    3.1739   -0.8062   -0.5602 C   0  0  0  0  0  0  0  0  0  0  0  0
    3.5048   -1.1871   -1.7986 N   0  0  0  0  0  0  0  0  0  0  0  0
    2.6138   -0.6819   -2.6664 C   0  0  0  0  0  0  0  0  0  0  0  0
    1.7008    0.0342   -1.9462 C   0  0  0  0  0  0  0  0  0  0  0  0
    2.0241   -0.0221   -0.5861 C   0  0  0  0  0  0  0  0  0  0  0  0
   -3.0307    0.0954   -2.2025 H   0  0  0  0  0  0  0  0  0  0  0  0
   -1.5054    1.1265   -2.1712 H   0  0  0  0  0  0  0  0  0  0  0  0
   -1.4789   -0.4271   -3.0189 H   0  0  0  0  0  0  0  0  0  0  0  0
   -0.5465   -1.0971   -0.9030 H   0  0  0  0  0  0  0  0  0  0  0  0
   -2.1109   -2.4790   -1.6079 H   0  0  0  0  0  0  0  0  0  0  0  0
   -2.4607   -2.2348    0.0719 H   0  0  0  0  0  0  0  0  0  0  0  0
   -3.7938   -0.7439    0.4597 H   0  0  0  0  0  0  0  0  0  0  0  0
   -2.9683    2.0269    3.4758 H   0  0  0  0  0  0  0  0  0  0  0  0
   -0.7449    2.4316    2.5193 H   0  0  0  0  0  0  0  0  0  0  0  0
    0.2940    1.6793   -0.6839 H   0  0  0  0  0  0  0  0  0  0  0  0
    0.7124    2.3884    0.8584 H   0  0  0  0  0  0  0  0  0  0  0  0
    3.7565   -0.7093    2.6319 H   0  0  0  0  0  0  0  0  0  0  0  0
    4.3257   -1.7837   -2.0581 H   0  0  0  0  0  0  0  0  0  0  0  0
    2.5850   -0.7946   -3.7404 H   0  0  0  0  0  0  0  0  0  0  0  0
    0.8506    0.5857   -2.2993 H   0  0  0  0  0  0  0  0  0  0  0  0
  1  2  1  0
  2  3  1  0
  2  4  1  0
  4  5  2  0
  5  6  1  0
  6  7  1  0
  6  8  2  0
  8  9  1  0
  9 10  2  0
 10 11  1  0
 11 12  1  0
 12 13  1  0
 13 14  2  0
 13 15  1  0
 15 16  1  0
 16 17  2  0
 16 18  1  0
 18 19  1  0
 19 20  1  0
 20 21  2  0
 21 22  1  0
 10  4  1  0
 22 12  1  0
 22 18  2  0
  1 23  1  0
  1 24  1  0
  1 25  1  0
  2 26  1  6
  3 27  1  0
  3 28  1  0
  5 29  1  0
  8 30  1  0
  9 31  1  0
 11 32  1  0
 11 33  1  0
 15 34  1  0
 19 35  1  0
 20 36  1  0
 21 37  1  0
M  END
$$$$
