
     RDKit          3D

 43 45  0  0  0  0  0  0  0  0999 V2000
    1.0510   -0.9307    1.0851 C   0  0  0  0  0  0  0  0  0  0  0  0
    1.2160   -0.0150   -0.1471 C   0  0  0  0  0  0  0  0  0  0  0  0
    2.5761   -0.3211   -0.7870 C   0  0  0  0  0  0  0  0  0  0  0  0
    3.5833   -0.0413    0.2211 N   0  0  0  0  0  0  0  0  0  0  0  0
    4.8952   -0.5130   -0.2236 C   0  0  0  0  0  0  0  0  0  0  0  0
    3.6654    1.4231    0.3904 C   0  0  0  0  0  0  0  0  0  0  0  0
    0.1179   -0.3165   -1.1273 C   0  0  0  0  0  0  0  0  0  0  0  0
   -1.2265   -0.1265   -0.6258 N   0  0  0  0  0  0  0  0  0  0  0  0
   -1.7036    1.1962   -0.4363 C   0  0  0  0  0  0  0  0  0  0  0  0
   -0.9197    2.2859   -0.7733 C   0  0  0  0  0  0  0  0  0  0  0  0
   -1.2929    3.6066   -0.6362 C   0  0  0  0  0  0  0  0  0  0  0  0
   -2.5475    3.8864   -0.1243 C   0  0  0  0  0  0  0  0  0  0  0  0
   -3.3674    2.8335    0.2258 C   0  0  0  0  0  0  0  0  0  0  0  0
   -2.9171    1.5555    0.0573 C   0  0  0  0  0  0  0  0  0  0  0  0
   -4.0809    0.3235    0.5379 S   0  0  0  0  0  0  0  0  0  0  0  0
   -3.2849   -1.2295    0.2085 C   0  0  0  0  0  0  0  0  0  0  0  0
   -4.0526   -2.2996    0.5203 C   0  0  0  0  0  0  0  0  0  0  0  0
   -3.5488   -3.5754    0.3201 C   0  0  0  0  0  0  0  0  0  0  0  0
   -2.2689   -3.6877   -0.1953 C   0  0  0  0  0  0  0  0  0  0  0  0
   -1.5634   -2.5195   -0.4821 C   0  0  0  0  0  0  0  0  0  0  0  0
   -2.0290   -1.2351   -0.2984 C   0  0  0  0  0  0  0  0  0  0  0  0
    0.0826   -0.7539    1.5581 H   0  0  0  0  0  0  0  0  0  0  0  0
    1.8449   -0.7540    1.8267 H   0  0  0  0  0  0  0  0  0  0  0  0
    1.1797   -1.9622    0.7017 H   0  0  0  0  0  0  0  0  0  0  0  0
    1.2792    0.9920    0.2540 H   0  0  0  0  0  0  0  0  0  0  0  0
    2.7787    0.3997   -1.6221 H   0  0  0  0  0  0  0  0  0  0  0  0
    2.6371   -1.3221   -1.2078 H   0  0  0  0  0  0  0  0  0  0  0  0
    5.1661   -1.4266    0.3605 H   0  0  0  0  0  0  0  0  0  0  0  0
    5.6164    0.2924   -0.0650 H   0  0  0  0  0  0  0  0  0  0  0  0
    4.8299   -0.7876   -1.2748 H   0  0  0  0  0  0  0  0  0  0  0  0
    3.4796    1.7358    1.4279 H   0  0  0  0  0  0  0  0  0  0  0  0
    4.6972    1.7561    0.1067 H   0  0  0  0  0  0  0  0  0  0  0  0
    2.9750    1.9192   -0.3073 H   0  0  0  0  0  0  0  0  0  0  0  0
    0.3252   -1.2867   -1.5813 H   0  0  0  0  0  0  0  0  0  0  0  0
    0.3117    0.4068   -1.9940 H   0  0  0  0  0  0  0  0  0  0  0  0
    0.0556    2.2190   -1.1960 H   0  0  0  0  0  0  0  0  0  0  0  0
   -0.6814    4.4589   -0.9021 H   0  0  0  0  0  0  0  0  0  0  0  0
   -2.8692    4.9214   -0.0054 H   0  0  0  0  0  0  0  0  0  0  0  0
   -4.3263    3.1132    0.6152 H   0  0  0  0  0  0  0  0  0  0  0  0
   -5.0559   -2.2819    0.9251 H   0  0  0  0  0  0  0  0  0  0  0  0
   -4.1217   -4.4595    0.5531 H   0  0  0  0  0  0  0  0  0  0  0  0
   -1.9089   -4.7001   -0.3404 H   0  0  0  0  0  0  0  0  0  0  0  0
   -0.5970   -2.7793   -0.8670 H   0  0  0  0  0  0  0  0  0  0  0  0
  1  2  1  0
  2  3  1  0
  3  4  1  0
  4  5  1  0
  4  6  1  0
  2  7  1  0
  7  8  1  0
  8  9  1  0
  9 10  2  0
 10 11  1  0
 11 12  2  0
 12 13  1  0
 13 14  2  0
 14 15  1  0
 15 16  1  0
 16 17  2  0
 17 18  1  0
 18 19  2  0
 19 20  1  0
 20 21  2  0
 21  8  1  0
 14  9  1  0
 21 16  1  0
  1 22  1  0
  1 23  1  0
  1 24  1  0
  2 25  1  0
  3 26  1  0
  3 27  1  0
  5 28  1  0
  5 29  1  0
  5 30  1  0
  6 31  1  0
  6 32  1  0
  6 33  1  0
  7 34  1  0
  7 35  1  0
 10 36  1  0
 11 37  1  0
 12 38  1  0
 13 39  1  0
 17 40  1  0
 18 41  1  0
 19 42  1  0
 20 43  1  0
M  END
$$$$
