
     RDKit          3D

 47 47  0  0  0  0  0  0  0  0999 V2000
   -1.3575   -0.2750    0.4651 C   0  0  0  0  0  0  0  0  0  0  0  0
   -0.4080   -0.0613   -0.3705 N   0  0  0  0  0  0  0  0  0  0  0  0
    0.8808   -0.6600   -0.1973 C   0  0  0  0  0  0  0  0  0  0  0  0
    1.8828    0.3013   -0.8147 C   0  0  0  0  0  0  0  0  0  0  0  0
    3.2566   -0.2880   -0.6686 C   0  0  0  0  0  0  0  0  0  0  0  0
    3.6935   -0.5357    0.7343 C   0  0  0  0  0  0  0  0  0  0  0  0
    5.1160   -1.1147    0.6377 C   0  0  2  0  0  0  0  0  0  0  0  0
    5.6275   -1.3931    1.9658 N   0  0  0  0  0  0  0  0  0  0  0  0
    5.9683   -0.0723    0.0016 C   0  0  0  0  0  0  0  0  0  0  0  0
    6.2779    0.7499   -1.0661 O   0  0  0  0  0  0  0  0  0  0  0  0
    6.7226    0.0266    0.9903 O   0  0  0  0  0  0  0  0  0  0  0  0
   -2.3583    0.5616   -0.2120 C   0  0  0  0  0  0  0  0  0  0  0  0
   -3.1554    0.0764   -1.2195 C   0  0  0  0  0  0  0  0  0  0  0  0
   -3.1960   -1.3190   -1.7035 C   0  0  0  0  0  0  0  0  0  0  0  0
   -3.9910   -2.1892   -1.0566 O   0  0  0  0  0  0  0  0  0  0  0  0
   -3.8270   -2.5479    0.5262 P   0  0  0  0  0  0  0  0  0  0  0  0
   -5.0567   -3.7090    0.9022 O   0  0  0  0  0  0  0  0  0  0  0  0
   -4.1655   -1.2508    1.5891 O   0  0  0  0  0  0  0  0  0  0  0  0
   -2.5416   -3.2364    0.9268 O   0  0  0  0  0  0  0  0  0  0  0  0
   -4.0386    1.0014   -1.8015 C   0  0  0  0  0  0  0  0  0  0  0  0
   -4.0996    2.2817   -1.3968 N   0  0  0  0  0  0  0  0  0  0  0  0
   -3.3345    2.7841   -0.4146 C   0  0  0  0  0  0  0  0  0  0  0  0
   -3.3421    4.1789    0.0880 C   0  0  0  0  0  0  0  0  0  0  0  0
   -2.4359    1.9018    0.1979 C   0  0  0  0  0  0  0  0  0  0  0  0
   -1.6059    2.3260    1.2182 O   0  0  0  0  0  0  0  0  0  0  0  0
   -1.2586   -0.8986    1.3357 H   0  0  0  0  0  0  0  0  0  0  0  0
    0.9962   -1.6271   -0.7039 H   0  0  0  0  0  0  0  0  0  0  0  0
    1.1598   -0.7612    0.8751 H   0  0  0  0  0  0  0  0  0  0  0  0
    1.8108    1.2735   -0.2727 H   0  0  0  0  0  0  0  0  0  0  0  0
    1.6037    0.4620   -1.8768 H   0  0  0  0  0  0  0  0  0  0  0  0
    3.3606   -1.2508   -1.2219 H   0  0  0  0  0  0  0  0  0  0  0  0
    3.9703    0.4077   -1.1689 H   0  0  0  0  0  0  0  0  0  0  0  0
    3.7076    0.3751    1.3561 H   0  0  0  0  0  0  0  0  0  0  0  0
    3.0694   -1.3168    1.2360 H   0  0  0  0  0  0  0  0  0  0  0  0
    5.1375   -2.0197    0.0156 H   0  0  0  0  0  0  0  0  0  0  0  0
    4.8374   -1.3443    2.6479 H   0  0  0  0  0  0  0  0  0  0  0  0
    6.0177   -2.3710    1.9642 H   0  0  0  0  0  0  0  0  0  0  0  0
    6.4118    1.7449   -0.9074 H   0  0  0  0  0  0  0  0  0  0  0  0
   -3.5851   -1.2592   -2.7711 H   0  0  0  0  0  0  0  0  0  0  0  0
   -2.1403   -1.7077   -1.8407 H   0  0  0  0  0  0  0  0  0  0  0  0
   -5.8594   -3.5002    0.3555 H   0  0  0  0  0  0  0  0  0  0  0  0
   -3.5058   -1.2418    2.3287 H   0  0  0  0  0  0  0  0  0  0  0  0
   -4.7048    0.6952   -2.6056 H   0  0  0  0  0  0  0  0  0  0  0  0
   -2.2770    4.5245    0.0944 H   0  0  0  0  0  0  0  0  0  0  0  0
   -3.7499    4.1808    1.1100 H   0  0  0  0  0  0  0  0  0  0  0  0
   -3.9256    4.8239   -0.6260 H   0  0  0  0  0  0  0  0  0  0  0  0
   -1.5890    3.2734    1.5440 H   0  0  0  0  0  0  0  0  0  0  0  0
  1  2  2  0
  2  3  1  0
  3  4  1  0
  4  5  1  0
  5  6  1  0
  6  7  1  0
  7  8  1  0
  7  9  1  0
  9 10  1  0
  9 11  2  0
  1 12  1  0
 12 13  2  0
 13 14  1  0
 14 15  1  0
 15 16  1  0
 16 17  1  0
 16 18  1  0
 16 19  2  0
 13 20  1  0
 20 21  2  0
 21 22  1  0
 22 23  1  0
 22 24  2  0
 24 25  1  0
 24 12  1  0
  1 26  1  0
  3 27  1  0
  3 28  1  0
  4 29  1  0
  4 30  1  0
  5 31  1  0
  5 32  1  0
  6 33  1  0
  6 34  1  0
  7 35  1  6
  8 36  1  0
  8 37  1  0
 10 38  1  0
 14 39  1  0
 14 40  1  0
 17 41  1  0
 18 42  1  0
 20 43  1  0
 23 44  1  0
 23 45  1  0
 23 46  1  0
 25 47  1  0
M  END
$$$$
