@<TRIPOS>MOLECULE
*****
 47 50 0 0 0
SMALL
GASTEIGER

@<TRIPOS>ATOM
      1 CL         10.8373    1.8879    1.2557 Cl      1  UNL1       -0.0758
      2 C           9.1408    1.2336    0.8156 C.ar    1  UNL1        0.0787
      3 C           8.9995    0.0284    0.0686 C.ar    1  UNL1       -0.0355
      4 C           7.7193   -0.3189   -0.1730 C.ar    1  UNL1       -0.0411
      5 C           6.6861    0.4063    0.2527 C.ar    1  UNL1        0.0752
      6 S           7.3813    1.7621    1.1045 S.2     1  UNL1       -0.0722
      7 C           5.2328    0.2733    0.1394 C.2     1  UNL1        0.2508
      8 O           4.5260    1.1644    0.6744 O.2     1  UNL1       -0.2696
      9 N           4.6046   -0.7855   -0.5277 N.am    1  UNL1       -0.3073
     10 C           3.2082   -1.0488   -0.7229 C.3     1  UNL1        0.0506
     11 C           2.4560    0.0028   -1.4774 C.3     1  UNL1        0.1361
     12 C           0.9910   -0.3630   -1.4775 C.3     1  UNL1        0.0616
     13 N           0.3850    0.4584   -0.4450 N.am    1  UNL1       -0.2337
     14 C           1.3629    1.3967   -0.0180 C.2     1  UNL1        0.4076
     15 O           1.0865    2.1086    0.9910 O.2     1  UNL1       -0.2259
     16 O           2.4498    1.2709   -0.8947 O.3     1  UNL1       -0.4436
     17 C          -0.9732    0.2008   -0.0729 C.ar    1  UNL1        0.0397
     18 C          -1.8821    0.9269   -0.8288 C.ar    1  UNL1       -0.0384
     19 C          -3.2463    0.8539   -0.6626 C.ar    1  UNL1       -0.0385
     20 C          -3.7202   -0.0088    0.3323 C.ar    1  UNL1        0.0365
     21 C          -2.8238   -0.7337    1.0877 C.ar    1  UNL1       -0.0385
     22 C          -1.4650   -0.6530    0.9131 C.ar    1  UNL1       -0.0384
     23 N          -5.1173   -0.1119    0.5344 N.am    1  UNL1       -0.2673
     24 C          -5.9975    0.6626    1.4200 C.3     1  UNL1        0.0433
     25 C          -7.2321   -0.1986    1.6373 C.3     1  UNL1        0.0644
     26 O          -7.8951   -0.3689    0.4270 O.3     1  UNL1       -0.3690
     27 C          -7.2216   -1.2149   -0.4418 C.3     1  UNL1        0.1242
     28 C          -5.7428   -1.1378   -0.2604 C.2     1  UNL1        0.2456
     29 O          -5.0965   -2.0456   -0.8617 O.2     1  UNL1       -0.2727
     30 H           9.8680   -0.5264   -0.2553 H       1  UNL1        0.0638
     31 H           7.4476   -1.2188   -0.7344 H       1  UNL1        0.0631
     32 H           5.3097   -1.4735   -0.9351 H       1  UNL1        0.1492
     33 H           2.6664   -1.1582    0.2659 H       1  UNL1        0.0499
     34 H           3.0716   -2.0135   -1.2180 H       1  UNL1        0.0499
     35 H           2.7588    0.0462   -2.5513 H       1  UNL1        0.0766
     36 H           0.5233   -0.1839   -2.4697 H       1  UNL1        0.0507
     37 H           0.8833   -1.4150   -1.1653 H       1  UNL1        0.0507
     38 H          -1.5982    1.6234   -1.6260 H       1  UNL1        0.0637
     39 H          -3.9591    1.4165   -1.2480 H       1  UNL1        0.0637
     40 H          -3.1605   -1.4034    1.8580 H       1  UNL1        0.0637
     41 H          -0.6884   -1.1656    1.4385 H       1  UNL1        0.0637
     42 H          -6.3337    1.5503    0.8336 H       1  UNL1        0.0491
     43 H          -5.5182    0.9261    2.3687 H       1  UNL1        0.0491
     44 H          -7.9051    0.3729    2.3066 H       1  UNL1        0.0576
     45 H          -6.9718   -1.1563    2.1255 H       1  UNL1        0.0576
     46 H          -7.5385   -0.9542   -1.4724 H       1  UNL1        0.0657
     47 H          -7.5088   -2.2972   -0.3107 H       1  UNL1        0.0657
@<TRIPOS>BOND
     1     1     2    1
     2     2     3   ar
     3     3     4   ar
     4     4     5   ar
     5     5     6   ar
     6     5     7    1
     7     7     8    2
     8     7     9   am
     9     9    10    1
    10    10    11    1
    11    11    12    1
    12    12    13    1
    13    13    14   am
    14    14    15    2
    15    14    16    1
    16    13    17    1
    17    17    18   ar
    18    18    19   ar
    19    19    20   ar
    20    20    21   ar
    21    21    22   ar
    22    20    23    1
    23    23    24    1
    24    24    25    1
    25    25    26    1
    26    26    27    1
    27    27    28    1
    28    28    29    2
    29     6     2   ar
    30    16    11    1
    31    22    17   ar
    32    28    23   am
    33     3    30    1
    34     4    31    1
    35     9    32    1
    36    10    33    1
    37    10    34    1
    38    11    35    1
    39    12    36    1
    40    12    37    1
    41    18    38    1
    42    19    39    1
    43    21    40    1
    44    22    41    1
    45    24    42    1
    46    24    43    1
    47    25    44    1
    48    25    45    1
    49    27    46    1
    50    27    47    1
