@<TRIPOS>MOLECULE
*****
 52 55 0 0 0
SMALL
GASTEIGER

@<TRIPOS>ATOM
      1 C          -7.3502   -0.2761    2.1799 C.3     1  UNL1       -0.0653
      2 C          -6.8664   -0.0600    0.7812 C.3     1  UNL1       -0.0558
      3 C          -5.3905    0.2783    0.7823 C.3     1  UNL1       -0.0502
      4 C          -4.6603   -0.8721    1.4038 C.3     1  UNL1       -0.0186
      5 C          -3.1574   -0.6295    1.4530 C.3     1  UNL1        0.0896
      6 O          -2.6704   -0.4526    0.1608 O.3     1  UNL1       -0.4914
      7 C          -1.3411   -0.2112   -0.1523 C.ar    1  UNL1        0.1282
      8 C          -0.3566   -0.1223    0.8108 C.ar    1  UNL1       -0.0186
      9 C           0.9608    0.1180    0.4906 C.ar    1  UNL1       -0.0469
     10 C           1.3036    0.2761   -0.8604 C.ar    1  UNL1        0.0302
     11 C           2.7124    0.5513   -1.1644 C.2     1  UNL1        0.1943
     12 O           3.0686    1.4610   -1.9384 O.2     1  UNL1       -0.2866
     13 C           3.6974   -0.3002   -0.5110 C.ar    1  UNL1        0.0300
     14 C           3.5208   -1.6860   -0.5134 C.ar    1  UNL1       -0.0503
     15 C           4.4103   -2.5525    0.0670 C.ar    1  UNL1       -0.0605
     16 C           5.5159   -2.0270    0.6724 C.ar    1  UNL1       -0.0540
     17 C           5.7619   -0.6615    0.7171 C.ar    1  UNL1       -0.0172
     18 C           6.8824   -0.1761    1.3392 C.ar    1  UNL1       -0.0540
     19 C           7.1173    1.1702    1.3845 C.ar    1  UNL1       -0.0612
     20 C           6.2134    2.0057    0.7989 C.ar    1  UNL1       -0.0611
     21 C           5.0709    1.5145    0.1643 C.ar    1  UNL1       -0.0533
     22 C           4.8338    0.1629    0.1175 C.ar    1  UNL1       -0.0071
     23 C           0.3580    0.1957   -1.8608 C.ar    1  UNL1       -0.0036
     24 C           0.7057    0.3469   -3.1891 C.ar    1  UNL1       -0.0532
     25 C          -0.2822    0.2520   -4.1463 C.ar    1  UNL1       -0.0611
     26 C          -1.5896    0.0113   -3.7877 C.ar    1  UNL1       -0.0611
     27 C          -1.9153   -0.1367   -2.4607 C.ar    1  UNL1       -0.0505
     28 C          -0.9575   -0.0494   -1.4702 C.ar    1  UNL1        0.0245
     29 H          -7.1149   -1.3317    2.4998 H       1  UNL1        0.0230
     30 H          -6.7636    0.3771    2.8737 H       1  UNL1        0.0230
     31 H          -8.4302   -0.0520    2.3132 H       1  UNL1        0.0230
     32 H          -7.4706    0.6757    0.2069 H       1  UNL1        0.0263
     33 H          -6.9897   -1.0415    0.2370 H       1  UNL1        0.0263
     34 H          -5.2575    1.2078    1.3959 H       1  UNL1        0.0266
     35 H          -5.0319    0.5317   -0.2267 H       1  UNL1        0.0266
     36 H          -4.8148   -1.7717    0.7807 H       1  UNL1        0.0298
     37 H          -5.0668   -1.0076    2.4344 H       1  UNL1        0.0298
     38 H          -3.0370    0.3491    2.0032 H       1  UNL1        0.0696
     39 H          -2.6549   -1.4036    2.0454 H       1  UNL1        0.0696
     40 H          -0.6374   -0.2464    1.8462 H       1  UNL1        0.0654
     41 H           1.7492    0.1909    1.2400 H       1  UNL1        0.0626
     42 H           2.6397   -2.0694   -0.9984 H       1  UNL1        0.0625
     43 H           4.2337   -3.6212    0.0415 H       1  UNL1        0.0618
     44 H           6.2662   -2.6682    1.1553 H       1  UNL1        0.0624
     45 H           7.5926   -0.8478    1.8004 H       1  UNL1        0.0624
     46 H           8.0000    1.5526    1.8744 H       1  UNL1        0.0618
     47 H           6.3988    3.0816    0.8340 H       1  UNL1        0.0618
     48 H           4.3981    2.2133   -0.2706 H       1  UNL1        0.0624
     49 H           1.7319    0.5308   -3.4886 H       1  UNL1        0.0624
     50 H          -0.0134    0.3718   -5.2104 H       1  UNL1        0.0618
     51 H          -2.3800   -0.0666   -4.5228 H       1  UNL1        0.0618
     52 H          -2.9429   -0.3294   -2.1331 H       1  UNL1        0.0625
@<TRIPOS>BOND
     1     1     2    1
     2     2     3    1
     3     3     4    1
     4     4     5    1
     5     5     6    1
     6     6     7    1
     7     7     8   ar
     8     8     9   ar
     9     9    10   ar
    10    10    11    1
    11    11    12    2
    12    11    13    1
    13    13    14   ar
    14    14    15   ar
    15    15    16   ar
    16    16    17   ar
    17    17    18   ar
    18    18    19   ar
    19    19    20   ar
    20    20    21   ar
    21    21    22   ar
    22    10    23   ar
    23    23    24   ar
    24    24    25   ar
    25    25    26   ar
    26    26    27   ar
    27    27    28   ar
    28    28     7   ar
    29    22    13   ar
    30    28    23   ar
    31    22    17   ar
    32     1    29    1
    33     1    30    1
    34     1    31    1
    35     2    32    1
    36     2    33    1
    37     3    34    1
    38     3    35    1
    39     4    36    1
    40     4    37    1
    41     5    38    1
    42     5    39    1
    43     8    40    1
    44     9    41    1
    45    14    42    1
    46    15    43    1
    47    16    44    1
    48    18    45    1
    49    19    46    1
    50    20    47    1
    51    21    48    1
    52    24    49    1
    53    25    50    1
    54    26    51    1
    55    27    52    1
