
     RDKit          3D

 52 55  0  0  0  0  0  0  0  0999 V2000
   -7.3502   -0.2761    2.1799 C   0  0  0  0  0  0  0  0  0  0  0  0
   -6.8664   -0.0600    0.7812 C   0  0  0  0  0  0  0  0  0  0  0  0
   -5.3905    0.2783    0.7823 C   0  0  0  0  0  0  0  0  0  0  0  0
   -4.6603   -0.8721    1.4038 C   0  0  0  0  0  0  0  0  0  0  0  0
   -3.1574   -0.6295    1.4530 C   0  0  0  0  0  0  0  0  0  0  0  0
   -2.6704   -0.4526    0.1608 O   0  0  0  0  0  0  0  0  0  0  0  0
   -1.3411   -0.2112   -0.1523 C   0  0  0  0  0  0  0  0  0  0  0  0
   -0.3566   -0.1223    0.8108 C   0  0  0  0  0  0  0  0  0  0  0  0
    0.9608    0.1180    0.4906 C   0  0  0  0  0  0  0  0  0  0  0  0
    1.3036    0.2761   -0.8604 C   0  0  0  0  0  0  0  0  0  0  0  0
    2.7124    0.5513   -1.1644 C   0  0  0  0  0  0  0  0  0  0  0  0
    3.0686    1.4610   -1.9384 O   0  0  0  0  0  0  0  0  0  0  0  0
    3.6974   -0.3002   -0.5110 C   0  0  0  0  0  0  0  0  0  0  0  0
    3.5208   -1.6860   -0.5134 C   0  0  0  0  0  0  0  0  0  0  0  0
    4.4103   -2.5525    0.0670 C   0  0  0  0  0  0  0  0  0  0  0  0
    5.5159   -2.0270    0.6724 C   0  0  0  0  0  0  0  0  0  0  0  0
    5.7619   -0.6615    0.7171 C   0  0  0  0  0  0  0  0  0  0  0  0
    6.8824   -0.1761    1.3392 C   0  0  0  0  0  0  0  0  0  0  0  0
    7.1173    1.1702    1.3845 C   0  0  0  0  0  0  0  0  0  0  0  0
    6.2134    2.0057    0.7989 C   0  0  0  0  0  0  0  0  0  0  0  0
    5.0709    1.5145    0.1643 C   0  0  0  0  0  0  0  0  0  0  0  0
    4.8338    0.1629    0.1175 C   0  0  0  0  0  0  0  0  0  0  0  0
    0.3580    0.1957   -1.8608 C   0  0  0  0  0  0  0  0  0  0  0  0
    0.7057    0.3469   -3.1891 C   0  0  0  0  0  0  0  0  0  0  0  0
   -0.2822    0.2520   -4.1463 C   0  0  0  0  0  0  0  0  0  0  0  0
   -1.5896    0.0113   -3.7877 C   0  0  0  0  0  0  0  0  0  0  0  0
   -1.9153   -0.1367   -2.4607 C   0  0  0  0  0  0  0  0  0  0  0  0
   -0.9575   -0.0494   -1.4702 C   0  0  0  0  0  0  0  0  0  0  0  0
   -7.1149   -1.3317    2.4998 H   0  0  0  0  0  0  0  0  0  0  0  0
   -6.7636    0.3771    2.8737 H   0  0  0  0  0  0  0  0  0  0  0  0
   -8.4302   -0.0520    2.3132 H   0  0  0  0  0  0  0  0  0  0  0  0
   -7.4706    0.6757    0.2069 H   0  0  0  0  0  0  0  0  0  0  0  0
   -6.9897   -1.0415    0.2370 H   0  0  0  0  0  0  0  0  0  0  0  0
   -5.2575    1.2078    1.3959 H   0  0  0  0  0  0  0  0  0  0  0  0
   -5.0319    0.5317   -0.2267 H   0  0  0  0  0  0  0  0  0  0  0  0
   -4.8148   -1.7717    0.7807 H   0  0  0  0  0  0  0  0  0  0  0  0
   -5.0668   -1.0076    2.4344 H   0  0  0  0  0  0  0  0  0  0  0  0
   -3.0370    0.3491    2.0032 H   0  0  0  0  0  0  0  0  0  0  0  0
   -2.6549   -1.4036    2.0454 H   0  0  0  0  0  0  0  0  0  0  0  0
   -0.6374   -0.2464    1.8462 H   0  0  0  0  0  0  0  0  0  0  0  0
    1.7492    0.1909    1.2400 H   0  0  0  0  0  0  0  0  0  0  0  0
    2.6397   -2.0694   -0.9984 H   0  0  0  0  0  0  0  0  0  0  0  0
    4.2337   -3.6212    0.0415 H   0  0  0  0  0  0  0  0  0  0  0  0
    6.2662   -2.6682    1.1553 H   0  0  0  0  0  0  0  0  0  0  0  0
    7.5926   -0.8478    1.8004 H   0  0  0  0  0  0  0  0  0  0  0  0
    8.0000    1.5526    1.8744 H   0  0  0  0  0  0  0  0  0  0  0  0
    6.3988    3.0816    0.8340 H   0  0  0  0  0  0  0  0  0  0  0  0
    4.3981    2.2133   -0.2706 H   0  0  0  0  0  0  0  0  0  0  0  0
    1.7319    0.5308   -3.4886 H   0  0  0  0  0  0  0  0  0  0  0  0
   -0.0134    0.3718   -5.2104 H   0  0  0  0  0  0  0  0  0  0  0  0
   -2.3800   -0.0666   -4.5228 H   0  0  0  0  0  0  0  0  0  0  0  0
   -2.9429   -0.3294   -2.1331 H   0  0  0  0  0  0  0  0  0  0  0  0
  1  2  1  0
  2  3  1  0
  3  4  1  0
  4  5  1  0
  5  6  1  0
  6  7  1  0
  7  8  2  0
  8  9  1  0
  9 10  2  0
 10 11  1  0
 11 12  2  0
 11 13  1  0
 13 14  2  0
 14 15  1  0
 15 16  2  0
 16 17  1  0
 17 18  2  0
 18 19  1  0
 19 20  2  0
 20 21  1  0
 21 22  2  0
 10 23  1  0
 23 24  2  0
 24 25  1  0
 25 26  2  0
 26 27  1  0
 27 28  2  0
 28  7  1  0
 22 13  1  0
 28 23  1  0
 22 17  1  0
  1 29  1  0
  1 30  1  0
  1 31  1  0
  2 32  1  0
  2 33  1  0
  3 34  1  0
  3 35  1  0
  4 36  1  0
  4 37  1  0
  5 38  1  0
  5 39  1  0
  8 40  1  0
  9 41  1  0
 14 42  1  0
 15 43  1  0
 16 44  1  0
 18 45  1  0
 19 46  1  0
 20 47  1  0
 21 48  1  0
 24 49  1  0
 25 50  1  0
 26 51  1  0
 27 52  1  0
M  END
$$$$
