
     RDKit          3D

 58 61  0  0  0  0  0  0  0  0999 V2000
   -7.0392    1.7917   -0.5858 C   0  0  0  0  0  0  0  0  0  0  0  0
   -5.8734    0.9869   -0.1581 C   0  0  0  0  0  0  0  0  0  0  0  0
   -4.6480    1.1539   -0.7966 C   0  0  0  0  0  0  0  0  0  0  0  0
   -4.5606    2.1560   -1.9059 C   0  0  0  0  0  0  0  0  0  0  0  0
   -3.5490    0.3941   -0.3923 C   0  0  0  0  0  0  0  0  0  0  0  0
   -3.6070   -0.5255    0.6173 C   0  0  0  0  0  0  0  0  0  0  0  0
   -2.3958   -1.2784    0.9723 C   0  0  0  0  0  0  0  0  0  0  0  0
   -1.4337   -1.4040   -0.1887 C   0  0  0  0  0  0  0  0  0  0  0  0
   -1.1472   -0.0490   -0.8125 C   0  0  0  0  0  0  0  0  0  0  0  0
   -0.5028   -0.2667   -2.1311 C   0  0  0  0  0  0  0  0  0  0  0  0
   -0.3931    0.7987    0.1662 C   0  0  0  0  0  0  0  0  0  0  0  0
    0.8008    0.3434    0.5903 O   0  0  0  0  0  0  0  0  0  0  0  0
    2.0162    0.0188    0.1916 C   0  0  0  0  0  0  0  0  0  0  0  0
    2.7339   -0.0069   -0.9564 C   0  0  0  0  0  0  0  0  0  0  0  0
    4.0414   -0.4091   -1.1112 C   0  0  0  0  0  0  0  0  0  0  0  0
    4.6751   -0.8281    0.0386 C   0  0  0  0  0  0  0  0  0  0  0  0
    6.0915   -1.2646   -0.1253 C   0  0  0  0  0  0  0  0  0  0  0  0
    6.9570   -0.0572    0.0697 C   0  0  0  0  0  0  0  0  0  0  0  0
    6.7322    0.6670    1.7222 S   0  0  0  0  0  0  0  0  0  0  0  0
    8.4395    1.2375    1.9296 C   0  0  0  0  0  0  0  0  0  0  0  0
    9.0586    1.9819    2.7333 O   0  0  0  0  0  0  0  0  0  0  0  0
    9.1277    0.6013    0.8397 N   0  0  0  0  0  0  0  0  0  0  0  0
    8.4064   -0.4214    0.1646 C   0  0  0  0  0  0  0  0  0  0  0  0
    8.8441   -1.5147   -0.3196 O   0  0  0  0  0  0  0  0  0  0  0  0
    4.0473   -0.8486    1.2807 C   0  0  0  0  0  0  0  0  0  0  0  0
    2.7128   -0.4178    1.3264 C   0  0  0  0  0  0  0  0  0  0  0  0
   -2.3866    0.6350   -1.0866 O   0  0  0  0  0  0  0  0  0  0  0  0
   -4.8116   -0.6816    1.2364 C   0  0  0  0  0  0  0  0  0  0  0  0
   -4.9269   -1.6687    2.3399 C   0  0  0  0  0  0  0  0  0  0  0  0
   -5.9157    0.0506    0.8635 C   0  0  0  0  0  0  0  0  0  0  0  0
   -7.1505   -0.0959    1.4836 O   0  0  0  0  0  0  0  0  0  0  0  0
   -7.5237    1.3774   -1.5061 H   0  0  0  0  0  0  0  0  0  0  0  0
   -6.7622    2.8381   -0.8051 H   0  0  0  0  0  0  0  0  0  0  0  0
   -7.8130    1.7767    0.2244 H   0  0  0  0  0  0  0  0  0  0  0  0
   -4.3364    3.1794   -1.4965 H   0  0  0  0  0  0  0  0  0  0  0  0
   -3.7335    1.8315   -2.5758 H   0  0  0  0  0  0  0  0  0  0  0  0
   -5.4973    2.1621   -2.4872 H   0  0  0  0  0  0  0  0  0  0  0  0
   -2.6763   -2.3120    1.2707 H   0  0  0  0  0  0  0  0  0  0  0  0
   -1.8611   -0.8521    1.8463 H   0  0  0  0  0  0  0  0  0  0  0  0
   -1.8753   -2.0286   -0.9843 H   0  0  0  0  0  0  0  0  0  0  0  0
   -0.4983   -1.8090    0.2199 H   0  0  0  0  0  0  0  0  0  0  0  0
   -1.2855   -0.5333   -2.9004 H   0  0  0  0  0  0  0  0  0  0  0  0
    0.2703   -1.0337   -2.1669 H   0  0  0  0  0  0  0  0  0  0  0  0
   -0.0469    0.6789   -2.5442 H   0  0  0  0  0  0  0  0  0  0  0  0
   -0.3989    1.8648   -0.1985 H   0  0  0  0  0  0  0  0  0  0  0  0
   -1.0792    0.8685    1.0785 H   0  0  0  0  0  0  0  0  0  0  0  0
    2.2064    0.3361   -1.8075 H   0  0  0  0  0  0  0  0  0  0  0  0
    4.4840   -0.3755   -2.0920 H   0  0  0  0  0  0  0  0  0  0  0  0
    6.3645   -2.0327    0.6337 H   0  0  0  0  0  0  0  0  0  0  0  0
    6.2646   -1.6556   -1.1362 H   0  0  0  0  0  0  0  0  0  0  0  0
    6.7586    0.7002   -0.7073 H   0  0  0  0  0  0  0  0  0  0  0  0
   10.1114    0.8289    0.5049 H   0  0  0  0  0  0  0  0  0  0  0  0
    4.6698   -1.1987    2.0758 H   0  0  0  0  0  0  0  0  0  0  0  0
    2.3954   -0.5058    2.3791 H   0  0  0  0  0  0  0  0  0  0  0  0
   -5.9858   -1.7860    2.6393 H   0  0  0  0  0  0  0  0  0  0  0  0
   -4.6146   -2.6959    1.9999 H   0  0  0  0  0  0  0  0  0  0  0  0
   -4.3482   -1.4056    3.2258 H   0  0  0  0  0  0  0  0  0  0  0  0
   -7.5324    0.7035    1.9501 H   0  0  0  0  0  0  0  0  0  0  0  0
  1  2  1  0
  2  3  2  0
  3  4  1  0
  3  5  1  0
  5  6  2  0
  6  7  1  0
  7  8  1  0
  8  9  1  0
  9 10  1  0
  9 11  1  0
 11 12  1  0
 12 13  1  0
 13 14  2  0
 14 15  1  0
 15 16  2  0
 16 17  1  0
 17 18  1  0
 18 19  1  0
 19 20  1  0
 20 21  2  0
 20 22  1  0
 22 23  1  0
 23 24  2  0
 16 25  1  0
 25 26  2  0
  9 27  1  0
  6 28  1  0
 28 29  1  0
 28 30  2  0
 30 31  1  0
 30  2  1  0
 27  5  1  0
 26 13  1  0
 23 18  1  0
  1 32  1  0
  1 33  1  0
  1 34  1  0
  4 35  1  0
  4 36  1  0
  4 37  1  0
  7 38  1  0
  7 39  1  0
  8 40  1  0
  8 41  1  0
 10 42  1  0
 10 43  1  0
 10 44  1  0
 11 45  1  0
 11 46  1  0
 14 47  1  0
 15 48  1  0
 17 49  1  0
 17 50  1  0
 18 51  1  0
 22 52  1  0
 25 53  1  0
 26 54  1  0
 29 55  1  0
 29 56  1  0
 29 57  1  0
 31 58  1  0
M  END
$$$$
