@<TRIPOS>MOLECULE
*****
 40 43 0 0 0
SMALL
GASTEIGER

@<TRIPOS>ATOM
      1 C           4.4437   -2.0803   -0.9906 C.3     1  UNL1       -0.0370
      2 C           3.3571   -1.5825   -0.0855 C.ar    1  UNL1       -0.0146
      3 C           2.6629   -0.4280   -0.3700 C.ar    1  UNL1       -0.0469
      4 C           1.6769    0.0252    0.4500 C.ar    1  UNL1        0.0029
      5 C           0.9244    1.2470    0.1722 C.ar    1  UNL1        0.0970
      6 N           1.3475    2.5121    0.0595 N.ar    1  UNL1       -0.2320
      7 C           0.3293    3.3380   -0.2024 C.ar    1  UNL1        0.1074
      8 C           0.3629    4.8230   -0.4022 C.3     1  UNL1       -0.0063
      9 N          -0.7696    2.5787   -0.2576 N.ar    1  UNL1       -0.3304
     10 C          -2.1510    2.9996   -0.5165 C.3     1  UNL1        0.0135
     11 C          -0.4559    1.2887   -0.0343 C.ar    1  UNL1        0.0764
     12 C          -1.3686    0.1542   -0.0109 C.ar    1  UNL1        0.0018
     13 C          -2.4110    0.0527    0.8923 C.ar    1  UNL1       -0.0505
     14 C          -3.2879   -0.9787    0.9577 C.ar    1  UNL1       -0.0346
     15 C          -3.1681   -2.0539    0.0559 C.ar    1  UNL1        0.0782
     16 N          -3.9027   -3.1303   -0.0452 N.ar    1  UNL1       -0.2474
     17 C          -3.7784   -4.0481   -0.8357 C.ar    1  UNL1        0.0659
     18 S          -2.2707   -3.4130   -1.7835 S.2     1  UNL1       -0.0754
     19 C          -2.1203   -1.9535   -0.8532 C.ar    1  UNL1        0.0396
     20 C          -1.2524   -0.8991   -0.8931 C.ar    1  UNL1       -0.0367
     21 C           1.3358   -0.6713    1.6137 C.ar    1  UNL1       -0.0498
     22 C           2.0478   -1.8234    1.8725 C.ar    1  UNL1       -0.0256
     23 C           3.0408   -2.2765    1.0433 C.ar    1  UNL1        0.1263
     24 F           3.7384   -3.4166    1.3086 F       1  UNL1       -0.2052
     25 H           5.3575   -2.3434   -0.3976 H       1  UNL1        0.0278
     26 H           4.7338   -1.2907   -1.6918 H       1  UNL1        0.0278
     27 H           4.0422   -2.9906   -1.4811 H       1  UNL1        0.0278
     28 H           2.9261    0.1086   -1.2673 H       1  UNL1        0.0628
     29 H           0.9647    5.3100    0.3670 H       1  UNL1        0.0307
     30 H          -0.6652    5.2226   -0.3388 H       1  UNL1        0.0307
     31 H           0.7391    5.0256   -1.4266 H       1  UNL1        0.0307
     32 H          -2.7381    2.1705   -0.9532 H       1  UNL1        0.0456
     33 H          -2.1706    3.8705   -1.2217 H       1  UNL1        0.0456
     34 H          -2.6528    3.3434    0.4075 H       1  UNL1        0.0456
     35 H          -2.4875    0.9036    1.5887 H       1  UNL1        0.0625
     36 H          -4.0691   -0.9588    1.7051 H       1  UNL1        0.0639
     37 H          -4.1927   -5.0002   -1.1460 H       1  UNL1        0.0907
     38 H          -0.4734   -0.9193   -1.6387 H       1  UNL1        0.0636
     39 H           0.5586   -0.3298    2.2765 H       1  UNL1        0.0625
     40 H           1.7966   -2.3861    2.7809 H       1  UNL1        0.0646
@<TRIPOS>BOND
     1     1     2    1
     2     2     3   ar
     3     3     4   ar
     4     4     5    1
     5     5     6   ar
     6     6     7   ar
     7     7     8    1
     8     7     9   ar
     9     9    10    1
    10     9    11   ar
    11    11    12    1
    12    12    13   ar
    13    13    14   ar
    14    14    15   ar
    15    15    16   ar
    16    16    17   ar
    17    17    18   ar
    18    18    19   ar
    19    19    20   ar
    20     4    21   ar
    21    21    22   ar
    22    22    23   ar
    23    23    24    1
    24    23     2   ar
    25    11     5   ar
    26    20    12   ar
    27    19    15   ar
    28     1    25    1
    29     1    26    1
    30     1    27    1
    31     3    28    1
    32     8    29    1
    33     8    30    1
    34     8    31    1
    35    10    32    1
    36    10    33    1
    37    10    34    1
    38    13    35    1
    39    14    36    1
    40    17    37    1
    41    20    38    1
    42    21    39    1
    43    22    40    1
