
     RDKit          3D

 40 43  0  0  0  0  0  0  0  0999 V2000
    4.4437   -2.0803   -0.9906 C   0  0  0  0  0  0  0  0  0  0  0  0
    3.3571   -1.5825   -0.0855 C   0  0  0  0  0  0  0  0  0  0  0  0
    2.6629   -0.4280   -0.3700 C   0  0  0  0  0  0  0  0  0  0  0  0
    1.6769    0.0252    0.4500 C   0  0  0  0  0  0  0  0  0  0  0  0
    0.9244    1.2470    0.1722 C   0  0  0  0  0  0  0  0  0  0  0  0
    1.3475    2.5121    0.0595 N   0  0  0  0  0  0  0  0  0  0  0  0
    0.3293    3.3380   -0.2024 C   0  0  0  0  0  0  0  0  0  0  0  0
    0.3629    4.8230   -0.4022 C   0  0  0  0  0  0  0  0  0  0  0  0
   -0.7696    2.5787   -0.2576 N   0  0  0  0  0  0  0  0  0  0  0  0
   -2.1510    2.9996   -0.5165 C   0  0  0  0  0  0  0  0  0  0  0  0
   -0.4559    1.2887   -0.0343 C   0  0  0  0  0  0  0  0  0  0  0  0
   -1.3686    0.1542   -0.0109 C   0  0  0  0  0  0  0  0  0  0  0  0
   -2.4110    0.0527    0.8923 C   0  0  0  0  0  0  0  0  0  0  0  0
   -3.2879   -0.9787    0.9577 C   0  0  0  0  0  0  0  0  0  0  0  0
   -3.1681   -2.0539    0.0559 C   0  0  0  0  0  0  0  0  0  0  0  0
   -3.9027   -3.1303   -0.0452 N   0  0  0  0  0  0  0  0  0  0  0  0
   -3.7784   -4.0481   -0.8357 C   0  0  0  0  0  0  0  0  0  0  0  0
   -2.2707   -3.4130   -1.7835 S   0  0  0  0  0  0  0  0  0  0  0  0
   -2.1203   -1.9535   -0.8532 C   0  0  0  0  0  0  0  0  0  0  0  0
   -1.2524   -0.8991   -0.8931 C   0  0  0  0  0  0  0  0  0  0  0  0
    1.3358   -0.6713    1.6137 C   0  0  0  0  0  0  0  0  0  0  0  0
    2.0478   -1.8234    1.8725 C   0  0  0  0  0  0  0  0  0  0  0  0
    3.0408   -2.2765    1.0433 C   0  0  0  0  0  0  0  0  0  0  0  0
    3.7384   -3.4166    1.3086 F   0  0  0  0  0  0  0  0  0  0  0  0
    5.3575   -2.3434   -0.3976 H   0  0  0  0  0  0  0  0  0  0  0  0
    4.7338   -1.2907   -1.6918 H   0  0  0  0  0  0  0  0  0  0  0  0
    4.0422   -2.9906   -1.4811 H   0  0  0  0  0  0  0  0  0  0  0  0
    2.9261    0.1086   -1.2673 H   0  0  0  0  0  0  0  0  0  0  0  0
    0.9647    5.3100    0.3670 H   0  0  0  0  0  0  0  0  0  0  0  0
   -0.6652    5.2226   -0.3388 H   0  0  0  0  0  0  0  0  0  0  0  0
    0.7391    5.0256   -1.4266 H   0  0  0  0  0  0  0  0  0  0  0  0
   -2.7381    2.1705   -0.9532 H   0  0  0  0  0  0  0  0  0  0  0  0
   -2.1706    3.8705   -1.2217 H   0  0  0  0  0  0  0  0  0  0  0  0
   -2.6528    3.3434    0.4075 H   0  0  0  0  0  0  0  0  0  0  0  0
   -2.4875    0.9036    1.5887 H   0  0  0  0  0  0  0  0  0  0  0  0
   -4.0691   -0.9588    1.7051 H   0  0  0  0  0  0  0  0  0  0  0  0
   -4.1927   -5.0002   -1.1460 H   0  0  0  0  0  0  0  0  0  0  0  0
   -0.4734   -0.9193   -1.6387 H   0  0  0  0  0  0  0  0  0  0  0  0
    0.5586   -0.3298    2.2765 H   0  0  0  0  0  0  0  0  0  0  0  0
    1.7966   -2.3861    2.7809 H   0  0  0  0  0  0  0  0  0  0  0  0
  1  2  1  0
  2  3  2  0
  3  4  1  0
  4  5  1  0
  5  6  1  0
  6  7  2  0
  7  8  1  0
  7  9  1  0
  9 10  1  0
  9 11  1  0
 11 12  1  0
 12 13  2  0
 13 14  1  0
 14 15  2  0
 15 16  1  0
 16 17  2  0
 17 18  1  0
 18 19  1  0
 19 20  2  0
  4 21  2  0
 21 22  1  0
 22 23  2  0
 23 24  1  0
 23  2  1  0
 11  5  2  0
 20 12  1  0
 19 15  1  0
  1 25  1  0
  1 26  1  0
  1 27  1  0
  3 28  1  0
  8 29  1  0
  8 30  1  0
  8 31  1  0
 10 32  1  0
 10 33  1  0
 10 34  1  0
 13 35  1  0
 14 36  1  0
 17 37  1  0
 20 38  1  0
 21 39  1  0
 22 40  1  0
M  END
$$$$
