
     RDKit          3D

 74 78  0  0  0  0  0  0  0  0999 V2000
   -1.9799   -2.4295   -2.5484 C   0  0  0  0  0  0  0  0  0  0  0  0
   -2.8932   -2.8585   -1.4626 C   0  0  0  0  0  0  0  0  0  0  0  0
   -3.5192   -4.1637   -1.8174 C   0  0  0  0  0  0  0  0  0  0  0  0
   -3.9580   -1.7871   -1.1433 C   0  0  0  0  0  0  0  0  0  0  0  0
   -4.6017   -2.4430    0.0381 C   0  0  0  0  0  0  0  0  0  0  0  0
   -3.4660   -3.1583    0.7859 C   0  0  0  0  0  0  0  0  0  0  0  0
   -2.2598   -2.8361   -0.0828 C   0  0  0  0  0  0  0  0  0  0  0  0
   -1.0985   -3.6961    0.0989 C   0  0  0  0  0  0  0  0  0  0  0  0
   -2.0192   -1.3459    0.1026 C   0  0  1  0  0  0  0  0  0  0  0  0
   -0.7054   -0.9745   -0.1265 O   0  0  0  0  0  0  0  0  0  0  0  0
    0.1424   -0.4149    0.8118 C   0  0  0  0  0  0  0  0  0  0  0  0
   -0.3129   -0.2300    1.9567 O   0  0  0  0  0  0  0  0  0  0  0  0
    1.4955   -0.0808    0.4108 C   0  0  0  0  0  0  0  0  0  0  0  0
    1.9401   -0.3098   -0.8720 C   0  0  0  0  0  0  0  0  0  0  0  0
    3.2331    0.0162   -1.2312 C   0  0  0  0  0  0  0  0  0  0  0  0
    3.6173   -0.2456   -2.5573 O   0  0  0  0  0  0  0  0  0  0  0  0
    4.1484    0.5764   -0.3655 C   0  0  0  0  0  0  0  0  0  0  0  0
    5.4399    0.9865   -0.8510 C   0  0  0  0  0  0  0  0  0  0  0  0
    5.4836    1.2146   -2.1402 O   0  0  0  0  0  0  0  0  0  0  0  0
    6.6685    1.1974   -0.1808 C   0  0  0  0  0  0  0  0  0  0  0  0
    7.4540    2.2809   -0.6057 C   0  0  0  0  0  0  0  0  0  0  0  0
    6.9729    3.1000   -1.6392 O   0  0  0  0  0  0  0  0  0  0  0  0
    8.6706    2.5966   -0.0749 C   0  0  0  0  0  0  0  0  0  0  0  0
    9.1785    1.8200    0.9394 C   0  0  0  0  0  0  0  0  0  0  0  0
    8.4464    0.7477    1.3844 C   0  0  0  0  0  0  0  0  0  0  0  0
    7.1851    0.4393    0.8121 C   0  0  0  0  0  0  0  0  0  0  0  0
    6.5912   -0.8287    1.1947 C   0  0  0  0  0  0  0  0  0  0  0  0
    7.0901   -1.4198    2.2202 O   0  0  0  0  0  0  0  0  0  0  0  0
    5.5633   -1.4973    0.6012 O   0  0  0  0  0  0  0  0  0  0  0  0
    3.6793    0.8017    0.9274 C   0  0  0  0  0  0  0  0  0  0  0  0
    4.4889    1.3582    1.8761 O   0  0  0  0  0  0  0  0  0  0  0  0
    2.3833    0.4791    1.3040 C   0  0  0  0  0  0  0  0  0  0  0  0
   -3.0378   -0.6617   -0.7577 C   0  0  2  0  0  0  0  0  0  0  0  0
   -3.8034    0.3141    0.0027 N   0  0  0  0  0  0  0  0  0  0  0  0
   -3.9907    1.6426   -0.4264 C   0  0  0  0  0  0  0  0  0  0  0  0
   -3.4760    2.0028   -1.5117 O   0  0  0  0  0  0  0  0  0  0  0  0
   -4.7593    2.6561    0.3185 C   0  0  0  0  0  0  0  0  0  0  0  0
   -4.8889    3.9371   -0.1893 C   0  0  0  0  0  0  0  0  0  0  0  0
   -5.6108    4.8632    0.5257 C   0  0  0  0  0  0  0  0  0  0  0  0
   -6.2111    4.5705    1.7271 C   0  0  0  0  0  0  0  0  0  0  0  0
   -6.9423    5.4790    2.4683 O   0  0  0  0  0  0  0  0  0  0  0  0
   -6.0637    3.2934    2.2023 C   0  0  0  0  0  0  0  0  0  0  0  0
   -5.3505    2.3493    1.5124 C   0  0  0  0  0  0  0  0  0  0  0  0
   -1.1070   -1.8550   -2.2531 H   0  0  0  0  0  0  0  0  0  0  0  0
   -1.6048   -3.3326   -3.1121 H   0  0  0  0  0  0  0  0  0  0  0  0
   -2.5981   -1.8776   -3.3138 H   0  0  0  0  0  0  0  0  0  0  0  0
   -4.0817   -4.6564   -1.0279 H   0  0  0  0  0  0  0  0  0  0  0  0
   -2.7399   -4.8157   -2.2385 H   0  0  0  0  0  0  0  0  0  0  0  0
   -4.2507   -3.9633   -2.6480 H   0  0  0  0  0  0  0  0  0  0  0  0
   -4.6029   -1.5901   -1.9821 H   0  0  0  0  0  0  0  0  0  0  0  0
   -5.1779   -1.7739    0.6827 H   0  0  0  0  0  0  0  0  0  0  0  0
   -5.3334   -3.2036   -0.3338 H   0  0  0  0  0  0  0  0  0  0  0  0
   -3.3321   -2.5916    1.7270 H   0  0  0  0  0  0  0  0  0  0  0  0
   -3.6473   -4.2213    0.9137 H   0  0  0  0  0  0  0  0  0  0  0  0
   -0.1599   -3.1392   -0.1598 H   0  0  0  0  0  0  0  0  0  0  0  0
   -1.0464   -4.0203    1.1801 H   0  0  0  0  0  0  0  0  0  0  0  0
   -1.1297   -4.5939   -0.5502 H   0  0  0  0  0  0  0  0  0  0  0  0
   -2.2481   -1.1050    1.1824 H   0  0  0  0  0  0  0  0  0  0  0  0
    1.2640   -0.7562   -1.6224 H   0  0  0  0  0  0  0  0  0  0  0  0
    3.0898   -0.8287   -3.1705 H   0  0  0  0  0  0  0  0  0  0  0  0
    6.4628    3.9118   -1.3777 H   0  0  0  0  0  0  0  0  0  0  0  0
    9.2679    3.4399   -0.4149 H   0  0  0  0  0  0  0  0  0  0  0  0
   10.1603    2.0515    1.3926 H   0  0  0  0  0  0  0  0  0  0  0  0
    8.8355    0.1284    2.1828 H   0  0  0  0  0  0  0  0  0  0  0  0
    4.8643   -2.0527    1.1060 H   0  0  0  0  0  0  0  0  0  0  0  0
    4.1660    2.1804    2.3835 H   0  0  0  0  0  0  0  0  0  0  0  0
    2.0608    0.6737    2.3316 H   0  0  0  0  0  0  0  0  0  0  0  0
   -2.6160   -0.2129   -1.6816 H   0  0  0  0  0  0  0  0  0  0  0  0
   -4.2188   -0.0073    0.9007 H   0  0  0  0  0  0  0  0  0  0  0  0
   -4.4295    4.2083   -1.1358 H   0  0  0  0  0  0  0  0  0  0  0  0
   -5.7382    5.8894    0.1597 H   0  0  0  0  0  0  0  0  0  0  0  0
   -7.2359    6.3834    2.1514 H   0  0  0  0  0  0  0  0  0  0  0  0
   -6.5356    3.0354    3.1627 H   0  0  0  0  0  0  0  0  0  0  0  0
   -5.2617    1.3535    1.9280 H   0  0  0  0  0  0  0  0  0  0  0  0
  1  2  1  0
  2  3  1  0
  2  4  1  0
  4  5  1  0
  5  6  1  0
  6  7  1  0
  7  8  1  0
  7  9  1  0
  9 10  1  0
 10 11  1  0
 11 12  2  0
 11 13  1  0
 13 14  2  0
 14 15  1  0
 15 16  1  0
 15 17  2  0
 17 18  1  0
 18 19  2  0
 18 20  1  0
 20 21  2  0
 21 22  1  0
 21 23  1  0
 23 24  2  0
 24 25  1  0
 25 26  2  0
 26 27  1  0
 27 28  2  0
 27 29  1  0
 17 30  1  0
 30 31  1  0
 30 32  2  0
  9 33  1  0
 33 34  1  0
 34 35  1  0
 35 36  2  0
 35 37  1  0
 37 38  2  0
 38 39  1  0
 39 40  2  0
 40 41  1  0
 40 42  1  0
 42 43  2  0
  7  2  1  0
 32 13  1  0
 43 37  1  0
 33  4  1  0
 26 20  1  0
  1 44  1  0
  1 45  1  0
  1 46  1  0
  3 47  1  0
  3 48  1  0
  3 49  1  0
  4 50  1  0
  5 51  1  0
  5 52  1  0
  6 53  1  0
  6 54  1  0
  8 55  1  0
  8 56  1  0
  8 57  1  0
  9 58  1  1
 14 59  1  0
 16 60  1  0
 22 61  1  0
 23 62  1  0
 24 63  1  0
 25 64  1  0
 29 65  1  0
 31 66  1  0
 32 67  1  0
 33 68  1  6
 34 69  1  0
 38 70  1  0
 39 71  1  0
 41 72  1  0
 42 73  1  0
 43 74  1  0
M  END
$$$$
