@<TRIPOS>MOLECULE
*****
 74 78 0 0 0
SMALL
GASTEIGER

@<TRIPOS>ATOM
      1 C          -1.9799   -2.4295   -2.5484 C.3     1  UNL1       -0.0589
      2 C          -2.8932   -2.8585   -1.4626 C.3     1  UNL1       -0.0215
      3 C          -3.5192   -4.1637   -1.8174 C.3     1  UNL1       -0.0589
      4 C          -3.9580   -1.7871   -1.1433 C.3     1  UNL1       -0.0133
      5 C          -4.6017   -2.4430    0.0381 C.3     1  UNL1       -0.0473
      6 C          -3.4660   -3.1583    0.7859 C.3     1  UNL1       -0.0434
      7 C          -2.2598   -2.8361   -0.0828 C.3     1  UNL1        0.0122
      8 C          -1.0985   -3.6961    0.0989 C.3     1  UNL1       -0.0556
      9 C          -2.0192   -1.3459    0.1026 C.3     1  UNL1        0.1277
     10 O          -0.7054   -0.9745   -0.1265 O.3     1  UNL1       -0.4554
     11 C           0.1424   -0.4149    0.8118 C.2     1  UNL1        0.3398
     12 O          -0.3129   -0.2300    1.9567 O.2     1  UNL1       -0.2449
     13 C           1.4955   -0.0808    0.4108 C.ar    1  UNL1        0.0659
     14 C           1.9401   -0.3098   -0.8720 C.ar    1  UNL1       -0.0053
     15 C           3.2331    0.0162   -1.2312 C.ar    1  UNL1        0.1320
     16 O           3.6173   -0.2456   -2.5573 O.3     1  UNL1       -0.5059
     17 C           4.1484    0.5764   -0.3655 C.ar    1  UNL1        0.1050
     18 C           5.4399    0.9865   -0.8510 C.2     1  UNL1        0.2044
     19 O           5.4836    1.2146   -2.1402 O.2     1  UNL1       -0.2863
     20 C           6.6685    1.1974   -0.1808 C.ar    1  UNL1        0.0778
     21 C           7.4540    2.2809   -0.6057 C.ar    1  UNL1        0.1285
     22 O           6.9729    3.1000   -1.6392 O.3     1  UNL1       -0.5060
     23 C           8.6706    2.5966   -0.0749 C.ar    1  UNL1       -0.0194
     24 C           9.1785    1.8200    0.9394 C.ar    1  UNL1       -0.0575
     25 C           8.4464    0.7477    1.3844 C.ar    1  UNL1       -0.0468
     26 C           7.1851    0.4393    0.8121 C.ar    1  UNL1        0.0731
     27 C           6.5912   -0.8287    1.1947 C.2     1  UNL1        0.3376
     28 O           7.0901   -1.4198    2.2202 O.2     1  UNL1       -0.2451
     29 O           5.5633   -1.4973    0.6012 O.3     1  UNL1       -0.4771
     30 C           3.6793    0.8017    0.9274 C.ar    1  UNL1        0.1320
     31 O           4.4889    1.3582    1.8761 O.3     1  UNL1       -0.5059
     32 C           2.3833    0.4791    1.3040 C.ar    1  UNL1       -0.0053
     33 C          -3.0378   -0.6617   -0.7577 C.3     1  UNL1        0.0642
     34 N          -3.8034    0.3141    0.0027 N.am    1  UNL1       -0.3047
     35 C          -3.9907    1.6426   -0.4264 C.2     1  UNL1        0.2444
     36 O          -3.4760    2.0028   -1.5117 O.2     1  UNL1       -0.2702
     37 C          -4.7593    2.6561    0.3185 C.ar    1  UNL1        0.0369
     38 C          -4.8889    3.9371   -0.1893 C.ar    1  UNL1       -0.0462
     39 C          -5.6108    4.8632    0.5257 C.ar    1  UNL1       -0.0195
     40 C          -6.2111    4.5705    1.7271 C.ar    1  UNL1        0.1169
     41 O          -6.9423    5.4790    2.4683 O.3     1  UNL1       -0.5068
     42 C          -6.0637    3.2934    2.2023 C.ar    1  UNL1       -0.0195
     43 C          -5.3505    2.3493    1.5124 C.ar    1  UNL1       -0.0462
     44 H          -1.1070   -1.8550   -2.2531 H       1  UNL1        0.0235
     45 H          -1.6048   -3.3326   -3.1121 H       1  UNL1        0.0235
     46 H          -2.5981   -1.8776   -3.3138 H       1  UNL1        0.0235
     47 H          -4.0817   -4.6564   -1.0279 H       1  UNL1        0.0235
     48 H          -2.7399   -4.8157   -2.2385 H       1  UNL1        0.0235
     49 H          -4.2507   -3.9633   -2.6480 H       1  UNL1        0.0235
     50 H          -4.6029   -1.5901   -1.9821 H       1  UNL1        0.0325
     51 H          -5.1779   -1.7739    0.6827 H       1  UNL1        0.0269
     52 H          -5.3334   -3.2036   -0.3338 H       1  UNL1        0.0269
     53 H          -3.3321   -2.5916    1.7270 H       1  UNL1        0.0272
     54 H          -3.6473   -4.2213    0.9137 H       1  UNL1        0.0272
     55 H          -0.1599   -3.1392   -0.1598 H       1  UNL1        0.0236
     56 H          -1.0464   -4.0203    1.1801 H       1  UNL1        0.0236
     57 H          -1.1297   -4.5939   -0.5502 H       1  UNL1        0.0236
     58 H          -2.2481   -1.1050    1.1824 H       1  UNL1        0.0758
     59 H           1.2640   -0.7562   -1.6224 H       1  UNL1        0.0662
     60 H           3.0898   -0.8287   -3.1705 H       1  UNL1        0.2922
     61 H           6.4628    3.9118   -1.3777 H       1  UNL1        0.2922
     62 H           9.2679    3.4399   -0.4149 H       1  UNL1        0.0654
     63 H          10.1603    2.0515    1.3926 H       1  UNL1        0.0619
     64 H           8.8355    0.1284    2.1828 H       1  UNL1        0.0626
     65 H           4.8643   -2.0527    1.1060 H       1  UNL1        0.2954
     66 H           4.1660    2.1804    2.3835 H       1  UNL1        0.2922
     67 H           2.0608    0.6737    2.3316 H       1  UNL1        0.0662
     68 H          -2.6160   -0.2129   -1.6816 H       1  UNL1        0.0538
     69 H          -4.2188   -0.0073    0.9007 H       1  UNL1        0.1494
     70 H          -4.4295    4.2083   -1.1358 H       1  UNL1        0.0626
     71 H          -5.7382    5.8894    0.1597 H       1  UNL1        0.0654
     72 H          -7.2359    6.3834    2.1514 H       1  UNL1        0.2921
     73 H          -6.5356    3.0354    3.1627 H       1  UNL1        0.0654
     74 H          -5.2617    1.3535    1.9280 H       1  UNL1        0.0626
@<TRIPOS>BOND
     1     1     2    1
     2     2     3    1
     3     2     4    1
     4     4     5    1
     5     5     6    1
     6     6     7    1
     7     7     8    1
     8     7     9    1
     9     9    10    1
    10    10    11    1
    11    11    12    2
    12    11    13    1
    13    13    14   ar
    14    14    15   ar
    15    15    16    1
    16    15    17   ar
    17    17    18    1
    18    18    19    2
    19    18    20    1
    20    20    21   ar
    21    21    22    1
    22    21    23   ar
    23    23    24   ar
    24    24    25   ar
    25    25    26   ar
    26    26    27    1
    27    27    28    2
    28    27    29    1
    29    17    30   ar
    30    30    31    1
    31    30    32   ar
    32     9    33    1
    33    33    34    1
    34    34    35   am
    35    35    36    2
    36    35    37    1
    37    37    38   ar
    38    38    39   ar
    39    39    40   ar
    40    40    41    1
    41    40    42   ar
    42    42    43   ar
    43     7     2    1
    44    32    13   ar
    45    43    37   ar
    46    33     4    1
    47    26    20   ar
    48     1    44    1
    49     1    45    1
    50     1    46    1
    51     3    47    1
    52     3    48    1
    53     3    49    1
    54     4    50    1
    55     5    51    1
    56     5    52    1
    57     6    53    1
    58     6    54    1
    59     8    55    1
    60     8    56    1
    61     8    57    1
    62     9    58    1
    63    14    59    1
    64    16    60    1
    65    22    61    1
    66    23    62    1
    67    24    63    1
    68    25    64    1
    69    29    65    1
    70    31    66    1
    71    32    67    1
    72    33    68    1
    73    34    69    1
    74    38    70    1
    75    39    71    1
    76    41    72    1
    77    42    73    1
    78    43    74    1
