@<TRIPOS>MOLECULE
*****
 35 36 0 0 0
SMALL
GASTEIGER

@<TRIPOS>ATOM
      1 C          -3.5344   -1.3188   -1.1774 C.3     1  UNL1       -0.0336
      2 C          -3.5669   -0.0246   -0.4312 C.3     1  UNL1        0.1249
      3 C          -2.5541    0.0015    0.6863 C.3     1  UNL1        0.0413
      4 N          -1.2236   -0.1735    0.1480 N.am    1  UNL1       -0.3100
      5 C          -0.0620   -0.1918    0.9680 C.2     1  UNL1        0.2507
      6 O          -0.2016   -0.0505    2.2030 O.2     1  UNL1       -0.2721
      7 C           1.2564   -0.3781    0.3105 C.3     1  UNL1        0.1651
      8 O           2.3038   -0.3756    1.2322 O.3     1  UNL1       -0.4828
      9 C           3.6013   -0.5360    0.8054 C.ar    1  UNL1        0.1213
     10 C           3.8895   -0.7020   -0.5390 C.ar    1  UNL1       -0.0185
     11 C           5.2088   -0.8584   -0.9090 C.ar    1  UNL1       -0.0399
     12 C           6.2486   -0.8569   -0.0044 C.ar    1  UNL1        0.0412
     13 CL          7.9039   -1.0625   -0.5577 Cl      1  UNL1       -0.0835
     14 C           5.9661   -0.6917    1.3380 C.ar    1  UNL1       -0.0399
     15 C           4.6522   -0.5338    1.7260 C.ar    1  UNL1       -0.0185
     16 N          -4.8941    0.3235    0.0532 N.am    1  UNL1       -0.2839
     17 C          -5.0422    1.7325    0.0213 C.2     1  UNL1        0.3068
     18 O          -5.9076    2.4274    0.6383 O.2     1  UNL1       -0.2524
     19 N          -4.0252    2.2176   -0.8424 N.am    1  UNL1       -0.2384
     20 C          -3.2821    1.1213   -1.3192 C.2     1  UNL1        0.2452
     21 O          -2.5000    1.0357   -2.3022 O.2     1  UNL1       -0.2730
     22 H          -2.5209   -1.7515   -1.0947 H       1  UNL1        0.0256
     23 H          -4.2577   -2.0093   -0.7035 H       1  UNL1        0.0256
     24 H          -3.7668   -1.1254   -2.2348 H       1  UNL1        0.0256
     25 H          -2.7507   -0.8650    1.3745 H       1  UNL1        0.0488
     26 H          -2.6320    0.9262    1.2801 H       1  UNL1        0.0488
     27 H          -1.1003   -0.2930   -0.8920 H       1  UNL1        0.1489
     28 H           1.1881   -1.3452   -0.2484 H       1  UNL1        0.0795
     29 H           1.3803    0.4667   -0.3994 H       1  UNL1        0.0795
     30 H           3.0774   -0.7050   -1.2639 H       1  UNL1        0.0654
     31 H           5.4194   -0.9881   -1.9717 H       1  UNL1        0.0633
     32 H           6.7865   -0.6909    2.0477 H       1  UNL1        0.0633
     33 H           4.4067   -0.4020    2.7793 H       1  UNL1        0.0654
     34 H          -5.6231   -0.3442    0.3731 H       1  UNL1        0.1513
     35 H          -3.8438    3.2203   -1.0938 H       1  UNL1        0.1591
@<TRIPOS>BOND
     1     2     1    1
     2     2     3    1
     3     3     4    1
     4     4     5   am
     5     5     6    2
     6     5     7    1
     7     7     8    1
     8     8     9    1
     9     9    10   ar
    10    10    11   ar
    11    11    12   ar
    12    12    13    1
    13    12    14   ar
    14    14    15   ar
    15     2    16    1
    16    16    17   am
    17    17    18    2
    18    17    19   am
    19    19    20   am
    20    20    21    2
    21    20     2    1
    22    15     9   ar
    23     1    22    1
    24     1    23    1
    25     1    24    1
    26     3    25    1
    27     3    26    1
    28     4    27    1
    29     7    28    1
    30     7    29    1
    31    10    30    1
    32    11    31    1
    33    14    32    1
    34    15    33    1
    35    16    34    1
    36    19    35    1
