
     RDKit          3D

 35 36  0  0  0  0  0  0  0  0999 V2000
   -3.5344   -1.3188   -1.1774 C   0  0  0  0  0  0  0  0  0  0  0  0
   -3.5669   -0.0246   -0.4312 C   0  0  2  0  0  0  0  0  0  0  0  0
   -2.5541    0.0015    0.6863 C   0  0  0  0  0  0  0  0  0  0  0  0
   -1.2236   -0.1735    0.1480 N   0  0  0  0  0  0  0  0  0  0  0  0
   -0.0620   -0.1918    0.9680 C   0  0  0  0  0  0  0  0  0  0  0  0
   -0.2016   -0.0505    2.2030 O   0  0  0  0  0  0  0  0  0  0  0  0
    1.2564   -0.3781    0.3105 C   0  0  0  0  0  0  0  0  0  0  0  0
    2.3038   -0.3756    1.2322 O   0  0  0  0  0  0  0  0  0  0  0  0
    3.6013   -0.5360    0.8054 C   0  0  0  0  0  0  0  0  0  0  0  0
    3.8895   -0.7020   -0.5390 C   0  0  0  0  0  0  0  0  0  0  0  0
    5.2088   -0.8584   -0.9090 C   0  0  0  0  0  0  0  0  0  0  0  0
    6.2486   -0.8569   -0.0044 C   0  0  0  0  0  0  0  0  0  0  0  0
    7.9039   -1.0625   -0.5577 Cl  0  0  0  0  0  0  0  0  0  0  0  0
    5.9661   -0.6917    1.3380 C   0  0  0  0  0  0  0  0  0  0  0  0
    4.6522   -0.5338    1.7260 C   0  0  0  0  0  0  0  0  0  0  0  0
   -4.8941    0.3235    0.0532 N   0  0  0  0  0  0  0  0  0  0  0  0
   -5.0422    1.7325    0.0213 C   0  0  0  0  0  0  0  0  0  0  0  0
   -5.9076    2.4274    0.6383 O   0  0  0  0  0  0  0  0  0  0  0  0
   -4.0252    2.2176   -0.8424 N   0  0  0  0  0  0  0  0  0  0  0  0
   -3.2821    1.1213   -1.3192 C   0  0  0  0  0  0  0  0  0  0  0  0
   -2.5000    1.0357   -2.3022 O   0  0  0  0  0  0  0  0  0  0  0  0
   -2.5209   -1.7515   -1.0947 H   0  0  0  0  0  0  0  0  0  0  0  0
   -4.2577   -2.0093   -0.7035 H   0  0  0  0  0  0  0  0  0  0  0  0
   -3.7668   -1.1254   -2.2348 H   0  0  0  0  0  0  0  0  0  0  0  0
   -2.7507   -0.8650    1.3745 H   0  0  0  0  0  0  0  0  0  0  0  0
   -2.6320    0.9262    1.2801 H   0  0  0  0  0  0  0  0  0  0  0  0
   -1.1003   -0.2930   -0.8920 H   0  0  0  0  0  0  0  0  0  0  0  0
    1.1881   -1.3452   -0.2484 H   0  0  0  0  0  0  0  0  0  0  0  0
    1.3803    0.4667   -0.3994 H   0  0  0  0  0  0  0  0  0  0  0  0
    3.0774   -0.7050   -1.2639 H   0  0  0  0  0  0  0  0  0  0  0  0
    5.4194   -0.9881   -1.9717 H   0  0  0  0  0  0  0  0  0  0  0  0
    6.7865   -0.6909    2.0477 H   0  0  0  0  0  0  0  0  0  0  0  0
    4.4067   -0.4020    2.7793 H   0  0  0  0  0  0  0  0  0  0  0  0
   -5.6231   -0.3442    0.3731 H   0  0  0  0  0  0  0  0  0  0  0  0
   -3.8438    3.2203   -1.0938 H   0  0  0  0  0  0  0  0  0  0  0  0
  2  1  1  6
  2  3  1  0
  3  4  1  0
  4  5  1  0
  5  6  2  0
  5  7  1  0
  7  8  1  0
  8  9  1  0
  9 10  2  0
 10 11  1  0
 11 12  2  0
 12 13  1  0
 12 14  1  0
 14 15  2  0
  2 16  1  0
 16 17  1  0
 17 18  2  0
 17 19  1  0
 19 20  1  0
 20 21  2  0
 20  2  1  0
 15  9  1  0
  1 22  1  0
  1 23  1  0
  1 24  1  0
  3 25  1  0
  3 26  1  0
  4 27  1  0
  7 28  1  0
  7 29  1  0
 10 30  1  0
 11 31  1  0
 14 32  1  0
 15 33  1  0
 16 34  1  0
 19 35  1  0
M  END
$$$$
