@<TRIPOS>MOLECULE
*****
 53 58 0 0 0
SMALL
GASTEIGER

@<TRIPOS>ATOM
      1 F          -4.1661   -0.9212    2.1024 F       1  UNL1       -0.2035
      2 C          -3.4348   -0.4130    1.0803 C.ar    1  UNL1        0.1449
      3 C          -2.0503   -0.2279    1.2253 C.ar    1  UNL1       -0.0168
      4 C          -1.2944    0.2758    0.2053 C.ar    1  UNL1       -0.0122
      5 C           0.1234    0.4652    0.3559 C.ar    1  UNL1        0.0185
      6 C           0.9763    0.3429   -0.7481 C.ar    1  UNL1        0.0391
      7 N           2.3016    0.5205   -0.6087 N.ar    1  UNL1       -0.2350
      8 C           2.8386    0.8188    0.5896 C.ar    1  UNL1        0.1632
      9 C           4.1380    1.0401    0.9623 C.ar    1  UNL1        0.0466
     10 C           5.3279    1.0080    0.1213 C.ar    1  UNL1       -0.0037
     11 C           5.7812    2.1485   -0.5230 C.ar    1  UNL1       -0.0532
     12 C           6.9155    2.1195   -1.3257 C.ar    1  UNL1       -0.0591
     13 C           7.6289    0.9536   -1.5085 C.ar    1  UNL1       -0.0357
     14 C           7.1914   -0.1908   -0.8743 C.ar    1  UNL1        0.0715
     15 N           7.8741   -1.3382   -1.0397 N.ar    1  UNL1       -0.2550
     16 C           7.4660   -2.4653   -0.4309 C.ar    1  UNL1        0.0283
     17 C           6.3433   -2.4567    0.3692 C.ar    1  UNL1       -0.0430
     18 C           5.6255   -1.2968    0.5562 C.ar    1  UNL1       -0.0506
     19 C           6.0580   -0.1467   -0.0764 C.ar    1  UNL1        0.0082
     20 C           4.1183    1.3060    2.3140 C.ar    1  UNL1        0.0597
     21 N           2.8461    1.2471    2.7445 N.ar    1  UNL1       -0.1727
     22 N           2.0709    0.9500    1.6894 N.ar    1  UNL1       -0.2206
     23 C           0.7396    0.7719    1.5511 C.ar    1  UNL1        0.0406
     24 C          -1.9144    0.5996   -0.9698 C.ar    1  UNL1       -0.0520
     25 C          -3.2990    0.4199   -1.1292 C.ar    1  UNL1       -0.0373
     26 C          -4.0662   -0.0877   -0.1041 C.ar    1  UNL1        0.0655
     27 N          -5.4923   -0.2553   -0.2636 N.pl3   1  UNL1       -0.3253
     28 C          -6.0710   -0.1114   -1.5721 C.3     1  UNL1        0.0248
     29 C          -7.3060   -0.9295   -1.8075 C.3     1  UNL1        0.0117
     30 N          -8.1912   -1.0419   -0.6965 N.3     1  UNL1       -0.3130
     31 C          -7.7978   -0.2264    0.4053 C.3     1  UNL1        0.0117
     32 C          -6.3716   -0.5447    0.8421 C.3     1  UNL1        0.0248
     33 H          -1.6020   -0.5036    2.1882 H       1  UNL1        0.0653
     34 H           0.4984    0.1028   -1.6855 H       1  UNL1        0.0837
     35 H           5.2106    3.0696   -0.3736 H       1  UNL1        0.0624
     36 H           7.2538    3.0221   -1.8212 H       1  UNL1        0.0618
     37 H           8.5030    0.9900   -2.1438 H       1  UNL1        0.0639
     38 H           7.9899   -3.4129   -0.5390 H       1  UNL1        0.0830
     39 H           5.9966   -3.3530    0.8694 H       1  UNL1        0.0633
     40 H           4.7413   -1.2568    1.1771 H       1  UNL1        0.0625
     41 H           4.9942    1.5276    2.9300 H       1  UNL1        0.0855
     42 H           0.0951    0.8730    2.4276 H       1  UNL1        0.0837
     43 H          -1.3676    0.9997   -1.8053 H       1  UNL1        0.0624
     44 H          -3.7440    0.6976   -2.0790 H       1  UNL1        0.0637
     45 H          -6.1895    0.9558   -1.8496 H       1  UNL1        0.0476
     46 H          -5.2945   -0.5181   -2.2915 H       1  UNL1        0.0476
     47 H          -7.0262   -1.9455   -2.2151 H       1  UNL1        0.0439
     48 H          -7.8551   -0.4352   -2.6619 H       1  UNL1        0.0439
     49 H          -8.2791   -2.0441   -0.4343 H       1  UNL1        0.1220
     50 H          -8.4987   -0.3848    1.2434 H       1  UNL1        0.0439
     51 H          -7.8643    0.8452    0.1250 H       1  UNL1        0.0439
     52 H          -6.3173   -1.6275    1.0620 H       1  UNL1        0.0476
     53 H          -6.1544    0.0641    1.7469 H       1  UNL1        0.0476
@<TRIPOS>BOND
     1     1     2    1
     2     2     3   ar
     3     3     4   ar
     4     4     5    1
     5     5     6   ar
     6     6     7   ar
     7     7     8   ar
     8     8     9   ar
     9     9    10    1
    10    10    11   ar
    11    11    12   ar
    12    12    13   ar
    13    13    14   ar
    14    14    15   ar
    15    15    16   ar
    16    16    17   ar
    17    17    18   ar
    18    18    19   ar
    19     9    20   ar
    20    20    21   ar
    21    21    22   ar
    22    22    23   ar
    23     4    24   ar
    24    24    25   ar
    25    25    26   ar
    26    26    27    1
    27    27    28    1
    28    28    29    1
    29    29    30    1
    30    30    31    1
    31    31    32    1
    32    26     2   ar
    33    32    27    1
    34    23     5   ar
    35    22     8   ar
    36    19    10   ar
    37    19    14   ar
    38     3    33    1
    39     6    34    1
    40    11    35    1
    41    12    36    1
    42    13    37    1
    43    16    38    1
    44    17    39    1
    45    18    40    1
    46    20    41    1
    47    23    42    1
    48    24    43    1
    49    25    44    1
    50    28    45    1
    51    28    46    1
    52    29    47    1
    53    29    48    1
    54    30    49    1
    55    31    50    1
    56    31    51    1
    57    32    52    1
    58    32    53    1
