
     RDKit          3D

 53 58  0  0  0  0  0  0  0  0999 V2000
   -4.1661   -0.9212    2.1024 F   0  0  0  0  0  0  0  0  0  0  0  0
   -3.4348   -0.4130    1.0803 C   0  0  0  0  0  0  0  0  0  0  0  0
   -2.0503   -0.2279    1.2253 C   0  0  0  0  0  0  0  0  0  0  0  0
   -1.2944    0.2758    0.2053 C   0  0  0  0  0  0  0  0  0  0  0  0
    0.1234    0.4652    0.3559 C   0  0  0  0  0  0  0  0  0  0  0  0
    0.9763    0.3429   -0.7481 C   0  0  0  0  0  0  0  0  0  0  0  0
    2.3016    0.5205   -0.6087 N   0  0  0  0  0  0  0  0  0  0  0  0
    2.8386    0.8188    0.5896 C   0  0  0  0  0  0  0  0  0  0  0  0
    4.1380    1.0401    0.9623 C   0  0  0  0  0  0  0  0  0  0  0  0
    5.3279    1.0080    0.1213 C   0  0  0  0  0  0  0  0  0  0  0  0
    5.7812    2.1485   -0.5230 C   0  0  0  0  0  0  0  0  0  0  0  0
    6.9155    2.1195   -1.3257 C   0  0  0  0  0  0  0  0  0  0  0  0
    7.6289    0.9536   -1.5085 C   0  0  0  0  0  0  0  0  0  0  0  0
    7.1914   -0.1908   -0.8743 C   0  0  0  0  0  0  0  0  0  0  0  0
    7.8741   -1.3382   -1.0397 N   0  0  0  0  0  0  0  0  0  0  0  0
    7.4660   -2.4653   -0.4309 C   0  0  0  0  0  0  0  0  0  0  0  0
    6.3433   -2.4567    0.3692 C   0  0  0  0  0  0  0  0  0  0  0  0
    5.6255   -1.2968    0.5562 C   0  0  0  0  0  0  0  0  0  0  0  0
    6.0580   -0.1467   -0.0764 C   0  0  0  0  0  0  0  0  0  0  0  0
    4.1183    1.3060    2.3140 C   0  0  0  0  0  0  0  0  0  0  0  0
    2.8461    1.2471    2.7445 N   0  0  0  0  0  0  0  0  0  0  0  0
    2.0709    0.9500    1.6894 N   0  0  0  0  0  0  0  0  0  0  0  0
    0.7396    0.7719    1.5511 C   0  0  0  0  0  0  0  0  0  0  0  0
   -1.9144    0.5996   -0.9698 C   0  0  0  0  0  0  0  0  0  0  0  0
   -3.2990    0.4199   -1.1292 C   0  0  0  0  0  0  0  0  0  0  0  0
   -4.0662   -0.0877   -0.1041 C   0  0  0  0  0  0  0  0  0  0  0  0
   -5.4923   -0.2553   -0.2636 N   0  0  0  0  0  0  0  0  0  0  0  0
   -6.0710   -0.1114   -1.5721 C   0  0  0  0  0  0  0  0  0  0  0  0
   -7.3060   -0.9295   -1.8075 C   0  0  0  0  0  0  0  0  0  0  0  0
   -8.1912   -1.0419   -0.6965 N   0  0  0  0  0  0  0  0  0  0  0  0
   -7.7978   -0.2264    0.4053 C   0  0  0  0  0  0  0  0  0  0  0  0
   -6.3716   -0.5447    0.8421 C   0  0  0  0  0  0  0  0  0  0  0  0
   -1.6020   -0.5036    2.1882 H   0  0  0  0  0  0  0  0  0  0  0  0
    0.4984    0.1028   -1.6855 H   0  0  0  0  0  0  0  0  0  0  0  0
    5.2106    3.0696   -0.3736 H   0  0  0  0  0  0  0  0  0  0  0  0
    7.2538    3.0221   -1.8212 H   0  0  0  0  0  0  0  0  0  0  0  0
    8.5030    0.9900   -2.1438 H   0  0  0  0  0  0  0  0  0  0  0  0
    7.9899   -3.4129   -0.5390 H   0  0  0  0  0  0  0  0  0  0  0  0
    5.9966   -3.3530    0.8694 H   0  0  0  0  0  0  0  0  0  0  0  0
    4.7413   -1.2568    1.1771 H   0  0  0  0  0  0  0  0  0  0  0  0
    4.9942    1.5276    2.9300 H   0  0  0  0  0  0  0  0  0  0  0  0
    0.0951    0.8730    2.4276 H   0  0  0  0  0  0  0  0  0  0  0  0
   -1.3676    0.9997   -1.8053 H   0  0  0  0  0  0  0  0  0  0  0  0
   -3.7440    0.6976   -2.0790 H   0  0  0  0  0  0  0  0  0  0  0  0
   -6.1895    0.9558   -1.8496 H   0  0  0  0  0  0  0  0  0  0  0  0
   -5.2945   -0.5181   -2.2915 H   0  0  0  0  0  0  0  0  0  0  0  0
   -7.0262   -1.9455   -2.2151 H   0  0  0  0  0  0  0  0  0  0  0  0
   -7.8551   -0.4352   -2.6619 H   0  0  0  0  0  0  0  0  0  0  0  0
   -8.2791   -2.0441   -0.4343 H   0  0  0  0  0  0  0  0  0  0  0  0
   -8.4987   -0.3848    1.2434 H   0  0  0  0  0  0  0  0  0  0  0  0
   -7.8643    0.8452    0.1250 H   0  0  0  0  0  0  0  0  0  0  0  0
   -6.3173   -1.6275    1.0620 H   0  0  0  0  0  0  0  0  0  0  0  0
   -6.1544    0.0641    1.7469 H   0  0  0  0  0  0  0  0  0  0  0  0
  1  2  1  0
  2  3  2  0
  3  4  1  0
  4  5  1  0
  5  6  1  0
  6  7  2  0
  7  8  1  0
  8  9  2  0
  9 10  1  0
 10 11  2  0
 11 12  1  0
 12 13  2  0
 13 14  1  0
 14 15  2  0
 15 16  1  0
 16 17  2  0
 17 18  1  0
 18 19  2  0
  9 20  1  0
 20 21  2  0
 21 22  1  0
 22 23  1  0
  4 24  2  0
 24 25  1  0
 25 26  2  0
 26 27  1  0
 27 28  1  0
 28 29  1  0
 29 30  1  0
 30 31  1  0
 31 32  1  0
 26  2  1  0
 32 27  1  0
 23  5  2  0
 22  8  1  0
 19 10  1  0
 19 14  1  0
  3 33  1  0
  6 34  1  0
 11 35  1  0
 12 36  1  0
 13 37  1  0
 16 38  1  0
 17 39  1  0
 18 40  1  0
 20 41  1  0
 23 42  1  0
 24 43  1  0
 25 44  1  0
 28 45  1  0
 28 46  1  0
 29 47  1  0
 29 48  1  0
 30 49  1  0
 31 50  1  0
 31 51  1  0
 32 52  1  0
 32 53  1  0
M  END
$$$$
