@<TRIPOS>MOLECULE
*****
 20 19 0 0 0
SMALL
GASTEIGER

@<TRIPOS>ATOM
      1 C           3.3444   -0.1221   -0.3513 C.3     1  UNL1        0.0130
      2 P           1.6310   -0.6775   -0.0729 P.3     1  UNL1        0.2063
      3 O           1.1335   -1.6645   -1.3203 O.3     1  UNL1       -0.3435
      4 O           1.5814   -1.3851    1.2718 O.2     1  UNL1       -0.2909
      5 C           0.6214    0.8210    0.0752 C.3     1  UNL1        0.0829
      6 C          -0.7434    0.5420    0.6033 C.2     1  UNL1        0.1532
      7 O          -0.7664    0.3737    1.8149 O.2     1  UNL1       -0.2963
      8 C          -1.8645    0.5161   -0.4013 C.3     1  UNL1        0.1036
      9 C          -3.1217    0.2734    0.2956 C.2     1  UNL1        0.3119
     10 O          -4.4603    0.1558    0.0107 O.3     1  UNL1       -0.4803
     11 O          -2.8907    0.1386    1.5152 O.2     1  UNL1       -0.2505
     12 H           3.3734    0.9519   -0.7130 H       1  UNL1        0.0328
     13 H           3.9342   -0.2128    0.5766 H       1  UNL1        0.0328
     14 H           3.7888   -0.7156   -1.1669 H       1  UNL1        0.0328
     15 H           1.5117   -2.5896   -1.1364 H       1  UNL1        0.2176
     16 H           1.1386    1.4825    0.8002 H       1  UNL1        0.0442
     17 H           0.5352    1.2962   -0.9225 H       1  UNL1        0.0442
     18 H          -1.7127   -0.2999   -1.1422 H       1  UNL1        0.0456
     19 H          -1.8965    1.4823   -0.9335 H       1  UNL1        0.0456
     20 H          -5.1371   -0.3662    0.5459 H       1  UNL1        0.2951
@<TRIPOS>BOND
     1     1     2    1
     2     2     3    1
     3     2     4    2
     4     2     5    1
     5     5     6    1
     6     6     7    2
     7     6     8    1
     8     8     9    1
     9     9    10    1
    10     9    11    2
    11     1    12    1
    12     1    13    1
    13     1    14    1
    14     3    15    1
    15     5    16    1
    16     5    17    1
    17     8    18    1
    18     8    19    1
    19    10    20    1
