
     RDKit          3D

220227  0  0  0  0  0  0  0  0999 V2000
    4.8636   -3.3952    3.3874 C   0  0  0  0  0  0  0  0  0  0  0  0
    5.2793   -2.8101    2.0223 C   0  0  0  0  0  0  0  0  0  0  0  0
    5.3391   -1.3318    2.1997 C   0  0  0  0  0  0  0  0  0  0  0  0
    4.2547   -3.2936    1.0493 C   0  0  0  0  0  0  0  0  0  0  0  0
    4.4486   -2.8697   -0.3716 C   0  0  2  0  0  0  0  0  0  0  0  0
    4.4193   -1.4471   -0.5587 N   0  0  0  0  0  0  0  0  0  0  0  0
    5.2357   -0.3964   -1.0174 C   0  0  0  0  0  0  0  0  0  0  0  0
    6.3406   -0.9435   -1.3760 O   0  0  0  0  0  0  0  0  0  0  0  0
    4.9809    1.0399   -1.1071 C   0  0  1  0  0  0  0  0  0  0  0  0
    5.3067    1.5740   -2.4791 C   0  0  0  0  0  0  0  0  0  0  0  0
    6.7226    1.3647   -2.8473 C   0  0  0  0  0  0  0  0  0  0  0  0
    7.2874    0.3418   -3.5971 C   0  0  0  0  0  0  0  0  0  0  0  0
    8.6461    0.3215   -3.7934 C   0  0  0  0  0  0  0  0  0  0  0  0
    9.5354    1.2495   -3.3029 C   0  0  0  0  0  0  0  0  0  0  0  0
   10.9310    1.2256   -3.4952 N   0  0  0  0  0  0  0  0  0  0  0  0
   11.7423    0.5372   -2.5430 C   0  0  0  0  0  0  0  0  0  0  0  0
   13.1387    0.4681   -2.6572 N   0  0  0  0  0  0  0  0  0  0  0  0
   11.1745   -0.0219   -1.5756 O   0  0  0  0  0  0  0  0  0  0  0  0
    8.9903    2.2768   -2.5554 C   0  0  0  0  0  0  0  0  0  0  0  0
    7.6115    2.3135   -2.3450 C   0  0  0  0  0  0  0  0  0  0  0  0
    3.6960    1.4902   -0.6423 N   0  0  0  0  0  0  0  0  0  0  0  0
    3.5533    1.8720    0.7300 C   0  0  0  0  0  0  0  0  0  0  0  0
    4.6676    1.7236    1.3774 O   0  0  0  0  0  0  0  0  0  0  0  0
    2.6136    2.3926    1.7807 C   0  0  2  0  0  0  0  0  0  0  0  0
    2.4858    1.2508    2.7385 C   0  0  0  0  0  0  0  0  0  0  0  0
    1.5858    1.3714    3.8824 C   0  0  0  0  0  0  0  0  0  0  0  0
    0.3126    0.8406    3.6200 C   0  0  0  0  0  0  0  0  0  0  0  0
   -0.6815    0.8094    4.6014 C   0  0  0  0  0  0  0  0  0  0  0  0
   -0.3954    1.3200    5.8638 C   0  0  0  0  0  0  0  0  0  0  0  0
   -1.5059    1.1828    6.7313 N   0  0  0  0  0  0  0  0  0  0  0  0
   -2.6423    1.9448    7.0742 C   0  0  0  0  0  0  0  0  0  0  0  0
   -3.0635    3.0631    6.7151 O   0  0  0  0  0  0  0  0  0  0  0  0
   -3.5661    1.3119    8.0789 C   0  0  2  0  0  0  0  0  0  0  0  0
   -3.9496   -0.0702    7.6598 C   0  0  0  0  0  0  0  0  0  0  0  0
   -5.4165   -0.2215    7.7364 C   0  0  0  0  0  0  0  0  0  0  0  0
   -5.7462   -1.4524    7.5920 O   0  0  0  0  0  0  0  0  0  0  0  0
   -6.4832    0.6922    7.9303 N   0  0  0  0  0  0  0  0  0  0  0  0
   -6.0634    2.0233    8.2050 C   0  0  0  0  0  0  0  0  0  0  0  0
   -6.9106    2.9076    8.3902 O   0  0  0  0  0  0  0  0  0  0  0  0
   -4.6594    2.2218    8.2425 N   0  0  0  0  0  0  0  0  0  0  0  0
    0.8468    1.8351    6.0978 C   0  0  0  0  0  0  0  0  0  0  0  0
    1.8282    1.8688    5.1395 C   0  0  0  0  0  0  0  0  0  0  0  0
    1.3789    2.8911    1.2649 N   0  0  0  0  0  0  0  0  0  0  0  0
    1.4127    4.2793    0.8772 C   0  0  0  0  0  0  0  0  0  0  0  0
    2.6055    4.7670    1.0359 O   0  0  0  0  0  0  0  0  0  0  0  0
    0.6909    5.4286    0.3732 C   0  0  2  0  0  0  0  0  0  0  0  0
    1.1030    6.7024    1.1329 C   0  0  0  0  0  0  0  0  0  0  0  0
    0.6889    6.6834    2.4450 O   0  0  0  0  0  0  0  0  0  0  0  0
   -0.7427    5.3053    0.4142 N   0  0  0  0  0  0  0  0  0  0  0  0
   -1.7218    6.1268   -0.1895 C   0  0  0  0  0  0  0  0  0  0  0  0
   -1.2672    7.1089   -0.8488 O   0  0  0  0  0  0  0  0  0  0  0  0
   -3.1670    6.1301   -0.2449 C   0  0  1  0  0  0  0  0  0  0  0  0
   -3.7052    6.4304   -1.6205 C   0  0  0  0  0  0  0  0  0  0  0  0
   -3.3741    5.5517   -2.7102 C   0  0  0  0  0  0  0  0  0  0  0  0
   -4.2648    4.5183   -2.9018 C   0  0  0  0  0  0  0  0  0  0  0  0
   -4.0957    3.6111   -3.9379 C   0  0  0  0  0  0  0  0  0  0  0  0
   -3.0345    3.7144   -4.8023 C   0  0  0  0  0  0  0  0  0  0  0  0
   -2.1746    4.7308   -4.5982 N   0  0  0  0  0  0  0  0  0  0  0  0
   -2.3190    5.6284   -3.5962 C   0  0  0  0  0  0  0  0  0  0  0  0
   -3.7133    4.9243    0.3494 N   0  0  0  0  0  0  0  0  0  0  0  0
   -5.0363    4.5188    0.8019 C   0  0  0  0  0  0  0  0  0  0  0  0
   -5.9205    5.3781    0.6090 O   0  0  0  0  0  0  0  0  0  0  0  0
   -4.9587    3.1836    1.3613 C   0  0  1  0  0  0  0  0  0  0  0  0
   -4.8892    3.3514    2.9121 C   0  0  0  0  0  0  0  0  0  0  0  0
   -3.8008    4.1768    3.4013 C   0  0  0  0  0  0  0  0  0  0  0  0
   -4.2203    5.5023    3.6536 C   0  0  0  0  0  0  0  0  0  0  0  0
   -3.4298    6.5295    4.1797 C   0  0  0  0  0  0  0  0  0  0  0  0
   -2.1037    6.2054    4.4790 C   0  0  0  0  0  0  0  0  0  0  0  0
   -1.1198    7.4551    5.1743 Cl  0  0  0  0  0  0  0  0  0  0  0  0
   -1.6652    4.9195    4.2383 C   0  0  0  0  0  0  0  0  0  0  0  0
   -2.4867    3.9537    3.7213 C   0  0  0  0  0  0  0  0  0  0  0  0
   -6.2703    2.4764    1.2678 N   0  0  0  0  0  0  0  0  0  0  0  0
   -6.0965    1.0685    1.2968 C   0  0  0  0  0  0  0  0  0  0  0  0
   -5.0081    0.3887    1.3809 O   0  0  0  0  0  0  0  0  0  0  0  0
   -6.6763   -0.2941    1.2749 C   0  0  1  0  0  0  0  0  0  0  0  0
   -7.3518   -0.5009   -0.0307 C   0  0  0  0  0  0  0  0  0  0  0  0
   -7.9654   -1.8500   -0.1719 C   0  0  0  0  0  0  0  0  0  0  0  0
   -7.0675   -2.7594   -0.6943 C   0  0  0  0  0  0  0  0  0  0  0  0
   -7.3815   -4.0968   -0.9341 C   0  0  0  0  0  0  0  0  0  0  0  0
   -8.6693   -4.5451   -0.6313 C   0  0  0  0  0  0  0  0  0  0  0  0
   -9.0619   -5.8445   -0.8327 C   0  0  0  0  0  0  0  0  0  0  0  0
  -10.3283   -6.3011   -0.5353 C   0  0  0  0  0  0  0  0  0  0  0  0
  -11.2185   -5.3582   -0.0056 C   0  0  0  0  0  0  0  0  0  0  0  0
  -10.8185   -4.0462    0.1953 C   0  0  0  0  0  0  0  0  0  0  0  0
   -9.5529   -3.6000   -0.1047 C   0  0  0  0  0  0  0  0  0  0  0  0
   -9.2314   -2.2989    0.1225 C   0  0  0  0  0  0  0  0  0  0  0  0
   -5.4937   -1.1744    1.3724 N   0  0  0  0  0  0  0  0  0  0  0  0
   -5.3731   -1.9416    2.5615 C   0  0  0  0  0  0  0  0  0  0  0  0
   -4.3190   -2.9113    2.9879 C   0  0  0  0  0  0  0  0  0  0  0  0
   -6.2266   -1.8875    3.4945 O   0  0  0  0  0  0  0  0  0  0  0  0
    3.5755   -3.6534   -1.2460 C   0  0  0  0  0  0  0  0  0  0  0  0
    3.4342   -4.8543   -0.8371 O   0  0  0  0  0  0  0  0  0  0  0  0
    2.8733   -3.3648   -2.4216 N   0  0  0  0  0  0  0  0  0  0  0  0
    2.0609   -4.4193   -3.0164 C   0  0  1  0  0  0  0  0  0  0  0  0
    0.8524   -3.8832   -3.7011 C   0  0  0  0  0  0  0  0  0  0  0  0
   -0.0526   -3.1147   -2.7731 C   0  0  0  0  0  0  0  0  0  0  0  0
   -1.2205   -2.6439   -3.6393 C   0  0  0  0  0  0  0  0  0  0  0  0
   -2.2013   -1.8430   -2.8174 C   0  0  0  0  0  0  0  0  0  0  0  0
   -3.2706   -1.4149   -3.6573 N   0  0  0  0  0  0  0  0  0  0  0  0
   -4.2596   -0.6285   -2.9940 C   0  0  0  0  0  0  0  0  0  0  0  0
   -3.6802    0.6407   -2.3848 C   0  0  0  0  0  0  0  0  0  0  0  0
   -5.3465   -0.2543   -3.9773 C   0  0  0  0  0  0  0  0  0  0  0  0
    2.7842   -5.3290   -3.8940 C   0  0  0  0  0  0  0  0  0  0  0  0
    1.9594   -6.1606   -4.3632 O   0  0  0  0  0  0  0  0  0  0  0  0
    3.8104   -5.9330   -4.5976 N   0  0  0  0  0  0  0  0  0  0  0  0
    3.5645   -7.0961   -5.4376 C   0  0  0  0  0  0  0  0  0  0  0  0
    4.9232   -7.8347   -5.3144 C   0  0  0  0  0  0  0  0  0  0  0  0
    5.9180   -6.7297   -5.2167 C   0  0  0  0  0  0  0  0  0  0  0  0
    5.1867   -5.5721   -4.6150 C   0  0  1  0  0  0  0  0  0  0  0  0
    5.4670   -4.3772   -5.4610 C   0  0  0  0  0  0  0  0  0  0  0  0
    6.5763   -3.7896   -5.6511 O   0  0  0  0  0  0  0  0  0  0  0  0
    4.3655   -3.8054   -6.1578 N   0  0  0  0  0  0  0  0  0  0  0  0
    4.0289   -2.7318   -7.0650 C   0  0  2  0  0  0  0  0  0  0  0  0
    3.0949   -1.7840   -6.3116 C   0  0  0  0  0  0  0  0  0  0  0  0
    3.3387   -3.1770   -8.2829 C   0  0  0  0  0  0  0  0  0  0  0  0
    3.0913   -4.5767   -8.4579 N   0  0  0  0  0  0  0  0  0  0  0  0
    2.9365   -2.4269   -9.2064 O   0  0  0  0  0  0  0  0  0  0  0  0
    4.9443   -4.5000    3.3681 H   0  0  0  0  0  0  0  0  0  0  0  0
    3.8430   -3.0166    3.5779 H   0  0  0  0  0  0  0  0  0  0  0  0
    5.5472   -2.9429    4.1490 H   0  0  0  0  0  0  0  0  0  0  0  0
    6.2846   -3.1905    1.8521 H   0  0  0  0  0  0  0  0  0  0  0  0
    5.4821   -1.1017    3.2742 H   0  0  0  0  0  0  0  0  0  0  0  0
    4.3425   -0.9029    1.9480 H   0  0  0  0  0  0  0  0  0  0  0  0
    6.1867   -0.8310    1.6836 H   0  0  0  0  0  0  0  0  0  0  0  0
    3.2247   -3.0553    1.3739 H   0  0  0  0  0  0  0  0  0  0  0  0
    4.3005   -4.4232    1.0956 H   0  0  0  0  0  0  0  0  0  0  0  0
    5.5144   -3.1959   -0.7119 H   0  0  0  0  0  0  0  0  0  0  0  0
    3.4623   -1.1584   -0.2397 H   0  0  0  0  0  0  0  0  0  0  0  0
    5.7519    1.5126   -0.4101 H   0  0  0  0  0  0  0  0  0  0  0  0
    5.0568    2.6503   -2.5748 H   0  0  0  0  0  0  0  0  0  0  0  0
    4.6536    1.0358   -3.2169 H   0  0  0  0  0  0  0  0  0  0  0  0
    6.5839   -0.3724   -3.9899 H   0  0  0  0  0  0  0  0  0  0  0  0
    9.0367   -0.5011   -4.3853 H   0  0  0  0  0  0  0  0  0  0  0  0
   11.4170    1.6947   -4.3192 H   0  0  0  0  0  0  0  0  0  0  0  0
   13.9542    0.6058   -2.0282 H   0  0  0  0  0  0  0  0  0  0  0  0
   14.1223    0.3672   -2.9421 H   0  0  0  0  0  0  0  0  0  0  0  0
    9.6395    3.0394   -2.1405 H   0  0  0  0  0  0  0  0  0  0  0  0
    7.2745    3.1534   -1.7505 H   0  0  0  0  0  0  0  0  0  0  0  0
    2.7079    1.6657   -0.9710 H   0  0  0  0  0  0  0  0  0  0  0  0
    3.1923    3.2159    2.3101 H   0  0  0  0  0  0  0  0  0  0  0  0
    3.5431    1.0254    3.0807 H   0  0  0  0  0  0  0  0  0  0  0  0
    2.2186    0.3533    2.0946 H   0  0  0  0  0  0  0  0  0  0  0  0
    0.0458    0.4303    2.6440 H   0  0  0  0  0  0  0  0  0  0  0  0
   -1.6376    0.3797    4.3086 H   0  0  0  0  0  0  0  0  0  0  0  0
   -1.3224    0.2593    7.1581 H   0  0  0  0  0  0  0  0  0  0  0  0
   -3.0239    1.2594    9.0448 H   0  0  0  0  0  0  0  0  0  0  0  0
   -3.6719   -0.2691    6.6017 H   0  0  0  0  0  0  0  0  0  0  0  0
   -3.4739   -0.8109    8.3295 H   0  0  0  0  0  0  0  0  0  0  0  0
   -7.4619    0.3671    7.8660 H   0  0  0  0  0  0  0  0  0  0  0  0
   -4.3410    3.1897    8.4202 H   0  0  0  0  0  0  0  0  0  0  0  0
    0.9933    2.2154    7.0926 H   0  0  0  0  0  0  0  0  0  0  0  0
    2.8086    2.2740    5.3067 H   0  0  0  0  0  0  0  0  0  0  0  0
    0.3732    2.6678    1.0292 H   0  0  0  0  0  0  0  0  0  0  0  0
    0.9956    5.6840   -0.6855 H   0  0  0  0  0  0  0  0  0  0  0  0
    2.2092    6.8032    1.1366 H   0  0  0  0  0  0  0  0  0  0  0  0
    0.6796    7.5667    0.6052 H   0  0  0  0  0  0  0  0  0  0  0  0
    0.3056    7.5911    2.6475 H   0  0  0  0  0  0  0  0  0  0  0  0
   -1.0912    4.5165    0.9621 H   0  0  0  0  0  0  0  0  0  0  0  0
   -3.5522    7.0293    0.3539 H   0  0  0  0  0  0  0  0  0  0  0  0
   -3.3675    7.4940   -1.8258 H   0  0  0  0  0  0  0  0  0  0  0  0
   -4.8151    6.5603   -1.4735 H   0  0  0  0  0  0  0  0  0  0  0  0
   -5.1459    4.3353   -2.2714 H   0  0  0  0  0  0  0  0  0  0  0  0
   -4.7568    2.7790   -4.1377 H   0  0  0  0  0  0  0  0  0  0  0  0
   -2.7604    3.1002   -5.6461 H   0  0  0  0  0  0  0  0  0  0  0  0
   -1.6136    6.4336   -3.4595 H   0  0  0  0  0  0  0  0  0  0  0  0
   -2.9323    4.2308    0.4315 H   0  0  0  0  0  0  0  0  0  0  0  0
   -4.1638    2.5301    1.1256 H   0  0  0  0  0  0  0  0  0  0  0  0
   -4.7593    2.3009    3.3018 H   0  0  0  0  0  0  0  0  0  0  0  0
   -5.8649    3.6828    3.3025 H   0  0  0  0  0  0  0  0  0  0  0  0
   -5.2297    5.8493    3.4500 H   0  0  0  0  0  0  0  0  0  0  0  0
   -3.7948    7.5159    4.3531 H   0  0  0  0  0  0  0  0  0  0  0  0
   -0.6474    4.6586    4.4623 H   0  0  0  0  0  0  0  0  0  0  0  0
   -2.2249    2.9358    3.5018 H   0  0  0  0  0  0  0  0  0  0  0  0
   -7.2874    2.4783    1.1866 H   0  0  0  0  0  0  0  0  0  0  0  0
   -7.3119   -0.4781    2.1622 H   0  0  0  0  0  0  0  0  0  0  0  0
   -6.6787   -0.2458   -0.8565 H   0  0  0  0  0  0  0  0  0  0  0  0
   -8.1959    0.2461   -0.0744 H   0  0  0  0  0  0  0  0  0  0  0  0
   -6.0387   -2.6042   -0.9739 H   0  0  0  0  0  0  0  0  0  0  0  0
   -6.7293   -4.8463   -1.3357 H   0  0  0  0  0  0  0  0  0  0  0  0
   -8.3244   -6.5334   -1.2460 H   0  0  0  0  0  0  0  0  0  0  0  0
  -10.5654   -7.3379   -0.7198 H   0  0  0  0  0  0  0  0  0  0  0  0
  -12.2019   -5.7166    0.2329 H   0  0  0  0  0  0  0  0  0  0  0  0
  -11.5238   -3.3304    0.6081 H   0  0  0  0  0  0  0  0  0  0  0  0
   -9.8701   -1.5368    0.5220 H   0  0  0  0  0  0  0  0  0  0  0  0
   -4.7051   -1.3566    0.7186 H   0  0  0  0  0  0  0  0  0  0  0  0
   -4.6635   -3.9363    2.8650 H   0  0  0  0  0  0  0  0  0  0  0  0
   -3.4390   -2.7322    2.3047 H   0  0  0  0  0  0  0  0  0  0  0  0
   -3.9247   -2.6740    4.0032 H   0  0  0  0  0  0  0  0  0  0  0  0
    3.0385   -2.3600   -2.7256 H   0  0  0  0  0  0  0  0  0  0  0  0
    1.7186   -5.0711   -2.1545 H   0  0  0  0  0  0  0  0  0  0  0  0
    0.2285   -4.7569   -4.0604 H   0  0  0  0  0  0  0  0  0  0  0  0
    1.0524   -3.2749   -4.5831 H   0  0  0  0  0  0  0  0  0  0  0  0
   -0.4654   -3.7640   -1.9896 H   0  0  0  0  0  0  0  0  0  0  0  0
    0.4413   -2.2650   -2.2845 H   0  0  0  0  0  0  0  0  0  0  0  0
   -1.7717   -3.5765   -3.9433 H   0  0  0  0  0  0  0  0  0  0  0  0
   -0.9013   -2.1605   -4.5660 H   0  0  0  0  0  0  0  0  0  0  0  0
   -2.6259   -2.5575   -2.0511 H   0  0  0  0  0  0  0  0  0  0  0  0
   -1.7305   -1.0392   -2.2418 H   0  0  0  0  0  0  0  0  0  0  0  0
   -3.5730   -2.0431   -4.3970 H   0  0  0  0  0  0  0  0  0  0  0  0
   -4.6541   -1.2134   -2.1567 H   0  0  0  0  0  0  0  0  0  0  0  0
   -3.0481    0.4408   -1.4930 H   0  0  0  0  0  0  0  0  0  0  0  0
   -4.4714    1.3871   -2.1846 H   0  0  0  0  0  0  0  0  0  0  0  0
   -3.0077    1.0626   -3.1604 H   0  0  0  0  0  0  0  0  0  0  0  0
   -4.8918    0.3265   -4.7943 H   0  0  0  0  0  0  0  0  0  0  0  0
   -5.7733   -1.1833   -4.4256 H   0  0  0  0  0  0  0  0  0  0  0  0
   -6.1661    0.2908   -3.4570 H   0  0  0  0  0  0  0  0  0  0  0  0
    2.7582   -7.7304   -5.0749 H   0  0  0  0  0  0  0  0  0  0  0  0
    3.4518   -6.8691   -6.4970 H   0  0  0  0  0  0  0  0  0  0  0  0
    5.1265   -8.3944   -6.2265 H   0  0  0  0  0  0  0  0  0  0  0  0
    4.9697   -8.4572   -4.4212 H   0  0  0  0  0  0  0  0  0  0  0  0
    6.3151   -6.4379   -6.2400 H   0  0  0  0  0  0  0  0  0  0  0  0
    6.8197   -7.0096   -4.6160 H   0  0  0  0  0  0  0  0  0  0  0  0
    5.5227   -5.4058   -3.5626 H   0  0  0  0  0  0  0  0  0  0  0  0
    3.4136   -4.2688   -6.0240 H   0  0  0  0  0  0  0  0  0  0  0  0
    4.8998   -2.1131   -7.3530 H   0  0  0  0  0  0  0  0  0  0  0  0
    2.0457   -1.8639   -6.6646 H   0  0  0  0  0  0  0  0  0  0  0  0
    3.0685   -2.0309   -5.2136 H   0  0  0  0  0  0  0  0  0  0  0  0
    3.4083   -0.7323   -6.3853 H   0  0  0  0  0  0  0  0  0  0  0  0
    2.9677   -5.6205   -8.6268 H   0  0  0  0  0  0  0  0  0  0  0  0
    2.1949   -4.7592   -7.9418 H   0  0  0  0  0  0  0  0  0  0  0  0
  1  2  1  0
  2  3  1  0
  2  4  1  0
  4  5  1  0
  5  6  1  0
  6  7  1  0
  7  8  2  0
  7  9  1  0
  9 10  1  0
 10 11  1  0
 11 12  2  0
 12 13  1  0
 13 14  2  0
 14 15  1  0
 15 16  1  0
 16 17  1  0
 16 18  2  0
 14 19  1  0
 19 20  2  0
  9 21  1  0
 21 22  1  0
 22 23  2  0
 22 24  1  0
 24 25  1  0
 25 26  1  0
 26 27  2  0
 27 28  1  0
 28 29  2  0
 29 30  1  0
 30 31  1  0
 31 32  2  0
 31 33  1  0
 33 34  1  0
 34 35  1  0
 35 36  2  0
 35 37  1  0
 37 38  1  0
 38 39  2  0
 38 40  1  0
 29 41  1  0
 41 42  2  0
 24 43  1  0
 43 44  1  0
 44 45  2  0
 44 46  1  0
 46 47  1  0
 47 48  1  0
 46 49  1  0
 49 50  1  0
 50 51  2  0
 50 52  1  0
 52 53  1  0
 53 54  1  0
 54 55  2  0
 55 56  1  0
 56 57  2  0
 57 58  1  0
 58 59  2  0
 52 60  1  0
 60 61  1  0
 61 62  2  0
 61 63  1  0
 63 64  1  0
 64 65  1  0
 65 66  2  0
 66 67  1  0
 67 68  2  0
 68 69  1  0
 68 70  1  0
 70 71  2  0
 63 72  1  0
 72 73  1  0
 73 74  2  0
 73 75  1  0
 75 76  1  0
 76 77  1  0
 77 78  2  0
 78 79  1  0
 79 80  2  0
 80 81  1  0
 81 82  2  0
 82 83  1  0
 83 84  2  0
 84 85  1  0
 85 86  2  0
 75 87  1  0
 87 88  1  0
 88 89  1  0
 88 90  2  0
  5 91  1  0
 91 92  2  0
 91 93  1  0
 93 94  1  0
 94 95  1  0
 95 96  1  0
 96 97  1  0
 97 98  1  0
 98 99  1  0
 99100  1  0
100101  1  0
100102  1  0
 94103  1  0
103104  2  0
103105  1  0
105106  1  0
106107  1  0
107108  1  0
108109  1  0
109110  1  0
110111  2  0
110112  1  0
112113  1  0
113114  1  0
113115  1  0
115116  1  0
115117  2  0
 20 11  1  0
 42 26  1  0
 59 54  1  0
 71 65  1  0
 86 77  1  0
109105  1  0
 40 33  1  0
 85 80  1  0
  1118  1  0
  1119  1  0
  1120  1  0
  2121  1  0
  3122  1  0
  3123  1  0
  3124  1  0
  4125  1  0
  4126  1  0
  5127  1  6
  6128  1  0
  9129  1  1
 10130  1  0
 10131  1  0
 12132  1  0
 13133  1  0
 15134  1  0
 17135  1  0
 17136  1  0
 19137  1  0
 20138  1  0
 21139  1  0
 24140  1  1
 25141  1  0
 25142  1  0
 27143  1  0
 28144  1  0
 30145  1  0
 33146  1  1
 34147  1  0
 34148  1  0
 37149  1  0
 40150  1  0
 41151  1  0
 42152  1  0
 43153  1  0
 46154  1  6
 47155  1  0
 47156  1  0
 48157  1  0
 49158  1  0
 52159  1  1
 53160  1  0
 53161  1  0
 55162  1  0
 56163  1  0
 57164  1  0
 59165  1  0
 60166  1  0
 63167  1  6
 64168  1  0
 64169  1  0
 66170  1  0
 67171  1  0
 70172  1  0
 71173  1  0
 72174  1  0
 75175  1  1
 76176  1  0
 76177  1  0
 78178  1  0
 79179  1  0
 81180  1  0
 82181  1  0
 83182  1  0
 84183  1  0
 86184  1  0
 87185  1  0
 89186  1  0
 89187  1  0
 89188  1  0
 93189  1  0
 94190  1  1
 95191  1  0
 95192  1  0
 96193  1  0
 96194  1  0
 97195  1  0
 97196  1  0
 98197  1  0
 98198  1  0
 99199  1  0
100200  1  0
101201  1  0
101202  1  0
101203  1  0
102204  1  0
102205  1  0
102206  1  0
106207  1  0
106208  1  0
107209  1  0
107210  1  0
108211  1  0
108212  1  0
109213  1  1
112214  1  0
113215  1  6
114216  1  0
114217  1  0
114218  1  0
116219  1  0
116220  1  0
M  END
$$$$
