@<TRIPOS>MOLECULE
*****
 220 227 0 0 0
SMALL
GASTEIGER

@<TRIPOS>ATOM
      1 C           4.8636   -3.3952    3.3874 C.3     1  UNL1       -0.0626
      2 C           5.2793   -2.8101    2.0223 C.3     1  UNL1       -0.0446
      3 C           5.3391   -1.3318    2.1997 C.3     1  UNL1       -0.0626
      4 C           4.2547   -3.2936    1.0493 C.3     1  UNL1       -0.0236
      5 C           4.4486   -2.8697   -0.3716 C.3     1  UNL1        0.0996
      6 N           4.4193   -1.4471   -0.5587 N.am    1  UNL1       -0.3025
      7 C           5.2357   -0.3964   -1.0174 C.2     1  UNL1        0.2343
      8 O           6.3406   -0.9435   -1.3760 O.2     1  UNL1       -0.2738
      9 C           4.9809    1.0399   -1.1071 C.3     1  UNL1        0.1034
     10 C           5.3067    1.5740   -2.4791 C.3     1  UNL1       -0.0007
     11 C           6.7226    1.3647   -2.8473 C.ar    1  UNL1       -0.0450
     12 C           7.2874    0.3418   -3.5971 C.ar    1  UNL1       -0.0567
     13 C           8.6461    0.3215   -3.7934 C.ar    1  UNL1       -0.0402
     14 C           9.5354    1.2495   -3.3029 C.ar    1  UNL1        0.0348
     15 N          10.9310    1.2256   -3.4952 N.am    1  UNL1       -0.2696
     16 C          11.7423    0.5372   -2.5430 C.2     1  UNL1        0.3013
     17 N          13.1387    0.4681   -2.6572 N.am    1  UNL1       -0.3131
     18 O          11.1745   -0.0219   -1.5756 O.2     1  UNL1       -0.2527
     19 C           8.9903    2.2768   -2.5554 C.ar    1  UNL1       -0.0402
     20 C           7.6115    2.3135   -2.3450 C.ar    1  UNL1       -0.0567
     21 N           3.6960    1.4902   -0.6423 N.am    1  UNL1       -0.3022
     22 C           3.5533    1.8720    0.7300 C.2     1  UNL1        0.2343
     23 O           4.6676    1.7236    1.3774 O.2     1  UNL1       -0.2738
     24 C           2.6136    2.3926    1.7807 C.3     1  UNL1        0.1034
     25 C           2.4858    1.2508    2.7385 C.3     1  UNL1       -0.0007
     26 C           1.5858    1.3714    3.8824 C.ar    1  UNL1       -0.0450
     27 C           0.3126    0.8406    3.6200 C.ar    1  UNL1       -0.0568
     28 C          -0.6815    0.8094    4.6014 C.ar    1  UNL1       -0.0402
     29 C          -0.3954    1.3200    5.8638 C.ar    1  UNL1        0.0335
     30 N          -1.5059    1.1828    6.7313 N.am    1  UNL1       -0.2840
     31 C          -2.6423    1.9448    7.0742 C.2     1  UNL1        0.2381
     32 O          -3.0635    3.0631    6.7151 O.2     1  UNL1       -0.2734
     33 C          -3.5661    1.3119    8.0789 C.3     1  UNL1        0.1093
     34 C          -3.9496   -0.0702    7.6598 C.3     1  UNL1        0.0513
     35 C          -5.4165   -0.2215    7.7364 C.2     1  UNL1        0.2226
     36 O          -5.7462   -1.4524    7.5920 O.2     1  UNL1       -0.2753
     37 N          -6.4832    0.6922    7.9303 N.am    1  UNL1       -0.2401
     38 C          -6.0634    2.0233    8.2050 C.2     1  UNL1        0.3065
     39 O          -6.9106    2.9076    8.3902 O.2     1  UNL1       -0.2524
     40 N          -4.6594    2.2218    8.2425 N.am    1  UNL1       -0.2873
     41 C           0.8468    1.8351    6.0978 C.ar    1  UNL1       -0.0402
     42 C           1.8282    1.8688    5.1395 C.ar    1  UNL1       -0.0568
     43 N           1.3789    2.8911    1.2649 N.am    1  UNL1       -0.3021
     44 C           1.4127    4.2793    0.8772 C.2     1  UNL1        0.2362
     45 O           2.6055    4.7670    1.0359 O.2     1  UNL1       -0.2737
     46 CA          0.6909    5.4286    0.3732 C.3     1  UNL1        0.1226
     47 C           1.1030    6.7024    1.1329 C.3     1  UNL1        0.0711
     48 O           0.6889    6.6834    2.4450 O.3     1  UNL1       -0.3927
     49 N          -0.7427    5.3053    0.4142 N.am    1  UNL1       -0.3006
     50 C          -1.7218    6.1268   -0.1895 C.2     1  UNL1        0.2343
     51 O          -1.2672    7.1089   -0.8488 O.2     1  UNL1       -0.2738
     52 CA         -3.1670    6.1301   -0.2449 C.3     1  UNL1        0.1034
     53 C          -3.7052    6.4304   -1.6205 C.3     1  UNL1        0.0008
     54 C          -3.3741    5.5517   -2.7102 C.ar    1  UNL1       -0.0270
     55 C          -4.2648    4.5183   -2.9018 C.ar    1  UNL1       -0.0556
     56 C          -4.0957    3.6111   -3.9379 C.ar    1  UNL1       -0.0433
     57 C          -3.0345    3.7144   -4.8023 C.ar    1  UNL1        0.0276
     58 N          -2.1746    4.7308   -4.5982 N.ar    1  UNL1       -0.2630
     59 C          -2.3190    5.6284   -3.5962 C.ar    1  UNL1        0.0308
     60 N          -3.7133    4.9243    0.3494 N.am    1  UNL1       -0.3022
     61 C          -5.0363    4.5188    0.8019 C.2     1  UNL1        0.2343
     62 O          -5.9205    5.3781    0.6090 O.2     1  UNL1       -0.2738
     63 CA         -4.9587    3.1836    1.3613 C.3     1  UNL1        0.1034
     64 C          -4.8892    3.3514    2.9121 C.3     1  UNL1       -0.0007
     65 C          -3.8008    4.1768    3.4013 C.ar    1  UNL1       -0.0451
     66 C          -4.2203    5.5023    3.6536 C.ar    1  UNL1       -0.0571
     67 C          -3.4298    6.5295    4.1797 C.ar    1  UNL1       -0.0431
     68 C          -2.1037    6.2054    4.4790 C.ar    1  UNL1        0.0410
     69 CL         -1.1198    7.4551    5.1743 Cl      1  UNL1       -0.0835
     70 C          -1.6652    4.9195    4.2383 C.ar    1  UNL1       -0.0431
     71 C          -2.4867    3.9537    3.7213 C.ar    1  UNL1       -0.0571
     72 N          -6.2703    2.4764    1.2678 N.am    1  UNL1       -0.3022
     73 C          -6.0965    1.0685    1.2968 C.2     1  UNL1        0.2343
     74 O          -5.0081    0.3887    1.3809 O.2     1  UNL1       -0.2738
     75 CA         -6.6763   -0.2941    1.2749 C.3     1  UNL1        0.1033
     76 C          -7.3518   -0.5009   -0.0307 C.3     1  UNL1       -0.0006
     77 C          -7.9654   -1.8500   -0.1719 C.ar    1  UNL1       -0.0445
     78 C          -7.0675   -2.7594   -0.6943 C.ar    1  UNL1       -0.0579
     79 C          -7.3815   -4.0968   -0.9341 C.ar    1  UNL1       -0.0538
     80 C          -8.6693   -4.5451   -0.6313 C.ar    1  UNL1       -0.0179
     81 C          -9.0619   -5.8445   -0.8327 C.ar    1  UNL1       -0.0540
     82 C         -10.3283   -6.3011   -0.5353 C.ar    1  UNL1       -0.0612
     83 C         -11.2185   -5.3582   -0.0056 C.ar    1  UNL1       -0.0612
     84 C         -10.8185   -4.0462    0.1953 C.ar    1  UNL1       -0.0540
     85 C          -9.5529   -3.6000   -0.1047 C.ar    1  UNL1       -0.0176
     86 C          -9.2314   -2.2989    0.1225 C.ar    1  UNL1       -0.0508
     87 N          -5.4937   -1.1744    1.3724 N.am    1  UNL1       -0.3039
     88 C          -5.3731   -1.9416    2.5615 C.2     1  UNL1        0.2105
     89 C          -4.3190   -2.9113    2.9879 C.3     1  UNL1        0.0122
     90 O          -6.2266   -1.8875    3.4945 O.2     1  UNL1       -0.2761
     91 C           3.5755   -3.6534   -1.2460 C.2     1  UNL1        0.2340
     92 O           3.4342   -4.8543   -0.8371 O.2     1  UNL1       -0.2738
     93 N           2.8733   -3.3648   -2.4216 N.am    1  UNL1       -0.3025
     94 C           2.0609   -4.4193   -3.0164 C.3     1  UNL1        0.0996
     95 C           0.8524   -3.8832   -3.7011 C.3     1  UNL1       -0.0259
     96 C          -0.0526   -3.1147   -2.7731 C.3     1  UNL1       -0.0498
     97 C          -1.2205   -2.6439   -3.6393 C.3     1  UNL1       -0.0404
     98 C          -2.2013   -1.8430   -2.8174 C.3     1  UNL1       -0.0039
     99 N          -3.2706   -1.4149   -3.6573 N.3     1  UNL1       -0.3138
    100 C          -4.2596   -0.6285   -2.9940 C.3     1  UNL1        0.0020
    101 C          -3.6802    0.6407   -2.3848 C.3     1  UNL1       -0.0499
    102 C          -5.3465   -0.2543   -3.9773 C.3     1  UNL1       -0.0499
    103 C           2.7842   -5.3290   -3.8940 C.2     1  UNL1        0.2365
    104 O           1.9594   -6.1606   -4.3632 O.2     1  UNL1       -0.2735
    105 N           3.8104   -5.9330   -4.5976 N.am    1  UNL1       -0.2884
    106 C           3.5645   -7.0961   -5.4376 C.3     1  UNL1        0.0156
    107 C           4.9232   -7.8347   -5.3144 C.3     1  UNL1       -0.0350
    108 C           5.9180   -6.7297   -5.2167 C.3     1  UNL1       -0.0243
    109 C           5.1867   -5.5721   -4.6150 C.3     1  UNL1        0.1023
    110 C           5.4670   -4.3772   -5.4610 C.2     1  UNL1        0.2342
    111 O           6.5763   -3.7896   -5.6511 O.2     1  UNL1       -0.2738
    112 N           4.3655   -3.8054   -6.1578 N.am    1  UNL1       -0.3027
    113 C           4.0289   -2.7318   -7.0650 C.3     1  UNL1        0.0964
    114 C           3.0949   -1.7840   -6.3116 C.3     1  UNL1       -0.0381
    115 C           3.3387   -3.1770   -8.2829 C.2     1  UNL1        0.2306
    116 N           3.0913   -4.5767   -8.4579 N.am    1  UNL1       -0.3278
    117 O           2.9365   -2.4269   -9.2064 O.2     1  UNL1       -0.2740
    118 H           4.9443   -4.5000    3.3681 H       1  UNL1        0.0232
    119 H           3.8430   -3.0166    3.5779 H       1  UNL1        0.0232
    120 H           5.5472   -2.9429    4.1490 H       1  UNL1        0.0232
    121 H           6.2846   -3.1905    1.8521 H       1  UNL1        0.0296
    122 H           5.4821   -1.1017    3.2742 H       1  UNL1        0.0232
    123 H           4.3425   -0.9029    1.9480 H       1  UNL1        0.0232
    124 H           6.1867   -0.8310    1.6836 H       1  UNL1        0.0232
    125 H           3.2247   -3.0553    1.3739 H       1  UNL1        0.0290
    126 H           4.3005   -4.4232    1.0956 H       1  UNL1        0.0290
    127 H           5.5144   -3.1959   -0.7119 H       1  UNL1        0.0594
    128 H           3.4623   -1.1584   -0.2397 H       1  UNL1        0.1495
    129 H           5.7519    1.5126   -0.4101 H       1  UNL1        0.0598
    130 H           5.0568    2.6503   -2.5748 H       1  UNL1        0.0336
    131 H           4.6536    1.0358   -3.2169 H       1  UNL1        0.0336
    132 H           6.5839   -0.3724   -3.9899 H       1  UNL1        0.0621
    133 H           9.0367   -0.5011   -4.3853 H       1  UNL1        0.0636
    134 H          11.4170    1.6947   -4.3192 H       1  UNL1        0.1564
    135 H          13.9542    0.6058   -2.0282 H       1  UNL1        0.1465
    136 H          14.1223    0.3672   -2.9421 H       1  UNL1        0.1465
    137 H           9.6395    3.0394   -2.1405 H       1  UNL1        0.0636
    138 H           7.2745    3.1534   -1.7505 H       1  UNL1        0.0621
    139 H           2.7079    1.6657   -0.9710 H       1  UNL1        0.1495
    140 H           3.1923    3.2159    2.3101 H       1  UNL1        0.0598
    141 H           3.5431    1.0254    3.0807 H       1  UNL1        0.0336
    142 H           2.2186    0.3533    2.0946 H       1  UNL1        0.0336
    143 H           0.0458    0.4303    2.6440 H       1  UNL1        0.0621
    144 H          -1.6376    0.3797    4.3086 H       1  UNL1        0.0636
    145 H          -1.3224    0.2593    7.1581 H       1  UNL1        0.1549
    146 H          -3.0239    1.2594    9.0448 H       1  UNL1        0.0600
    147 H          -3.6719   -0.2691    6.6017 H       1  UNL1        0.0381
    148 H          -3.4739   -0.8109    8.3295 H       1  UNL1        0.0381
    149 H          -7.4619    0.3671    7.8660 H       1  UNL1        0.1591
    150 H          -4.3410    3.1897    8.4202 H       1  UNL1        0.1510
    151 H           0.9933    2.2154    7.0926 H       1  UNL1        0.0636
    152 H           2.8086    2.2740    5.3067 H       1  UNL1        0.0621
    153 H           0.3732    2.6678    1.0292 H       1  UNL1        0.1495
    154 HA          0.9956    5.6840   -0.6855 H       1  UNL1        0.0618
    155 H1          2.2092    6.8032    1.1366 H       1  UNL1        0.0580
    156 H2          0.6796    7.5667    0.6052 H       1  UNL1        0.0580
    157 H           0.3056    7.5911    2.6475 H       1  UNL1        0.2095
    158 H          -1.0912    4.5165    0.9621 H       1  UNL1        0.1496
    159 HA         -3.5522    7.0293    0.3539 H       1  UNL1        0.0598
    160 H          -3.3675    7.4940   -1.8258 H       1  UNL1        0.0336
    161 H          -4.8151    6.5603   -1.4735 H       1  UNL1        0.0336
    162 H          -5.1459    4.3353   -2.2714 H       1  UNL1        0.0621
    163 H          -4.7568    2.7790   -4.1377 H       1  UNL1        0.0633
    164 H          -2.7604    3.1002   -5.6461 H       1  UNL1        0.0829
    165 H          -1.6136    6.4336   -3.4595 H       1  UNL1        0.0832
    166 H          -2.9323    4.2308    0.4315 H       1  UNL1        0.1495
    167 HA         -4.1638    2.5301    1.1256 H       1  UNL1        0.0598
    168 H          -4.7593    2.3009    3.3018 H       1  UNL1        0.0336
    169 H          -5.8649    3.6828    3.3025 H       1  UNL1        0.0336
    170 H          -5.2297    5.8493    3.4500 H       1  UNL1        0.0621
    171 H          -3.7948    7.5159    4.3531 H       1  UNL1        0.0632
    172 H          -0.6474    4.6586    4.4623 H       1  UNL1        0.0632
    173 H          -2.2249    2.9358    3.5018 H       1  UNL1        0.0621
    174 H          -7.2874    2.4783    1.1866 H       1  UNL1        0.1495
    175 HA         -7.3119   -0.4781    2.1622 H       1  UNL1        0.0598
    176 H          -6.6787   -0.2458   -0.8565 H       1  UNL1        0.0336
    177 H          -8.1959    0.2461   -0.0744 H       1  UNL1        0.0336
    178 H          -6.0387   -2.6042   -0.9739 H       1  UNL1        0.0620
    179 H          -6.7293   -4.8463   -1.3357 H       1  UNL1        0.0624
    180 H          -8.3244   -6.5334   -1.2460 H       1  UNL1        0.0624
    181 H         -10.5654   -7.3379   -0.7198 H       1  UNL1        0.0618
    182 H         -12.2019   -5.7166    0.2329 H       1  UNL1        0.0618
    183 H         -11.5238   -3.3304    0.6081 H       1  UNL1        0.0624
    184 H          -9.8701   -1.5368    0.5220 H       1  UNL1        0.0626
    185 H          -4.7051   -1.3566    0.7186 H       1  UNL1        0.1495
    186 H          -4.6635   -3.9363    2.8650 H       1  UNL1        0.0322
    187 H          -3.4390   -2.7322    2.3047 H       1  UNL1        0.0322
    188 H          -3.9247   -2.6740    4.0032 H       1  UNL1        0.0322
    189 H           3.0385   -2.3600   -2.7256 H       1  UNL1        0.1495
    190 H           1.7186   -5.0711   -2.1545 H       1  UNL1        0.0594
    191 H           0.2285   -4.7569   -4.0604 H       1  UNL1        0.0288
    192 H           1.0524   -3.2749   -4.5831 H       1  UNL1        0.0288
    193 H          -0.4654   -3.7640   -1.9896 H       1  UNL1        0.0266
    194 H           0.4413   -2.2650   -2.2845 H       1  UNL1        0.0266
    195 H          -1.7717   -3.5765   -3.9433 H       1  UNL1        0.0277
    196 H          -0.9013   -2.1605   -4.5660 H       1  UNL1        0.0277
    197 H          -2.6259   -2.5575   -2.0511 H       1  UNL1        0.0424
    198 H          -1.7305   -1.0392   -2.2418 H       1  UNL1        0.0424
    199 H          -3.5730   -2.0431   -4.3970 H       1  UNL1        0.1222
    200 H          -4.6541   -1.2134   -2.1567 H       1  UNL1        0.0455
    201 H          -3.0481    0.4408   -1.4930 H       1  UNL1        0.0245
    202 H          -4.4714    1.3871   -2.1846 H       1  UNL1        0.0245
    203 H          -3.0077    1.0626   -3.1604 H       1  UNL1        0.0245
    204 H          -4.8918    0.3265   -4.7943 H       1  UNL1        0.0245
    205 H          -5.7733   -1.1833   -4.4256 H       1  UNL1        0.0245
    206 H          -6.1661    0.2908   -3.4570 H       1  UNL1        0.0245
    207 H           2.7582   -7.7304   -5.0749 H       1  UNL1        0.0465
    208 H           3.4518   -6.8691   -6.4970 H       1  UNL1        0.0465
    209 H           5.1265   -8.3944   -6.2265 H       1  UNL1        0.0281
    210 H           4.9697   -8.4572   -4.4212 H       1  UNL1        0.0281
    211 H           6.3151   -6.4379   -6.2400 H       1  UNL1        0.0288
    212 H           6.8197   -7.0096   -4.6160 H       1  UNL1        0.0288
    213 H           5.5227   -5.4058   -3.5626 H       1  UNL1        0.0597
    214 H           3.4136   -4.2688   -6.0240 H       1  UNL1        0.1495
    215 H           4.8998   -2.1131   -7.3530 H       1  UNL1        0.0592
    216 H           2.0457   -1.8639   -6.6646 H       1  UNL1        0.0252
    217 H           3.0685   -2.0309   -5.2136 H       1  UNL1        0.0252
    218 H           3.4083   -0.7323   -6.3853 H       1  UNL1        0.0252
    219 H           2.9677   -5.6205   -8.6268 H       1  UNL1        0.1450
    220 H           2.1949   -4.7592   -7.9418 H       1  UNL1        0.1450
@<TRIPOS>BOND
     1     1     2    1
     2     2     3    1
     3     2     4    1
     4     4     5    1
     5     5     6    1
     6     6     7   am
     7     7     8    2
     8     7     9    1
     9     9    10    1
    10    10    11    1
    11    11    12   ar
    12    12    13   ar
    13    13    14   ar
    14    14    15    1
    15    15    16   am
    16    16    17   am
    17    16    18    2
    18    14    19   ar
    19    19    20   ar
    20     9    21    1
    21    21    22   am
    22    22    23    2
    23    22    24    1
    24    24    25    1
    25    25    26    1
    26    26    27   ar
    27    27    28   ar
    28    28    29   ar
    29    29    30    1
    30    30    31   am
    31    31    32    2
    32    31    33    1
    33    33    34    1
    34    34    35    1
    35    35    36    2
    36    35    37   am
    37    37    38   am
    38    38    39    2
    39    38    40   am
    40    29    41   ar
    41    41    42   ar
    42    24    43    1
    43    43    44   am
    44    44    45    2
    45    44    46    1
    46    46    47    1
    47    47    48    1
    48    46    49    1
    49    49    50   am
    50    50    51    2
    51    50    52    1
    52    52    53    1
    53    53    54    1
    54    54    55   ar
    55    55    56   ar
    56    56    57   ar
    57    57    58   ar
    58    58    59   ar
    59    52    60    1
    60    60    61   am
    61    61    62    2
    62    61    63    1
    63    63    64    1
    64    64    65    1
    65    65    66   ar
    66    66    67   ar
    67    67    68   ar
    68    68    69    1
    69    68    70   ar
    70    70    71   ar
    71    63    72    1
    72    72    73   am
    73    73    74    2
    74    73    75    1
    75    75    76    1
    76    76    77    1
    77    77    78   ar
    78    78    79   ar
    79    79    80   ar
    80    80    81   ar
    81    81    82   ar
    82    82    83   ar
    83    83    84   ar
    84    84    85   ar
    85    85    86   ar
    86    75    87    1
    87    87    88   am
    88    88    89    1
    89    88    90    2
    90     5    91    1
    91    91    92    2
    92    91    93   am
    93    93    94    1
    94    94    95    1
    95    95    96    1
    96    96    97    1
    97    97    98    1
    98    98    99    1
    99    99   100    1
   100   100   101    1
   101   100   102    1
   102    94   103    1
   103   103   104    2
   104   103   105   am
   105   105   106    1
   106   106   107    1
   107   107   108    1
   108   108   109    1
   109   109   110    1
   110   110   111    2
   111   110   112   am
   112   112   113    1
   113   113   114    1
   114   113   115    1
   115   115   116   am
   116   115   117    2
   117    20    11   ar
   118    42    26   ar
   119    59    54   ar
   120    71    65   ar
   121    86    77   ar
   122   109   105    1
   123    40    33    1
   124    85    80   ar
   125     1   118    1
   126     1   119    1
   127     1   120    1
   128     2   121    1
   129     3   122    1
   130     3   123    1
   131     3   124    1
   132     4   125    1
   133     4   126    1
   134     5   127    1
   135     6   128    1
   136     9   129    1
   137    10   130    1
   138    10   131    1
   139    12   132    1
   140    13   133    1
   141    15   134    1
   142    17   135    1
   143    17   136    1
   144    19   137    1
   145    20   138    1
   146    21   139    1
   147    24   140    1
   148    25   141    1
   149    25   142    1
   150    27   143    1
   151    28   144    1
   152    30   145    1
   153    33   146    1
   154    34   147    1
   155    34   148    1
   156    37   149    1
   157    40   150    1
   158    41   151    1
   159    42   152    1
   160    43   153    1
   161    46   154    1
   162    47   155    1
   163    47   156    1
   164    48   157    1
   165    49   158    1
   166    52   159    1
   167    53   160    1
   168    53   161    1
   169    55   162    1
   170    56   163    1
   171    57   164    1
   172    59   165    1
   173    60   166    1
   174    63   167    1
   175    64   168    1
   176    64   169    1
   177    66   170    1
   178    67   171    1
   179    70   172    1
   180    71   173    1
   181    72   174    1
   182    75   175    1
   183    76   176    1
   184    76   177    1
   185    78   178    1
   186    79   179    1
   187    81   180    1
   188    82   181    1
   189    83   182    1
   190    84   183    1
   191    86   184    1
   192    87   185    1
   193    89   186    1
   194    89   187    1
   195    89   188    1
   196    93   189    1
   197    94   190    1
   198    95   191    1
   199    95   192    1
   200    96   193    1
   201    96   194    1
   202    97   195    1
   203    97   196    1
   204    98   197    1
   205    98   198    1
   206    99   199    1
   207   100   200    1
   208   101   201    1
   209   101   202    1
   210   101   203    1
   211   102   204    1
   212   102   205    1
   213   102   206    1
   214   106   207    1
   215   106   208    1
   216   107   209    1
   217   107   210    1
   218   108   211    1
   219   108   212    1
   220   109   213    1
   221   112   214    1
   222   113   215    1
   223   114   216    1
   224   114   217    1
   225   114   218    1
   226   116   219    1
   227   116   220    1
