@<TRIPOS>MOLECULE
*****
 56 59 0 0 0
SMALL
GASTEIGER

@<TRIPOS>ATOM
      1 C           1.3745   -1.2995   -0.1524 C.3     1  UNL1        0.0206
      2 C           1.4147   -2.7834   -0.3614 C.3     1  UNL1       -0.0466
      3 C           2.7121   -0.7156    0.2212 C.3     1  UNL1       -0.0308
      4 C           3.7580   -0.9579   -0.8415 C.3     1  UNL1       -0.0260
      5 C           5.0412   -0.3484   -0.3833 C.ar    1  UNL1       -0.0471
      6 C           5.9304   -1.1283    0.3661 C.ar    1  UNL1       -0.0551
      7 C           7.1214   -0.5748    0.7947 C.ar    1  UNL1       -0.0199
      8 C           7.4857    0.7204    0.5206 C.ar    1  UNL1        0.1169
      9 O           8.7056    1.1352    1.0143 O.3     1  UNL1       -0.5068
     10 C           6.6002    1.4554   -0.2107 C.ar    1  UNL1       -0.0199
     11 C           5.3947    0.9728   -0.6725 C.ar    1  UNL1       -0.0551
     12 N           0.3731   -0.9941    0.8403 N.am    1  UNL1       -0.3124
     13 C          -0.7240   -0.2314    0.3605 C.2     1  UNL1        0.2176
     14 O          -0.8320    0.1564   -0.8332 O.2     1  UNL1       -0.2755
     15 C          -1.8105    0.1280    1.3377 C.3     1  UNL1        0.0517
     16 C          -2.8824    0.9159    0.7025 C.ar    1  UNL1       -0.0057
     17 C          -3.8593    0.4115   -0.1052 C.ar    1  UNL1        0.0512
     18 N          -4.5969    1.4730   -0.4554 N.ar    1  UNL1       -0.3539
     19 C          -4.1461    2.6088    0.0799 C.ar    1  UNL1        0.0472
     20 C          -3.0420    2.2910    0.8331 C.ar    1  UNL1        0.0039
     21 C          -2.3261    3.2444    1.5295 C.ar    1  UNL1       -0.0523
     22 C          -2.6789    4.5775    1.5101 C.ar    1  UNL1       -0.0611
     23 C          -3.7833    4.9156    0.7606 C.ar    1  UNL1       -0.0598
     24 C          -4.4798    3.9449    0.0751 C.ar    1  UNL1       -0.0378
     25 C          -4.2155   -0.8928   -0.6001 C.ar    1  UNL1       -0.0014
     26 C          -5.2997   -1.0483   -1.4368 C.ar    1  UNL1       -0.0526
     27 C          -5.7139   -2.2531   -1.9543 C.ar    1  UNL1       -0.0611
     28 C          -5.0515   -3.4177   -1.6607 C.ar    1  UNL1       -0.0617
     29 C          -3.9604   -3.3213   -0.8290 C.ar    1  UNL1       -0.0611
     30 C          -3.6045   -2.0845   -0.3496 C.ar    1  UNL1       -0.0526
     31 H           1.1034   -0.8637   -1.1548 H       1  UNL1        0.0495
     32 H           0.3481   -3.0893   -0.5717 H       1  UNL1        0.0247
     33 H           1.9671   -3.0774   -1.2696 H       1  UNL1        0.0247
     34 H           1.6811   -3.3594    0.5474 H       1  UNL1        0.0247
     35 H           3.0361   -1.1042    1.2046 H       1  UNL1        0.0286
     36 H           2.5752    0.3806    0.3240 H       1  UNL1        0.0286
     37 H           3.4987   -0.4470   -1.7897 H       1  UNL1        0.0314
     38 H           3.9288   -2.0152   -1.0524 H       1  UNL1        0.0314
     39 H           5.6224   -2.1586    0.5748 H       1  UNL1        0.0621
     40 H           7.7218   -1.2756    1.3631 H       1  UNL1        0.0654
     41 H           9.5001    0.4990    1.0508 H       1  UNL1        0.2921
     42 H           6.8964    2.4921   -0.4276 H       1  UNL1        0.0654
     43 H           4.7135    1.5836   -1.2516 H       1  UNL1        0.0621
     44 H           0.5039   -1.3354    1.8147 H       1  UNL1        0.1490
     45 H          -2.1867   -0.7158    1.9195 H       1  UNL1        0.0408
     46 H          -1.2819    0.8407    2.0586 H       1  UNL1        0.0408
     47 H          -5.4581    1.5879   -1.0670 H       1  UNL1        0.1659
     48 H          -1.4629    2.9354    2.1074 H       1  UNL1        0.0624
     49 H          -2.0996    5.3014    2.0650 H       1  UNL1        0.0618
     50 H          -4.1092    5.9474    0.7064 H       1  UNL1        0.0618
     51 H          -5.3310    4.2404   -0.4959 H       1  UNL1        0.0638
     52 H          -5.9373   -0.2191   -1.7699 H       1  UNL1        0.0624
     53 H          -6.5683   -2.3333   -2.6067 H       1  UNL1        0.0618
     54 H          -5.3860   -4.3498   -2.0715 H       1  UNL1        0.0618
     55 H          -3.4354   -4.2262   -0.5929 H       1  UNL1        0.0618
     56 H          -2.7449   -2.1382    0.2849 H       1  UNL1        0.0624
@<TRIPOS>BOND
     1     1     2    1
     2     1     3    1
     3     3     4    1
     4     4     5    1
     5     5     6   ar
     6     6     7   ar
     7     7     8   ar
     8     8     9    1
     9     8    10   ar
    10    10    11   ar
    11     1    12    1
    12    12    13   am
    13    13    14    2
    14    13    15    1
    15    15    16    1
    16    16    17   ar
    17    17    18   ar
    18    18    19   ar
    19    19    20   ar
    20    20    21   ar
    21    21    22   ar
    22    22    23   ar
    23    23    24   ar
    24    17    25    1
    25    25    26   ar
    26    26    27   ar
    27    27    28   ar
    28    28    29   ar
    29    29    30   ar
    30    11     5   ar
    31    20    16   ar
    32    30    25   ar
    33    24    19   ar
    34     1    31    1
    35     2    32    1
    36     2    33    1
    37     2    34    1
    38     3    35    1
    39     3    36    1
    40     4    37    1
    41     4    38    1
    42     6    39    1
    43     7    40    1
    44     9    41    1
    45    10    42    1
    46    11    43    1
    47    12    44    1
    48    15    45    1
    49    15    46    1
    50    18    47    1
    51    21    48    1
    52    22    49    1
    53    23    50    1
    54    24    51    1
    55    26    52    1
    56    27    53    1
    57    28    54    1
    58    29    55    1
    59    30    56    1
