@<TRIPOS>MOLECULE
*****
 66 68 0 0 0
SMALL
GASTEIGER

@<TRIPOS>ATOM
      1 C           6.2795   -0.2650    2.9856 C.3     1  UNL1       -0.0384
      2 C           5.3020    0.6386    2.2240 C.ar    1  UNL1       -0.0282
      3 C           3.9663    0.5582    2.3378 C.ar    1  UNL1       -0.0463
      4 C           3.1931    1.3955    1.6274 C.ar    1  UNL1        0.0079
      5 C           1.7119    1.5445    1.5244 C.3     1  UNL1        0.0431
      6 N           1.1277    0.8531    0.4045 N.am    1  UNL1       -0.3089
      7 C           1.2041   -0.5351    0.2590 C.2     1  UNL1        0.2378
      8 O           1.8309   -1.2112    1.1845 O.2     1  UNL1       -0.2734
      9 C           0.6783   -1.3919   -0.8015 C.3     1  UNL1        0.1210
     10 C           1.9239   -1.8540   -1.5613 C.2     1  UNL1       -0.0574
     11 C           1.9753   -1.1551   -2.6755 C.2     1  UNL1       -0.0685
     12 C           0.8102   -0.1969   -2.7634 C.3     1  UNL1        0.0340
     13 N          -0.0962   -0.8499   -1.8511 N.am    1  UNL1       -0.2814
     14 C          -1.5079   -0.9825   -2.0549 C.2     1  UNL1        0.2337
     15 O          -1.9774   -0.4603   -3.1248 O.2     1  UNL1       -0.2738
     16 C          -2.4355   -1.6739   -1.1611 C.3     1  UNL1        0.0856
     17 C          -3.3085   -0.8497   -0.3032 C.3     1  UNL1       -0.0262
     18 C          -2.8305    0.1498    0.6561 C.3     1  UNL1       -0.0392
     19 C          -2.1466    1.3127    0.0537 C.3     1  UNL1       -0.0501
     20 C          -3.0944    2.4370   -0.3753 C.3     1  UNL1       -0.0528
     21 C          -4.0261    2.8351    0.7170 C.3     1  UNL1       -0.0530
     22 C          -4.8298    1.6167    1.1326 C.3     1  UNL1       -0.0528
     23 C          -3.9212    0.5270    1.6577 C.3     1  UNL1       -0.0501
     24 N          -3.4520   -2.3107   -2.1154 N.3     1  UNL1       -0.2961
     25 C          -4.4396   -3.0454   -1.4119 C.3     1  UNL1        0.0948
     26 C          -5.3247   -3.7719   -2.4085 C.2     1  UNL1        0.3188
     27 O          -6.2737   -4.4960   -2.0294 O.2     1  UNL1       -0.2496
     28 O          -5.0923   -3.6420   -3.7635 O.3     1  UNL1       -0.4797
     29 S           4.3676    2.3858    0.7206 S.2     1  UNL1       -0.0841
     30 C           5.8280    1.5759    1.3841 C.ar    1  UNL1        0.1051
     31 C           7.1964    1.9069    1.0520 C.2     1  UNL1        0.3151
     32 N           7.4571    2.3554   -0.1292 N.2     1  UNL1       -0.0990
     33 N           8.2766    1.7693    1.9526 N.pl3   1  UNL1       -0.2462
     34 H           5.7543   -1.0178    3.5685 H       1  UNL1        0.0278
     35 H           6.9811   -0.7310    2.2661 H       1  UNL1        0.0278
     36 H           6.8833    0.3556    3.6786 H       1  UNL1        0.0278
     37 H           3.4806   -0.1877    3.0253 H       1  UNL1        0.0629
     38 H           1.4843    2.6201    1.5327 H       1  UNL1        0.0517
     39 H           1.3118    1.1506    2.5052 H       1  UNL1        0.0517
     40 H           0.6398    1.4198   -0.3092 H       1  UNL1        0.1491
     41 H           0.1927   -2.3178   -0.3629 H       1  UNL1        0.0642
     42 H           2.5757   -2.6213   -1.1661 H       1  UNL1        0.0593
     43 H           2.7301   -1.2367   -3.4328 H       1  UNL1        0.0585
     44 H           1.0831    0.7814   -2.3996 H       1  UNL1        0.0508
     45 H           0.4099   -0.1885   -3.8071 H       1  UNL1        0.0508
     46 H          -1.9909   -2.4958   -0.5735 H       1  UNL1        0.0557
     47 H          -3.9991   -1.5351    0.3185 H       1  UNL1        0.0288
     48 H          -4.1080   -0.3187   -0.9418 H       1  UNL1        0.0288
     49 H          -2.0268   -0.3161    1.3565 H       1  UNL1        0.0301
     50 H          -1.6207    1.0396   -0.8617 H       1  UNL1        0.0268
     51 H          -1.4539    1.7772    0.8031 H       1  UNL1        0.0268
     52 H          -3.5927    2.1994   -1.3330 H       1  UNL1        0.0265
     53 H          -2.4229    3.3151   -0.5909 H       1  UNL1        0.0265
     54 H          -3.4515    3.2435    1.5570 H       1  UNL1        0.0265
     55 H          -4.7555    3.5571    0.2800 H       1  UNL1        0.0265
     56 H          -5.4919    1.8958    1.9756 H       1  UNL1        0.0265
     57 H          -5.4295    1.2671    0.2896 H       1  UNL1        0.0265
     58 H          -4.5345   -0.3495    1.8639 H       1  UNL1        0.0268
     59 H          -3.4221    0.9094    2.5648 H       1  UNL1        0.0268
     60 H          -2.9297   -2.9433   -2.7530 H       1  UNL1        0.1231
     61 H          -4.0987   -3.7953   -0.7033 H       1  UNL1        0.0539
     62 H          -5.1750   -2.3117   -0.9450 H       1  UNL1        0.0539
     63 H          -5.4459   -4.2685   -4.4743 H       1  UNL1        0.2951
     64 H           6.7104    2.4864   -0.8508 H       1  UNL1        0.3633
     65 H           9.0884    1.1736    1.7207 H       1  UNL1        0.2884
     66 H           8.2509    2.2733    2.8554 H       1  UNL1        0.2884
@<TRIPOS>BOND
     1     1     2    1
     2     2     3   ar
     3     3     4   ar
     4     4     5    1
     5     5     6    1
     6     6     7   am
     7     7     8    2
     8     7     9    1
     9     9    10    1
    10    10    11    2
    11    11    12    1
    12    12    13    1
    13    13    14   am
    14    14    15    2
    15    14    16    1
    16    16    17    1
    17    17    18    1
    18    18    19    1
    19    19    20    1
    20    20    21    1
    21    21    22    1
    22    22    23    1
    23    16    24    1
    24    24    25    1
    25    25    26    1
    26    26    27    2
    27    26    28    1
    28     4    29   ar
    29    29    30   ar
    30    30    31    1
    31    31    32    2
    32    31    33    1
    33    30     2   ar
    34    13     9    1
    35    23    18    1
    36     1    34    1
    37     1    35    1
    38     1    36    1
    39     3    37    1
    40     5    38    1
    41     5    39    1
    42     6    40    1
    43     9    41    1
    44    10    42    1
    45    11    43    1
    46    12    44    1
    47    12    45    1
    48    16    46    1
    49    17    47    1
    50    17    48    1
    51    18    49    1
    52    19    50    1
    53    19    51    1
    54    20    52    1
    55    20    53    1
    56    21    54    1
    57    21    55    1
    58    22    56    1
    59    22    57    1
    60    23    58    1
    61    23    59    1
    62    24    60    1
    63    25    61    1
    64    25    62    1
    65    28    63    1
    66    32    64    1
    67    33    65    1
    68    33    66    1
