@<TRIPOS>MOLECULE
*****
 57 61 0 0 0
SMALL
GASTEIGER

@<TRIPOS>ATOM
      1 N           5.9813    1.9018    3.9664 N.1     1  UNL1       -0.1908
      2 C           5.7232    1.5832    2.8955 C.1     1  UNL1        0.1007
      3 C           5.3839    1.2024    1.5535 C.ar    1  UNL1        0.0699
      4 C           6.0654    1.7013    0.4516 C.ar    1  UNL1       -0.0396
      5 C           5.7584    1.3513   -0.8368 C.ar    1  UNL1       -0.0207
      6 C           4.7089    0.4486   -1.0560 C.ar    1  UNL1        0.1190
      7 N           4.3931    0.0845   -2.4012 N.pl3   1  UNL1       -0.3247
      8 C           3.3339   -0.8273   -2.6711 C.3     1  UNL1        0.0392
      9 C           3.4986   -2.1940   -2.0350 C.3     1  UNL1       -0.0171
     10 C           2.0858   -2.7520   -2.2492 C.3     1  UNL1        0.0196
     11 N           1.3019   -1.6232   -1.7919 N.am    1  UNL1       -0.2656
     12 C           0.0643   -1.7171   -1.1187 C.2     1  UNL1        0.4032
     13 O          -0.4141   -2.8567   -0.8895 O.2     1  UNL1       -0.2262
     14 O          -0.6012   -0.5549   -0.7225 O.3     1  UNL1       -0.4464
     15 C          -1.8311   -0.6309   -0.0536 C.3     1  UNL1        0.1103
     16 C          -1.7236   -0.0796    1.3519 C.3     1  UNL1       -0.0023
     17 C          -1.4919    1.3979    1.3731 C.3     1  UNL1       -0.0439
     18 C          -2.6189    2.0961    0.6450 C.3     1  UNL1       -0.0394
     19 C          -2.6204    1.5597   -0.7777 C.3     1  UNL1       -0.0439
     20 C          -2.9373    0.0792   -0.7623 C.3     1  UNL1       -0.0023
     21 C          -4.2341   -0.2109   -0.0603 C.3     1  UNL1       -0.0328
     22 C          -4.1600    0.3373    1.3685 C.3     1  UNL1        0.0477
     23 C          -5.4463    0.0062    2.0214 C.2     1  UNL1        0.2167
     24 N          -5.8443   -1.3500    2.1494 N.am    1  UNL1       -0.3289
     25 O          -6.1825    0.9265    2.4610 O.2     1  UNL1       -0.2754
     26 C          -3.9573    1.8170    1.2512 C.3     1  UNL1       -0.0362
     27 C          -3.0365   -0.3557    2.0745 C.3     1  UNL1       -0.0328
     28 C           1.9903   -0.3846   -2.1367 C.3     1  UNL1        0.0362
     29 N           4.0564   -0.0289   -0.0003 N.ar    1  UNL1       -0.2392
     30 C           4.3651    0.3199    1.2519 C.ar    1  UNL1        0.0470
     31 H           6.8840    2.4067    0.6437 H       1  UNL1        0.0632
     32 H           6.2673    1.7207   -1.7015 H       1  UNL1        0.0652
     33 H           4.9368    0.4835   -3.2036 H       1  UNL1        0.1478
     34 H           3.2004   -0.9739   -3.7939 H       1  UNL1        0.0514
     35 H           4.2477   -2.8191   -2.5578 H       1  UNL1        0.0299
     36 H           3.6212   -2.1110   -0.9621 H       1  UNL1        0.0299
     37 H           1.9155   -2.8325   -3.3465 H       1  UNL1        0.0466
     38 H           1.9103   -3.6713   -1.6938 H       1  UNL1        0.0466
     39 H          -2.1139   -1.7084    0.0678 H       1  UNL1        0.0740
     40 H          -0.9267   -0.5770    1.9321 H       1  UNL1        0.0337
     41 H          -0.5528    1.7046    0.8828 H       1  UNL1        0.0272
     42 H          -1.5408    1.7201    2.4413 H       1  UNL1        0.0272
     43 H          -2.4290    3.1786    0.5702 H       1  UNL1        0.0301
     44 H          -3.2566    2.1343   -1.4533 H       1  UNL1        0.0272
     45 H          -1.5740    1.6598   -1.1481 H       1  UNL1        0.0272
     46 H          -3.0576   -0.2290   -1.8156 H       1  UNL1        0.0337
     47 H          -4.3311   -1.3116    0.0384 H       1  UNL1        0.0279
     48 H          -5.1106    0.1936   -0.5977 H       1  UNL1        0.0279
     49 H          -5.6507   -1.9338    2.9833 H       1  UNL1        0.1449
     50 H          -6.3722   -1.8187    1.3597 H       1  UNL1        0.1449
     51 H          -4.7282    2.2069    0.5257 H       1  UNL1        0.0278
     52 H          -4.1345    2.3693    2.1933 H       1  UNL1        0.0278
     53 H          -3.2626   -1.4412    2.1021 H       1  UNL1        0.0279
     54 H          -2.9233    0.0695    3.0974 H       1  UNL1        0.0279
     55 H           2.1064    0.2568   -1.2480 H       1  UNL1        0.0484
     56 H           1.4495    0.1607   -2.9430 H       1  UNL1        0.0484
     57 H           3.8145   -0.0852    2.1127 H       1  UNL1        0.0843
@<TRIPOS>BOND
     1     1     2    3
     2     2     3    1
     3     3     4   ar
     4     4     5   ar
     5     5     6   ar
     6     6     7    1
     7     7     8    1
     8     8     9    1
     9     9    10    1
    10    10    11    1
    11    11    12   am
    12    12    13    2
    13    12    14    1
    14    14    15    1
    15    15    16    1
    16    16    17    1
    17    17    18    1
    18    18    19    1
    19    19    20    1
    20    20    21    1
    21    21    22    1
    22    22    23    1
    23    23    24   am
    24    23    25    2
    25    22    26    1
    26    22    27    1
    27    11    28    1
    28     6    29   ar
    29    29    30   ar
    30    30     3   ar
    31    28     8    1
    32    20    15    1
    33    27    16    1
    34    26    18    1
    35     4    31    1
    36     5    32    1
    37     7    33    1
    38     8    34    1
    39     9    35    1
    40     9    36    1
    41    10    37    1
    42    10    38    1
    43    15    39    1
    44    16    40    1
    45    17    41    1
    46    17    42    1
    47    18    43    1
    48    19    44    1
    49    19    45    1
    50    20    46    1
    51    21    47    1
    52    21    48    1
    53    24    49    1
    54    24    50    1
    55    26    51    1
    56    26    52    1
    57    27    53    1
    58    27    54    1
    59    28    55    1
    60    28    56    1
    61    30    57    1
