@<TRIPOS>MOLECULE
*****
 29 30 0 0 0
SMALL
GASTEIGER

@<TRIPOS>ATOM
      1 O           4.9556    1.9570   -2.2614 O.2     1  UNL1       -0.2451
      2 C           4.3779    2.1071   -1.1605 C.2     1  UNL1        0.3368
      3 O           4.9332    3.0268   -0.2831 O.3     1  UNL1       -0.4771
      4 C           3.1764    1.3636   -0.7911 C.ar    1  UNL1        0.0591
      5 C           2.5954    1.5844    0.4432 C.ar    1  UNL1       -0.0443
      6 C           1.4618    0.8986    0.8204 C.ar    1  UNL1       -0.0192
      7 C           0.8559   -0.0272    0.0048 C.ar    1  UNL1        0.1206
      8 O          -0.2822   -0.6889    0.4322 O.3     1  UNL1       -0.4902
      9 C          -0.9469   -1.6498   -0.3631 C.3     1  UNL1        0.1074
     10 C          -2.1528   -2.2252    0.3187 C.3     1  UNL1        0.0583
     11 N          -3.1427   -1.2364    0.6501 N.ar    1  UNL1       -0.3336
     12 C          -3.1906   -0.5542    1.8087 C.ar    1  UNL1        0.0241
     13 C          -4.2782    0.2886    1.7342 C.ar    1  UNL1        0.0454
     14 N          -4.8791    0.1180    0.5471 N.ar    1  UNL1       -0.2441
     15 C          -4.1629   -0.8283   -0.1087 C.ar    1  UNL1        0.0960
     16 C           1.4530   -0.2348   -1.2285 C.ar    1  UNL1       -0.0192
     17 C           2.5933    0.4432   -1.6294 C.ar    1  UNL1       -0.0443
     18 H           5.9034    3.2881   -0.2948 H       1  UNL1        0.2954
     19 H           3.0577    2.3197    1.1182 H       1  UNL1        0.0627
     20 H           1.0531    1.1109    1.7923 H       1  UNL1        0.0654
     21 H          -0.2246   -2.4967   -0.5046 H       1  UNL1        0.0714
     22 H          -1.2071   -1.2539   -1.3646 H       1  UNL1        0.0714
     23 H          -2.5969   -2.9654   -0.4100 H       1  UNL1        0.0526
     24 H          -1.8729   -2.8362    1.2008 H       1  UNL1        0.0526
     25 H          -2.5432   -0.5999    2.6743 H       1  UNL1        0.0825
     26 H          -4.6496    0.9982    2.4684 H       1  UNL1        0.0845
     27 H          -4.3550   -1.2202   -1.0957 H       1  UNL1        0.1029
     28 H           1.0278   -0.9393   -1.9007 H       1  UNL1        0.0654
     29 H           3.0402    0.2523   -2.6171 H       1  UNL1        0.0627
@<TRIPOS>BOND
     1     1     2    2
     2     2     3    1
     3     2     4    1
     4     4     5   ar
     5     5     6   ar
     6     6     7   ar
     7     7     8    1
     8     8     9    1
     9     9    10    1
    10    10    11    1
    11    11    12   ar
    12    12    13   ar
    13    13    14   ar
    14    14    15   ar
    15     7    16   ar
    16    16    17   ar
    17    17     4   ar
    18    15    11   ar
    19     3    18    1
    20     5    19    1
    21     6    20    1
    22     9    21    1
    23     9    22    1
    24    10    23    1
    25    10    24    1
    26    12    25    1
    27    13    26    1
    28    15    27    1
    29    16    28    1
    30    17    29    1
