@<TRIPOS>MOLECULE
*****
 40 39 0 0 0
SMALL
GASTEIGER

@<TRIPOS>ATOM
      1 N          -5.4533    1.0359   -0.4262 N.3     1  UNL1       -0.3299
      2 C          -5.5499   -0.4011   -0.2235 C.3     1  UNL1       -0.0058
      3 C          -4.5765   -1.1969   -1.0212 C.3     1  UNL1       -0.0281
      4 C          -3.1320   -0.9281   -0.7720 C.3     1  UNL1       -0.0030
      5 N          -2.7085    0.4138   -0.9864 N.3     1  UNL1       -0.3159
      6 C          -1.2808    0.5058   -0.8292 C.3     1  UNL1       -0.0041
      7 C          -0.7585    0.2555    0.5489 C.3     1  UNL1       -0.0393
      8 C           0.7800    0.4681    0.4300 C.3     1  UNL1       -0.0393
      9 C           1.3859    0.1976    1.7692 C.3     1  UNL1       -0.0041
     10 N           2.7387    0.4846    1.8853 N.3     1  UNL1       -0.3159
     11 C           3.7304   -0.1776    1.1673 C.3     1  UNL1       -0.0030
     12 C           3.9380    0.1937   -0.2774 C.3     1  UNL1       -0.0281
     13 C           5.0283   -0.6349   -0.9352 C.3     1  UNL1       -0.0058
     14 N           6.3106   -0.5076   -0.3137 N.3     1  UNL1       -0.3299
     15 H          -5.7341    1.2603   -1.4245 H       1  UNL1        0.1182
     16 H          -6.2533    1.4427    0.1512 H       1  UNL1        0.1182
     17 H          -5.6069   -0.6653    0.8541 H       1  UNL1        0.0422
     18 H          -6.5704   -0.6908   -0.6225 H       1  UNL1        0.0422
     19 H          -4.8332   -1.1528   -2.0997 H       1  UNL1        0.0290
     20 H          -4.7582   -2.2812   -0.7206 H       1  UNL1        0.0290
     21 H          -2.8831   -1.1796    0.2987 H       1  UNL1        0.0424
     22 H          -2.5441   -1.6058   -1.4536 H       1  UNL1        0.0424
     23 H          -3.1068    1.0149   -0.2043 H       1  UNL1        0.1219
     24 H          -0.7853   -0.1939   -1.5588 H       1  UNL1        0.0424
     25 H          -0.9350    1.5300   -1.1202 H       1  UNL1        0.0424
     26 H          -0.8748   -0.7819    0.9153 H       1  UNL1        0.0278
     27 H          -1.2037    0.9257    1.2808 H       1  UNL1        0.0278
     28 H           1.0482    1.4098    0.0095 H       1  UNL1        0.0278
     29 H           1.1329   -0.3916   -0.2294 H       1  UNL1        0.0278
     30 H           1.1773   -0.8924    2.0530 H       1  UNL1        0.0424
     31 H           0.7668    0.8336    2.4921 H       1  UNL1        0.0424
     32 H           2.9657    1.4537    2.1390 H       1  UNL1        0.1219
     33 H           4.7113   -0.0261    1.7315 H       1  UNL1        0.0424
     34 H           3.6260   -1.3123    1.2246 H       1  UNL1        0.0424
     35 H           3.0550    0.1528   -0.8849 H       1  UNL1        0.0290
     36 H           4.2934    1.2809   -0.3362 H       1  UNL1        0.0290
     37 H           4.7127   -1.6771   -0.9383 H       1  UNL1        0.0422
     38 H           5.0966   -0.2886   -1.9872 H       1  UNL1        0.0422
     39 H           6.4639    0.4060    0.1609 H       1  UNL1        0.1182
     40 H           6.5866   -1.3433    0.2535 H       1  UNL1        0.1182
@<TRIPOS>BOND
     1     1     2    1
     2     2     3    1
     3     3     4    1
     4     4     5    1
     5     5     6    1
     6     6     7    1
     7     7     8    1
     8     8     9    1
     9     9    10    1
    10    10    11    1
    11    11    12    1
    12    12    13    1
    13    13    14    1
    14     1    15    1
    15     1    16    1
    16     2    17    1
    17     2    18    1
    18     3    19    1
    19     3    20    1
    20     4    21    1
    21     4    22    1
    22     5    23    1
    23     6    24    1
    24     6    25    1
    25     7    26    1
    26     7    27    1
    27     8    28    1
    28     8    29    1
    29     9    30    1
    30     9    31    1
    31    10    32    1
    32    11    33    1
    33    11    34    1
    34    12    35    1
    35    12    36    1
    36    13    37    1
    37    13    38    1
    38    14    39    1
    39    14    40    1
