@<TRIPOS>MOLECULE
*****
 50 53 0 0 0
SMALL
GASTEIGER

@<TRIPOS>ATOM
      1 C           2.0737   -2.8323    0.6588 C.3     1  UNL1       -0.0405
      2 C           1.2096   -1.5826    0.6665 C.3     1  UNL1        0.0691
      3 N           0.3515   -1.6124   -0.4467 N.pl3   1  UNL1       -0.3049
      4 C          -0.6214   -0.6318   -0.7440 C.ar    1  UNL1        0.2175
      5 N          -0.2697    0.5496   -1.3247 N.ar    1  UNL1       -0.2199
      6 C          -1.2061    1.4482   -1.6483 C.ar    1  UNL1        0.0698
      7 C          -2.5484    1.1666   -1.3879 C.ar    1  UNL1        0.1817
      8 F          -3.4895    2.0786   -1.7326 F       1  UNL1       -0.2003
      9 C          -2.9304   -0.0181   -0.8021 C.ar    1  UNL1        0.1711
     10 N          -4.2792   -0.3575   -0.5352 N.am    1  UNL1       -0.2101
     11 C          -5.1241   -1.0467   -1.4878 C.2     1  UNL1        0.4088
     12 O          -4.9706   -0.9637   -2.7340 O.2     1  UNL1       -0.2258
     13 O          -6.0610   -1.7581   -0.7511 O.3     1  UNL1       -0.4480
     14 C          -5.7624   -1.6060    0.6401 C.3     1  UNL1        0.1155
     15 C          -5.1288   -0.1846    0.6179 C.3     1  UNL1        0.0954
     16 C          -6.2788    0.7439    0.3554 C.3     1  UNL1        0.0746
     17 C          -5.9374    2.1824    0.2273 C.3     1  UNL1       -0.0371
     18 O          -7.0919    0.2733   -0.6959 O.3     1  UNL1       -0.3901
     19 N          -1.9166   -0.8765   -0.5024 N.ar    1  UNL1       -0.1961
     20 C           2.1765   -0.4273    0.5182 C.ar    1  UNL1        0.0989
     21 N           3.4883   -0.4827    0.4710 N.ar    1  UNL1       -0.2422
     22 C           4.2066    0.5788    0.3675 C.ar    1  UNL1        0.0785
     23 C           5.7019    0.5208    0.2845 C.ar    1  UNL1        0.0009
     24 C           6.4570    1.6587    0.1827 C.ar    1  UNL1       -0.0515
     25 C           7.8285    1.6380    0.0902 C.ar    1  UNL1       -0.0471
     26 C           8.4589    0.4131    0.1022 C.ar    1  UNL1        0.0179
     27 BR         10.3624    0.2890   -0.0185 Br      1  UNL1       -0.0503
     28 C           7.7506   -0.7652    0.2028 C.ar    1  UNL1       -0.0471
     29 C           6.3794   -0.6773    0.2921 C.ar    1  UNL1       -0.0515
     30 C           3.5814    1.7941    0.3063 C.ar    1  UNL1        0.0034
     31 S           1.8637    1.2655    0.4105 S.2     1  UNL1       -0.0781
     32 H           2.4319   -2.9372   -0.4049 H       1  UNL1        0.0251
     33 H           2.9886   -2.5920    1.2485 H       1  UNL1        0.0251
     34 H           1.5668   -3.7309    1.0046 H       1  UNL1        0.0251
     35 H           0.6954   -1.4373    1.6435 H       1  UNL1        0.0566
     36 H           0.3997   -2.4180   -1.1500 H       1  UNL1        0.1496
     37 H          -0.9289    2.3914   -2.1128 H       1  UNL1        0.0861
     38 H          -5.0629   -2.3517    1.0200 H       1  UNL1        0.0718
     39 H          -6.7308   -1.5498    1.1756 H       1  UNL1        0.0718
     40 H          -4.6065    0.0230    1.5523 H       1  UNL1        0.0565
     41 H          -6.9425    0.6658    1.2738 H       1  UNL1        0.0610
     42 H          -6.0213    2.4928   -0.8510 H       1  UNL1        0.0255
     43 H          -6.6651    2.8544    0.7714 H       1  UNL1        0.0255
     44 H          -4.9492    2.4528    0.6070 H       1  UNL1        0.0255
     45 H          -6.8544    0.7056   -1.5665 H       1  UNL1        0.2098
     46 H           5.9626    2.6265    0.1760 H       1  UNL1        0.0624
     47 H           8.4252    2.5216    0.0078 H       1  UNL1        0.0629
     48 H           8.2743   -1.7308    0.2093 H       1  UNL1        0.0629
     49 H           5.8082   -1.5846    0.3739 H       1  UNL1        0.0624
     50 H           3.9352    2.8204    0.2204 H       1  UNL1        0.0715
@<TRIPOS>BOND
     1     1     2    1
     2     2     3    1
     3     3     4    1
     4     4     5   ar
     5     5     6   ar
     6     6     7   ar
     7     7     8    1
     8     7     9   ar
     9     9    10    1
    10    10    11   am
    11    11    12    2
    12    11    13    1
    13    13    14    1
    14    14    15    1
    15    15    16    1
    16    16    17    1
    17    16    18    1
    18     9    19   ar
    19     2    20    1
    20    20    21   ar
    21    21    22   ar
    22    22    23    1
    23    23    24   ar
    24    24    25   ar
    25    25    26   ar
    26    26    27    1
    27    26    28   ar
    28    28    29   ar
    29    22    30   ar
    30    30    31   ar
    31    19     4   ar
    32    31    20   ar
    33    15    10    1
    34    29    23   ar
    35     1    32    1
    36     1    33    1
    37     1    34    1
    38     2    35    1
    39     3    36    1
    40     6    37    1
    41    14    38    1
    42    14    39    1
    43    15    40    1
    44    16    41    1
    45    17    42    1
    46    17    43    1
    47    17    44    1
    48    18    45    1
    49    24    46    1
    50    25    47    1
    51    28    48    1
    52    29    49    1
    53    30    50    1
