
     RDKit          3D

 50 53  0  0  0  0  0  0  0  0999 V2000
    2.0737   -2.8323    0.6588 C   0  0  0  0  0  0  0  0  0  0  0  0
    1.2096   -1.5826    0.6665 C   0  0  0  0  0  0  0  0  0  0  0  0
    0.3515   -1.6124   -0.4467 N   0  0  0  0  0  0  0  0  0  0  0  0
   -0.6214   -0.6318   -0.7440 C   0  0  0  0  0  0  0  0  0  0  0  0
   -0.2697    0.5496   -1.3247 N   0  0  0  0  0  0  0  0  0  0  0  0
   -1.2061    1.4482   -1.6483 C   0  0  0  0  0  0  0  0  0  0  0  0
   -2.5484    1.1666   -1.3879 C   0  0  0  0  0  0  0  0  0  0  0  0
   -3.4895    2.0786   -1.7326 F   0  0  0  0  0  0  0  0  0  0  0  0
   -2.9304   -0.0181   -0.8021 C   0  0  0  0  0  0  0  0  0  0  0  0
   -4.2792   -0.3575   -0.5352 N   0  0  0  0  0  0  0  0  0  0  0  0
   -5.1241   -1.0467   -1.4878 C   0  0  0  0  0  0  0  0  0  0  0  0
   -4.9706   -0.9637   -2.7340 O   0  0  0  0  0  0  0  0  0  0  0  0
   -6.0610   -1.7581   -0.7511 O   0  0  0  0  0  0  0  0  0  0  0  0
   -5.7624   -1.6060    0.6401 C   0  0  0  0  0  0  0  0  0  0  0  0
   -5.1288   -0.1846    0.6179 C   0  0  2  0  0  0  0  0  0  0  0  0
   -6.2788    0.7439    0.3554 C   0  0  1  0  0  0  0  0  0  0  0  0
   -5.9374    2.1824    0.2273 C   0  0  0  0  0  0  0  0  0  0  0  0
   -7.0919    0.2733   -0.6959 O   0  0  0  0  0  0  0  0  0  0  0  0
   -1.9166   -0.8765   -0.5024 N   0  0  0  0  0  0  0  0  0  0  0  0
    2.1765   -0.4273    0.5182 C   0  0  0  0  0  0  0  0  0  0  0  0
    3.4883   -0.4827    0.4710 N   0  0  0  0  0  0  0  0  0  0  0  0
    4.2066    0.5788    0.3675 C   0  0  0  0  0  0  0  0  0  0  0  0
    5.7019    0.5208    0.2845 C   0  0  0  0  0  0  0  0  0  0  0  0
    6.4570    1.6587    0.1827 C   0  0  0  0  0  0  0  0  0  0  0  0
    7.8285    1.6380    0.0902 C   0  0  0  0  0  0  0  0  0  0  0  0
    8.4589    0.4131    0.1022 C   0  0  0  0  0  0  0  0  0  0  0  0
   10.3624    0.2890   -0.0185 Br  0  0  0  0  0  0  0  0  0  0  0  0
    7.7506   -0.7652    0.2028 C   0  0  0  0  0  0  0  0  0  0  0  0
    6.3794   -0.6773    0.2921 C   0  0  0  0  0  0  0  0  0  0  0  0
    3.5814    1.7941    0.3063 C   0  0  0  0  0  0  0  0  0  0  0  0
    1.8637    1.2655    0.4105 S   0  0  0  0  0  0  0  0  0  0  0  0
    2.4319   -2.9372   -0.4049 H   0  0  0  0  0  0  0  0  0  0  0  0
    2.9886   -2.5920    1.2485 H   0  0  0  0  0  0  0  0  0  0  0  0
    1.5668   -3.7309    1.0046 H   0  0  0  0  0  0  0  0  0  0  0  0
    0.6954   -1.4373    1.6435 H   0  0  0  0  0  0  0  0  0  0  0  0
    0.3997   -2.4180   -1.1500 H   0  0  0  0  0  0  0  0  0  0  0  0
   -0.9289    2.3914   -2.1128 H   0  0  0  0  0  0  0  0  0  0  0  0
   -5.0629   -2.3517    1.0200 H   0  0  0  0  0  0  0  0  0  0  0  0
   -6.7308   -1.5498    1.1756 H   0  0  0  0  0  0  0  0  0  0  0  0
   -4.6065    0.0230    1.5523 H   0  0  0  0  0  0  0  0  0  0  0  0
   -6.9425    0.6658    1.2738 H   0  0  0  0  0  0  0  0  0  0  0  0
   -6.0213    2.4928   -0.8510 H   0  0  0  0  0  0  0  0  0  0  0  0
   -6.6651    2.8544    0.7714 H   0  0  0  0  0  0  0  0  0  0  0  0
   -4.9492    2.4528    0.6070 H   0  0  0  0  0  0  0  0  0  0  0  0
   -6.8544    0.7056   -1.5665 H   0  0  0  0  0  0  0  0  0  0  0  0
    5.9626    2.6265    0.1760 H   0  0  0  0  0  0  0  0  0  0  0  0
    8.4252    2.5216    0.0078 H   0  0  0  0  0  0  0  0  0  0  0  0
    8.2743   -1.7308    0.2093 H   0  0  0  0  0  0  0  0  0  0  0  0
    5.8082   -1.5846    0.3739 H   0  0  0  0  0  0  0  0  0  0  0  0
    3.9352    2.8204    0.2204 H   0  0  0  0  0  0  0  0  0  0  0  0
  1  2  1  0
  2  3  1  0
  3  4  1  0
  4  5  2  0
  5  6  1  0
  6  7  2  0
  7  8  1  0
  7  9  1  0
  9 10  1  0
 10 11  1  0
 11 12  2  0
 11 13  1  0
 13 14  1  0
 14 15  1  0
 15 16  1  0
 16 17  1  0
 16 18  1  0
  9 19  2  0
  2 20  1  0
 20 21  2  0
 21 22  1  0
 22 23  1  0
 23 24  2  0
 24 25  1  0
 25 26  2  0
 26 27  1  0
 26 28  1  0
 28 29  2  0
 22 30  2  0
 30 31  1  0
 19  4  1  0
 31 20  1  0
 15 10  1  0
 29 23  1  0
  1 32  1  0
  1 33  1  0
  1 34  1  0
  2 35  1  0
  3 36  1  0
  6 37  1  0
 14 38  1  0
 14 39  1  0
 15 40  1  1
 16 41  1  1
 17 42  1  0
 17 43  1  0
 17 44  1  0
 18 45  1  0
 24 46  1  0
 25 47  1  0
 28 48  1  0
 29 49  1  0
 30 50  1  0
M  END
$$$$
