@<TRIPOS>MOLECULE
*****
 58 61 0 0 0
SMALL
GASTEIGER

@<TRIPOS>ATOM
      1 C          -0.4155   -2.9601    1.4017 C.3     1  UNL1       -0.0592
      2 C          -1.2940   -2.7181    0.2087 C.3     1  UNL1       -0.0078
      3 C          -2.1119   -3.9812   -0.0948 C.3     1  UNL1        0.0479
      4 O          -1.2715   -5.0504   -0.3662 O.3     1  UNL1       -0.3947
      5 C          -2.2550   -1.5957    0.3915 C.3     1  UNL1        0.0047
      6 N          -1.6507   -0.3042    0.6544 N.3     1  UNL1       -0.2870
      7 C          -2.6833    0.6593    0.8310 C.3     1  UNL1        0.0126
      8 C          -3.8944    0.1285    1.5537 C.3     1  UNL1       -0.0491
      9 C          -3.1540    1.2255   -0.5253 C.3     1  UNL1       -0.0099
     10 C          -1.9929    2.0550   -0.9476 C.ar    1  UNL1       -0.0158
     11 C          -0.7638    1.4620   -0.8282 C.ar    1  UNL1        0.0421
     12 N           0.1671    2.3536   -1.2390 N.ar    1  UNL1       -0.3562
     13 C          -0.4047    3.5052   -1.6225 C.ar    1  UNL1        0.0470
     14 C           0.0610    4.7068   -2.1107 C.ar    1  UNL1       -0.0378
     15 C          -0.8338    5.7122   -2.4124 C.ar    1  UNL1       -0.0598
     16 C          -2.2012    5.5498   -2.2381 C.ar    1  UNL1       -0.0611
     17 C          -2.6607    4.3287   -1.7431 C.ar    1  UNL1       -0.0523
     18 C          -1.7769    3.3181   -1.4386 C.ar    1  UNL1        0.0032
     19 C          -0.7012    0.0694   -0.3231 C.3     1  UNL1        0.0766
     20 C           0.6983   -0.2224    0.0560 C.ar    1  UNL1       -0.0244
     21 C           1.5652   -0.7662   -0.8488 C.ar    1  UNL1       -0.0562
     22 C           2.8984   -1.0524   -0.5201 C.ar    1  UNL1       -0.0543
     23 C           3.3500   -0.7811    0.7424 C.ar    1  UNL1       -0.0248
     24 C           4.7226   -1.0714    1.0954 C.2     1  UNL1       -0.0478
     25 C           5.6371   -1.5848    0.3246 C.2     1  UNL1        0.0229
     26 C           7.0095   -1.8380    0.7950 C.2     1  UNL1        0.3296
     27 O           7.8445   -2.3358   -0.0013 O.2     1  UNL1       -0.2458
     28 O           7.4303   -1.5528    2.0813 O.3     1  UNL1       -0.4775
     29 C           2.4832   -0.2301    1.6695 C.ar    1  UNL1       -0.0543
     30 C           1.1513    0.0498    1.3225 C.ar    1  UNL1       -0.0562
     31 H          -0.5092   -2.1660    2.1708 H       1  UNL1        0.0234
     32 H          -0.7481   -3.8993    1.8896 H       1  UNL1        0.0234
     33 H           0.6577   -3.1114    1.1297 H       1  UNL1        0.0234
     34 H          -0.6445   -2.5925   -0.6802 H       1  UNL1        0.0333
     35 H          -2.7629   -3.7467   -0.9563 H       1  UNL1        0.0560
     36 H          -2.7688   -4.1853    0.7905 H       1  UNL1        0.0560
     37 H          -1.2194   -5.5858    0.4797 H       1  UNL1        0.2094
     38 H          -2.8531   -1.5310   -0.5658 H       1  UNL1        0.0430
     39 H          -2.9976   -1.8375    1.1728 H       1  UNL1        0.0430
     40 H          -2.2697    1.5286    1.3816 H       1  UNL1        0.0463
     41 H          -3.6344   -0.3323    2.5070 H       1  UNL1        0.0245
     42 H          -4.5285   -0.5036    0.8958 H       1  UNL1        0.0245
     43 H          -4.5333    1.0266    1.7884 H       1  UNL1        0.0245
     44 H          -4.0690    1.7952   -0.3701 H       1  UNL1        0.0329
     45 H          -3.2511    0.3644   -1.2047 H       1  UNL1        0.0329
     46 H           1.1956    2.1638   -1.2534 H       1  UNL1        0.1657
     47 H           1.1146    4.8877   -2.2660 H       1  UNL1        0.0638
     48 H          -0.4718    6.6551   -2.7953 H       1  UNL1        0.0618
     49 H          -2.8709    6.3645   -2.4873 H       1  UNL1        0.0618
     50 H          -3.7112    4.1692   -1.5962 H       1  UNL1        0.0624
     51 H          -0.9311   -0.5639   -1.2419 H       1  UNL1        0.0577
     52 H           1.2101   -0.9833   -1.8538 H       1  UNL1        0.0621
     53 H           3.5284   -1.4885   -1.3057 H       1  UNL1        0.0624
     54 H           5.0480   -0.8393    2.1240 H       1  UNL1        0.0626
     55 H           5.3844   -1.8321   -0.6881 H       1  UNL1        0.0689
     56 H           8.3974   -1.3216    2.3138 H       1  UNL1        0.2954
     57 H           2.7911    0.0017    2.6770 H       1  UNL1        0.0624
     58 H           0.4943    0.4839    2.0765 H       1  UNL1        0.0621
@<TRIPOS>BOND
     1     1     2    1
     2     2     3    1
     3     3     4    1
     4     2     5    1
     5     5     6    1
     6     6     7    1
     7     7     8    1
     8     7     9    1
     9     9    10    1
    10    10    11   ar
    11    11    12   ar
    12    12    13   ar
    13    13    14   ar
    14    14    15   ar
    15    15    16   ar
    16    16    17   ar
    17    17    18   ar
    18    11    19    1
    19    19    20    1
    20    20    21   ar
    21    21    22   ar
    22    22    23   ar
    23    23    24    1
    24    24    25    2
    25    25    26    1
    26    26    27    2
    27    26    28    1
    28    23    29   ar
    29    29    30   ar
    30    19     6    1
    31    30    20   ar
    32    18    10   ar
    33    18    13   ar
    34     1    31    1
    35     1    32    1
    36     1    33    1
    37     2    34    1
    38     3    35    1
    39     3    36    1
    40     4    37    1
    41     5    38    1
    42     5    39    1
    43     7    40    1
    44     8    41    1
    45     8    42    1
    46     8    43    1
    47     9    44    1
    48     9    45    1
    49    12    46    1
    50    14    47    1
    51    15    48    1
    52    16    49    1
    53    17    50    1
    54    19    51    1
    55    21    52    1
    56    22    53    1
    57    24    54    1
    58    25    55    1
    59    28    56    1
    60    29    57    1
    61    30    58    1
