
     RDKit          3D

 58 61  0  0  0  0  0  0  0  0999 V2000
   -0.4155   -2.9601    1.4017 C   0  0  0  0  0  0  0  0  0  0  0  0
   -1.2940   -2.7181    0.2087 C   0  0  1  0  0  0  0  0  0  0  0  0
   -2.1119   -3.9812   -0.0948 C   0  0  0  0  0  0  0  0  0  0  0  0
   -1.2715   -5.0504   -0.3662 O   0  0  0  0  0  0  0  0  0  0  0  0
   -2.2550   -1.5957    0.3915 C   0  0  0  0  0  0  0  0  0  0  0  0
   -1.6507   -0.3042    0.6544 N   0  0  0  0  0  0  0  0  0  0  0  0
   -2.6833    0.6593    0.8310 C   0  0  2  0  0  0  0  0  0  0  0  0
   -3.8944    0.1285    1.5537 C   0  0  0  0  0  0  0  0  0  0  0  0
   -3.1540    1.2255   -0.5253 C   0  0  0  0  0  0  0  0  0  0  0  0
   -1.9929    2.0550   -0.9476 C   0  0  0  0  0  0  0  0  0  0  0  0
   -0.7638    1.4620   -0.8282 C   0  0  0  0  0  0  0  0  0  0  0  0
    0.1671    2.3536   -1.2390 N   0  0  0  0  0  0  0  0  0  0  0  0
   -0.4047    3.5052   -1.6225 C   0  0  0  0  0  0  0  0  0  0  0  0
    0.0610    4.7068   -2.1107 C   0  0  0  0  0  0  0  0  0  0  0  0
   -0.8338    5.7122   -2.4124 C   0  0  0  0  0  0  0  0  0  0  0  0
   -2.2012    5.5498   -2.2381 C   0  0  0  0  0  0  0  0  0  0  0  0
   -2.6607    4.3287   -1.7431 C   0  0  0  0  0  0  0  0  0  0  0  0
   -1.7769    3.3181   -1.4386 C   0  0  0  0  0  0  0  0  0  0  0  0
   -0.7012    0.0694   -0.3231 C   0  0  1  0  0  0  0  0  0  0  0  0
    0.6983   -0.2224    0.0560 C   0  0  0  0  0  0  0  0  0  0  0  0
    1.5652   -0.7662   -0.8488 C   0  0  0  0  0  0  0  0  0  0  0  0
    2.8984   -1.0524   -0.5201 C   0  0  0  0  0  0  0  0  0  0  0  0
    3.3500   -0.7811    0.7424 C   0  0  0  0  0  0  0  0  0  0  0  0
    4.7226   -1.0714    1.0954 C   0  0  0  0  0  0  0  0  0  0  0  0
    5.6371   -1.5848    0.3246 C   0  0  0  0  0  0  0  0  0  0  0  0
    7.0095   -1.8380    0.7950 C   0  0  0  0  0  0  0  0  0  0  0  0
    7.8445   -2.3358   -0.0013 O   0  0  0  0  0  0  0  0  0  0  0  0
    7.4303   -1.5528    2.0813 O   0  0  0  0  0  0  0  0  0  0  0  0
    2.4832   -0.2301    1.6695 C   0  0  0  0  0  0  0  0  0  0  0  0
    1.1513    0.0498    1.3225 C   0  0  0  0  0  0  0  0  0  0  0  0
   -0.5092   -2.1660    2.1708 H   0  0  0  0  0  0  0  0  0  0  0  0
   -0.7481   -3.8993    1.8896 H   0  0  0  0  0  0  0  0  0  0  0  0
    0.6577   -3.1114    1.1297 H   0  0  0  0  0  0  0  0  0  0  0  0
   -0.6445   -2.5925   -0.6802 H   0  0  0  0  0  0  0  0  0  0  0  0
   -2.7629   -3.7467   -0.9563 H   0  0  0  0  0  0  0  0  0  0  0  0
   -2.7688   -4.1853    0.7905 H   0  0  0  0  0  0  0  0  0  0  0  0
   -1.2194   -5.5858    0.4797 H   0  0  0  0  0  0  0  0  0  0  0  0
   -2.8531   -1.5310   -0.5658 H   0  0  0  0  0  0  0  0  0  0  0  0
   -2.9976   -1.8375    1.1728 H   0  0  0  0  0  0  0  0  0  0  0  0
   -2.2697    1.5286    1.3816 H   0  0  0  0  0  0  0  0  0  0  0  0
   -3.6344   -0.3323    2.5070 H   0  0  0  0  0  0  0  0  0  0  0  0
   -4.5285   -0.5036    0.8958 H   0  0  0  0  0  0  0  0  0  0  0  0
   -4.5333    1.0266    1.7884 H   0  0  0  0  0  0  0  0  0  0  0  0
   -4.0690    1.7952   -0.3701 H   0  0  0  0  0  0  0  0  0  0  0  0
   -3.2511    0.3644   -1.2047 H   0  0  0  0  0  0  0  0  0  0  0  0
    1.1956    2.1638   -1.2534 H   0  0  0  0  0  0  0  0  0  0  0  0
    1.1146    4.8877   -2.2660 H   0  0  0  0  0  0  0  0  0  0  0  0
   -0.4718    6.6551   -2.7953 H   0  0  0  0  0  0  0  0  0  0  0  0
   -2.8709    6.3645   -2.4873 H   0  0  0  0  0  0  0  0  0  0  0  0
   -3.7112    4.1692   -1.5962 H   0  0  0  0  0  0  0  0  0  0  0  0
   -0.9311   -0.5639   -1.2419 H   0  0  0  0  0  0  0  0  0  0  0  0
    1.2101   -0.9833   -1.8538 H   0  0  0  0  0  0  0  0  0  0  0  0
    3.5284   -1.4885   -1.3057 H   0  0  0  0  0  0  0  0  0  0  0  0
    5.0480   -0.8393    2.1240 H   0  0  0  0  0  0  0  0  0  0  0  0
    5.3844   -1.8321   -0.6881 H   0  0  0  0  0  0  0  0  0  0  0  0
    8.3974   -1.3216    2.3138 H   0  0  0  0  0  0  0  0  0  0  0  0
    2.7911    0.0017    2.6770 H   0  0  0  0  0  0  0  0  0  0  0  0
    0.4943    0.4839    2.0765 H   0  0  0  0  0  0  0  0  0  0  0  0
  1  2  1  0
  2  3  1  0
  3  4  1  0
  2  5  1  0
  5  6  1  0
  6  7  1  0
  7  8  1  0
  7  9  1  0
  9 10  1  0
 10 11  2  0
 11 12  1  0
 12 13  1  0
 13 14  2  0
 14 15  1  0
 15 16  2  0
 16 17  1  0
 17 18  2  0
 11 19  1  0
 19 20  1  0
 20 21  2  0
 21 22  1  0
 22 23  2  0
 23 24  1  0
 24 25  2  0
 25 26  1  0
 26 27  2  0
 26 28  1  0
 23 29  1  0
 29 30  2  0
 19  6  1  0
 30 20  1  0
 18 10  1  0
 18 13  1  0
  1 31  1  0
  1 32  1  0
  1 33  1  0
  2 34  1  6
  3 35  1  0
  3 36  1  0
  4 37  1  0
  5 38  1  0
  5 39  1  0
  7 40  1  1
  8 41  1  0
  8 42  1  0
  8 43  1  0
  9 44  1  0
  9 45  1  0
 12 46  1  0
 14 47  1  0
 15 48  1  0
 16 49  1  0
 17 50  1  0
 19 51  1  6
 21 52  1  0
 22 53  1  0
 24 54  1  0
 25 55  1  0
 28 56  1  0
 29 57  1  0
 30 58  1  0
M  END
$$$$
