
     RDKit          3D

 69 73  0  0  0  0  0  0  0  0999 V2000
   -6.5919    2.1723    2.0295 C   0  0  0  0  0  0  0  0  0  0  0  0
   -7.2888    1.8513    0.7991 N   0  0  0  0  0  0  0  0  0  0  0  0
   -8.6914    2.1863    0.6577 C   0  0  0  0  0  0  0  0  0  0  0  0
   -6.6008    1.2230   -0.2485 C   0  0  0  0  0  0  0  0  0  0  0  0
   -7.1942    0.9388   -1.3015 O   0  0  0  0  0  0  0  0  0  0  0  0
   -5.1931    0.9013   -0.1118 C   0  0  0  0  0  0  0  0  0  0  0  0
   -4.2314    1.9221   -0.0550 C   0  0  0  0  0  0  0  0  0  0  0  0
   -3.0354    1.2708    0.0625 C   0  0  0  0  0  0  0  0  0  0  0  0
   -1.7352    1.7114    0.1511 C   0  0  0  0  0  0  0  0  0  0  0  0
   -0.7369    0.8251    0.2463 N   0  0  0  0  0  0  0  0  0  0  0  0
   -0.9155   -0.5079    0.2644 C   0  0  0  0  0  0  0  0  0  0  0  0
    0.1326   -1.4608    0.3397 N   0  0  0  0  0  0  0  0  0  0  0  0
    1.4976   -1.1710    0.1318 C   0  0  0  0  0  0  0  0  0  0  0  0
    1.9917    0.0453   -0.2510 C   0  0  0  0  0  0  0  0  0  0  0  0
    3.3618    0.2696   -0.4350 C   0  0  0  0  0  0  0  0  0  0  0  0
    4.2446   -0.7665   -0.2251 C   0  0  0  0  0  0  0  0  0  0  0  0
    5.6074   -0.5299   -0.4409 N   0  0  0  0  0  0  0  0  0  0  0  0
    6.6669   -1.2935    0.1628 C   0  0  0  0  0  0  0  0  0  0  0  0
    7.9818   -0.5701   -0.0121 C   0  0  0  0  0  0  0  0  0  0  0  0
    7.9392    0.8427    0.1245 N   0  0  0  0  0  0  0  0  0  0  0  0
    9.1325    1.5250   -0.2989 C   0  0  0  0  0  0  0  0  0  0  0  0
   10.3412    1.3032    0.5409 C   0  0  0  0  0  0  0  0  0  0  0  0
   10.7037   -0.0460    0.5687 O   0  0  0  0  0  0  0  0  0  0  0  0
    6.7994    1.5085   -0.4462 C   0  0  0  0  0  0  0  0  0  0  0  0
    6.0617    0.5439   -1.3393 C   0  0  0  0  0  0  0  0  0  0  0  0
    3.7148   -1.9638    0.1564 C   0  0  0  0  0  0  0  0  0  0  0  0
    2.4019   -2.1761    0.3324 N   0  0  0  0  0  0  0  0  0  0  0  0
   -2.2157   -0.9183    0.1770 N   0  0  0  0  0  0  0  0  0  0  0  0
   -3.2434   -0.0807    0.0787 C   0  0  0  0  0  0  0  0  0  0  0  0
   -4.5942   -0.2714   -0.0318 N   0  0  0  0  0  0  0  0  0  0  0  0
   -5.1966   -1.5777   -0.0655 C   0  0  0  0  0  0  0  0  0  0  0  0
   -6.4000   -1.7613    0.7765 C   0  0  0  0  0  0  0  0  0  0  0  0
   -7.1142   -2.9467    0.1673 C   0  0  0  0  0  0  0  0  0  0  0  0
   -6.9733   -2.6243   -1.3210 C   0  0  0  0  0  0  0  0  0  0  0  0
   -5.6055   -1.9925   -1.4451 C   0  0  0  0  0  0  0  0  0  0  0  0
   -5.7264    1.4744    2.1853 H   0  0  0  0  0  0  0  0  0  0  0  0
   -6.1508    3.1797    2.0198 H   0  0  0  0  0  0  0  0  0  0  0  0
   -7.2688    2.1249    2.9066 H   0  0  0  0  0  0  0  0  0  0  0  0
   -8.8880    3.2323    1.0308 H   0  0  0  0  0  0  0  0  0  0  0  0
   -9.2996    1.4547    1.1983 H   0  0  0  0  0  0  0  0  0  0  0  0
   -8.9956    2.2302   -0.4189 H   0  0  0  0  0  0  0  0  0  0  0  0
   -4.3974    2.9861   -0.0928 H   0  0  0  0  0  0  0  0  0  0  0  0
   -1.4663    2.7694    0.1464 H   0  0  0  0  0  0  0  0  0  0  0  0
   -0.1776   -2.4562    0.5740 H   0  0  0  0  0  0  0  0  0  0  0  0
    1.3504    0.8986   -0.4390 H   0  0  0  0  0  0  0  0  0  0  0  0
    3.6780    1.2525   -0.7344 H   0  0  0  0  0  0  0  0  0  0  0  0
    6.7480   -2.2605   -0.3763 H   0  0  0  0  0  0  0  0  0  0  0  0
    6.4195   -1.4479    1.2344 H   0  0  0  0  0  0  0  0  0  0  0  0
    8.6414   -1.0176    0.8003 H   0  0  0  0  0  0  0  0  0  0  0  0
    8.4229   -0.8986   -0.9738 H   0  0  0  0  0  0  0  0  0  0  0  0
    8.9210    2.6327   -0.2738 H   0  0  0  0  0  0  0  0  0  0  0  0
    9.3231    1.2960   -1.3699 H   0  0  0  0  0  0  0  0  0  0  0  0
   10.1899    1.6398    1.5935 H   0  0  0  0  0  0  0  0  0  0  0  0
   11.2183    1.8783    0.1841 H   0  0  0  0  0  0  0  0  0  0  0  0
   10.6862   -0.3345   -0.3997 H   0  0  0  0  0  0  0  0  0  0  0  0
    6.0637    1.8623    0.3045 H   0  0  0  0  0  0  0  0  0  0  0  0
    7.1196    2.4235   -0.9871 H   0  0  0  0  0  0  0  0  0  0  0  0
    5.2696    0.9712   -1.9437 H   0  0  0  0  0  0  0  0  0  0  0  0
    6.8518    0.0889   -2.0048 H   0  0  0  0  0  0  0  0  0  0  0  0
    4.4313   -2.7767    0.3176 H   0  0  0  0  0  0  0  0  0  0  0  0
   -4.4500   -2.3631    0.2712 H   0  0  0  0  0  0  0  0  0  0  0  0
   -6.1487   -2.0582    1.8237 H   0  0  0  0  0  0  0  0  0  0  0  0
   -7.1142   -0.9192    0.8101 H   0  0  0  0  0  0  0  0  0  0  0  0
   -6.5971   -3.9052    0.3371 H   0  0  0  0  0  0  0  0  0  0  0  0
   -8.1832   -2.9871    0.4629 H   0  0  0  0  0  0  0  0  0  0  0  0
   -7.7883   -1.8994   -1.5565 H   0  0  0  0  0  0  0  0  0  0  0  0
   -7.1030   -3.5275   -1.9465 H   0  0  0  0  0  0  0  0  0  0  0  0
   -4.9326   -2.7578   -1.8909 H   0  0  0  0  0  0  0  0  0  0  0  0
   -5.6685   -1.1681   -2.1653 H   0  0  0  0  0  0  0  0  0  0  0  0
  1  2  1  0
  2  3  1  0
  2  4  1  0
  4  5  2  0
  4  6  1  0
  6  7  2  0
  7  8  1  0
  8  9  2  0
  9 10  1  0
 10 11  2  0
 11 12  1  0
 12 13  1  0
 13 14  2  0
 14 15  1  0
 15 16  2  0
 16 17  1  0
 17 18  1  0
 18 19  1  0
 19 20  1  0
 20 21  1  0
 21 22  1  0
 22 23  1  0
 20 24  1  0
 24 25  1  0
 16 26  1  0
 26 27  2  0
 11 28  1  0
 28 29  2  0
 29 30  1  0
 30 31  1  0
 31 32  1  0
 32 33  1  0
 33 34  1  0
 34 35  1  0
 30  6  1  0
 35 31  1  0
 29  8  1  0
 27 13  1  0
 25 17  1  0
  1 36  1  0
  1 37  1  0
  1 38  1  0
  3 39  1  0
  3 40  1  0
  3 41  1  0
  7 42  1  0
  9 43  1  0
 12 44  1  0
 14 45  1  0
 15 46  1  0
 18 47  1  0
 18 48  1  0
 19 49  1  0
 19 50  1  0
 21 51  1  0
 21 52  1  0
 22 53  1  0
 22 54  1  0
 23 55  1  0
 24 56  1  0
 24 57  1  0
 25 58  1  0
 25 59  1  0
 26 60  1  0
 31 61  1  0
 32 62  1  0
 32 63  1  0
 33 64  1  0
 33 65  1  0
 34 66  1  0
 34 67  1  0
 35 68  1  0
 35 69  1  0
M  END
$$$$
