@<TRIPOS>MOLECULE
*****
 69 73 0 0 0
SMALL
GASTEIGER

@<TRIPOS>ATOM
      1 C          -6.5919    2.1723    2.0295 C.3     1  UNL1        0.0032
      2 N          -7.2888    1.8513    0.7991 N.am    1  UNL1       -0.3024
      3 C          -8.6914    2.1863    0.6577 C.3     1  UNL1        0.0032
      4 C          -6.6008    1.2230   -0.2485 C.2     1  UNL1        0.2627
      5 O          -7.1942    0.9388   -1.3015 O.2     1  UNL1       -0.2684
      6 C          -5.1931    0.9013   -0.1118 C.ar    1  UNL1        0.1070
      7 C          -4.2314    1.9221   -0.0550 C.ar    1  UNL1       -0.0209
      8 C          -3.0354    1.2708    0.0625 C.ar    1  UNL1        0.0378
      9 C          -1.7352    1.7114    0.1511 C.ar    1  UNL1        0.0419
     10 N          -0.7369    0.8251    0.2463 N.ar    1  UNL1       -0.2219
     11 C          -0.9155   -0.5079    0.2644 C.ar    1  UNL1        0.2224
     12 N           0.1326   -1.4608    0.3397 N.pl3   1  UNL1       -0.2684
     13 C           1.4976   -1.1710    0.1318 C.ar    1  UNL1        0.1251
     14 C           1.9917    0.0453   -0.2510 C.ar    1  UNL1       -0.0198
     15 C           3.3618    0.2696   -0.4350 C.ar    1  UNL1       -0.0359
     16 C           4.2446   -0.7665   -0.2251 C.ar    1  UNL1        0.0482
     17 N           5.6074   -0.5299   -0.4409 N.pl3   1  UNL1       -0.3263
     18 C           6.6669   -1.2935    0.1628 C.3     1  UNL1        0.0250
     19 C           7.9818   -0.5701   -0.0121 C.3     1  UNL1        0.0148
     20 N           7.9392    0.8427    0.1245 N.3     1  UNL1       -0.2972
     21 C           9.1325    1.5250   -0.2989 C.3     1  UNL1        0.0222
     22 C          10.3412    1.3032    0.5409 C.3     1  UNL1        0.0569
     23 O          10.7037   -0.0460    0.5687 O.3     1  UNL1       -0.3937
     24 C           6.7994    1.5085   -0.4462 C.3     1  UNL1        0.0148
     25 C           6.0617    0.5439   -1.3393 C.3     1  UNL1        0.0250
     26 C           3.7148   -1.9638    0.1564 C.ar    1  UNL1        0.0507
     27 N           2.4019   -2.1761    0.3324 N.ar    1  UNL1       -0.2383
     28 N          -2.2157   -0.9183    0.1770 N.ar    1  UNL1       -0.1962
     29 C          -3.2434   -0.0807    0.0787 C.ar    1  UNL1        0.1466
     30 N          -4.5942   -0.2714   -0.0318 N.ar    1  UNL1       -0.3180
     31 C          -5.1966   -1.5777   -0.0655 C.3     1  UNL1        0.0366
     32 C          -6.4000   -1.7613    0.7765 C.3     1  UNL1       -0.0320
     33 C          -7.1142   -2.9467    0.1673 C.3     1  UNL1       -0.0511
     34 C          -6.9733   -2.6243   -1.3210 C.3     1  UNL1       -0.0511
     35 C          -5.6055   -1.9925   -1.4451 C.3     1  UNL1       -0.0320
     36 H          -5.7264    1.4744    2.1853 H       1  UNL1        0.0428
     37 H          -6.1508    3.1797    2.0198 H       1  UNL1        0.0428
     38 H          -7.2688    2.1249    2.9066 H       1  UNL1        0.0428
     39 H          -8.8880    3.2323    1.0308 H       1  UNL1        0.0428
     40 H          -9.2996    1.4547    1.1983 H       1  UNL1        0.0428
     41 H          -8.9956    2.2302   -0.4189 H       1  UNL1        0.0428
     42 H          -4.3974    2.9861   -0.0928 H       1  UNL1        0.0647
     43 H          -1.4663    2.7694    0.1464 H       1  UNL1        0.0838
     44 H          -0.1776   -2.4562    0.5740 H       1  UNL1        0.1564
     45 H           1.3504    0.8986   -0.4390 H       1  UNL1        0.0652
     46 H           3.6780    1.2525   -0.7344 H       1  UNL1        0.0638
     47 H           6.7480   -2.2605   -0.3763 H       1  UNL1        0.0476
     48 H           6.4195   -1.4479    1.2344 H       1  UNL1        0.0476
     49 H           8.6414   -1.0176    0.8003 H       1  UNL1        0.0442
     50 H           8.4229   -0.8986   -0.9738 H       1  UNL1        0.0442
     51 H           8.9210    2.6327   -0.2738 H       1  UNL1        0.0449
     52 H           9.3231    1.2960   -1.3699 H       1  UNL1        0.0449
     53 H          10.1899    1.6398    1.5935 H       1  UNL1        0.0570
     54 H          11.2183    1.8783    0.1841 H       1  UNL1        0.0570
     55 H          10.6862   -0.3345   -0.3997 H       1  UNL1        0.2095
     56 H           6.0637    1.8623    0.3045 H       1  UNL1        0.0442
     57 H           7.1196    2.4235   -0.9871 H       1  UNL1        0.0442
     58 H           5.2696    0.9712   -1.9437 H       1  UNL1        0.0476
     59 H           6.8518    0.0889   -2.0048 H       1  UNL1        0.0476
     60 H           4.4313   -2.7767    0.3176 H       1  UNL1        0.0849
     61 H          -4.4500   -2.3631    0.2712 H       1  UNL1        0.0528
     62 H          -6.1487   -2.0582    1.8237 H       1  UNL1        0.0285
     63 H          -7.1142   -0.9192    0.8101 H       1  UNL1        0.0285
     64 H          -6.5971   -3.9052    0.3371 H       1  UNL1        0.0266
     65 H          -8.1832   -2.9871    0.4629 H       1  UNL1        0.0266
     66 H          -7.7883   -1.8994   -1.5565 H       1  UNL1        0.0266
     67 H          -7.1030   -3.5275   -1.9465 H       1  UNL1        0.0266
     68 H          -4.9326   -2.7578   -1.8909 H       1  UNL1        0.0285
     69 H          -5.6685   -1.1681   -2.1653 H       1  UNL1        0.0285
@<TRIPOS>BOND
     1     1     2    1
     2     2     3    1
     3     2     4   am
     4     4     5    2
     5     4     6    1
     6     6     7   ar
     7     7     8   ar
     8     8     9   ar
     9     9    10   ar
    10    10    11   ar
    11    11    12    1
    12    12    13    1
    13    13    14   ar
    14    14    15   ar
    15    15    16   ar
    16    16    17    1
    17    17    18    1
    18    18    19    1
    19    19    20    1
    20    20    21    1
    21    21    22    1
    22    22    23    1
    23    20    24    1
    24    24    25    1
    25    16    26   ar
    26    26    27   ar
    27    11    28   ar
    28    28    29   ar
    29    29    30   ar
    30    30    31    1
    31    31    32    1
    32    32    33    1
    33    33    34    1
    34    34    35    1
    35    30     6   ar
    36    35    31    1
    37    29     8   ar
    38    27    13   ar
    39    25    17    1
    40     1    36    1
    41     1    37    1
    42     1    38    1
    43     3    39    1
    44     3    40    1
    45     3    41    1
    46     7    42    1
    47     9    43    1
    48    12    44    1
    49    14    45    1
    50    15    46    1
    51    18    47    1
    52    18    48    1
    53    19    49    1
    54    19    50    1
    55    21    51    1
    56    21    52    1
    57    22    53    1
    58    22    54    1
    59    23    55    1
    60    24    56    1
    61    24    57    1
    62    25    58    1
    63    25    59    1
    64    26    60    1
    65    31    61    1
    66    32    62    1
    67    32    63    1
    68    33    64    1
    69    33    65    1
    70    34    66    1
    71    34    67    1
    72    35    68    1
    73    35    69    1
