@<TRIPOS>MOLECULE
*****
 45 48 0 0 0
SMALL
GASTEIGER

@<TRIPOS>ATOM
      1 C          -2.3957    1.6013    1.8997 C.3     1  UNL1       -0.0350
      2 C          -1.9858    0.6254    0.7830 C.3     1  UNL1        0.0988
      3 C          -0.6771    0.0406    1.2201 C.ar    1  UNL1        0.0159
      4 C           0.4428    0.2527    0.4059 C.ar    1  UNL1       -0.0463
      5 C           1.6902   -0.2541    0.7137 C.ar    1  UNL1       -0.0217
      6 C           2.8513   -0.0305   -0.1274 C.2     1  UNL1       -0.0171
      7 C           3.7609   -0.9353   -0.4114 C.2     1  UNL1        0.1506
      8 F           3.5654   -2.1638    0.1421 F       1  UNL1       -0.2032
      9 C           4.9266   -0.7053   -1.2540 C.ar    1  UNL1        0.1171
     10 C           5.1942    0.5170   -1.8251 C.ar    1  UNL1        0.0574
     11 N           6.2835    0.7007   -2.6061 N.ar    1  UNL1       -0.2398
     12 C           7.1276   -0.2969   -2.8447 C.ar    1  UNL1        0.1472
     13 CL          8.5160   -0.0026   -3.8613 Cl      1  UNL1       -0.0604
     14 C           6.8584   -1.5321   -2.2691 C.ar    1  UNL1        0.0651
     15 N           5.7745   -1.7044   -1.4953 N.ar    1  UNL1       -0.2482
     16 C           1.8394   -0.9919    1.8588 C.ar    1  UNL1       -0.0518
     17 C           0.7452   -1.1957    2.6495 C.ar    1  UNL1       -0.0255
     18 C          -0.5157   -0.6903    2.3495 C.ar    1  UNL1        0.1289
     19 F          -1.5555   -0.9159    3.1596 F       1  UNL1       -0.2051
     20 N          -1.7313    1.3170   -0.4295 N.2     1  UNL1       -0.2519
     21 C          -2.5253    1.6999   -1.3429 C.2     1  UNL1        0.1483
     22 N          -2.1233    2.3911   -2.5129 N.pl3   1  UNL1       -0.3380
     23 S          -4.2629    1.2885   -1.0587 S.3     1  UNL1       -0.0755
     24 C          -4.2501   -0.1865   -0.0294 C.3     1  UNL1        0.1207
     25 C          -5.6110   -0.5760    0.5177 C.3     1  UNL1        0.0653
     26 O          -6.0830    0.4984    1.2996 O.3     1  UNL1       -0.3934
     27 C          -3.0502   -0.4200    0.7449 C.3     1  UNL1        0.0757
     28 C          -3.2913   -1.2589   -0.4463 C.3     1  UNL1        0.2730
     29 F          -2.4927   -1.1095   -1.5364 F       1  UNL1       -0.2036
     30 F          -3.7670   -2.5470   -0.2329 F       1  UNL1       -0.2036
     31 H          -2.1133    2.6446    1.6051 H       1  UNL1        0.0256
     32 H          -1.8680    1.2874    2.8163 H       1  UNL1        0.0256
     33 H          -3.4901    1.5159    2.1175 H       1  UNL1        0.0256
     34 H           0.3313    0.8358   -0.5027 H       1  UNL1        0.0628
     35 H           2.9504    0.9654   -0.5399 H       1  UNL1        0.0653
     36 H           4.5586    1.3676   -1.6775 H       1  UNL1        0.0853
     37 H           7.5709   -2.3369   -2.4831 H       1  UNL1        0.0860
     38 H           2.8132   -1.4205    2.1592 H       1  UNL1        0.0624
     39 H           0.8329   -1.7714    3.5528 H       1  UNL1        0.0646
     40 H          -2.0807    1.9024   -3.4248 H       1  UNL1        0.1442
     41 H          -1.8667    3.3959   -2.4677 H       1  UNL1        0.1442
     42 H          -6.3452   -0.7918   -0.2620 H       1  UNL1        0.0573
     43 H          -5.4619   -1.4182    1.2246 H       1  UNL1        0.0573
     44 H          -5.8554    1.3109    0.7418 H       1  UNL1        0.2095
     45 H          -3.2342   -0.9033    1.7447 H       1  UNL1        0.0402
@<TRIPOS>BOND
     1     2     1    1
     2     2     3    1
     3     3     4   ar
     4     4     5   ar
     5     5     6    1
     6     6     7    2
     7     7     8    1
     8     7     9    1
     9     9    10   ar
    10    10    11   ar
    11    11    12   ar
    12    12    13    1
    13    12    14   ar
    14    14    15   ar
    15     5    16   ar
    16    16    17   ar
    17    17    18   ar
    18    18    19    1
    19     2    20    1
    20    20    21    2
    21    21    22    1
    22    21    23    1
    23    23    24    1
    24    24    25    1
    25    25    26    1
    26    24    27    1
    27    27    28    1
    28    28    29    1
    29    28    30    1
    30    27     2    1
    31    18     3   ar
    32    28    24    1
    33    15     9   ar
    34     1    31    1
    35     1    32    1
    36     1    33    1
    37     4    34    1
    38     6    35    1
    39    10    36    1
    40    14    37    1
    41    16    38    1
    42    17    39    1
    43    22    40    1
    44    22    41    1
    45    25    42    1
    46    25    43    1
    47    26    44    1
    48    27    45    1
