
     RDKit          3D

 45 48  0  0  0  0  0  0  0  0999 V2000
   -2.3957    1.6013    1.8997 C   0  0  0  0  0  0  0  0  0  0  0  0
   -1.9858    0.6254    0.7830 C   0  0  2  0  0  0  0  0  0  0  0  0
   -0.6771    0.0406    1.2201 C   0  0  0  0  0  0  0  0  0  0  0  0
    0.4428    0.2527    0.4059 C   0  0  0  0  0  0  0  0  0  0  0  0
    1.6902   -0.2541    0.7137 C   0  0  0  0  0  0  0  0  0  0  0  0
    2.8513   -0.0305   -0.1274 C   0  0  0  0  0  0  0  0  0  0  0  0
    3.7609   -0.9353   -0.4114 C   0  0  0  0  0  0  0  0  0  0  0  0
    3.5654   -2.1638    0.1421 F   0  0  0  0  0  0  0  0  0  0  0  0
    4.9266   -0.7053   -1.2540 C   0  0  0  0  0  0  0  0  0  0  0  0
    5.1942    0.5170   -1.8251 C   0  0  0  0  0  0  0  0  0  0  0  0
    6.2835    0.7007   -2.6061 N   0  0  0  0  0  0  0  0  0  0  0  0
    7.1276   -0.2969   -2.8447 C   0  0  0  0  0  0  0  0  0  0  0  0
    8.5160   -0.0026   -3.8613 Cl  0  0  0  0  0  0  0  0  0  0  0  0
    6.8584   -1.5321   -2.2691 C   0  0  0  0  0  0  0  0  0  0  0  0
    5.7745   -1.7044   -1.4953 N   0  0  0  0  0  0  0  0  0  0  0  0
    1.8394   -0.9919    1.8588 C   0  0  0  0  0  0  0  0  0  0  0  0
    0.7452   -1.1957    2.6495 C   0  0  0  0  0  0  0  0  0  0  0  0
   -0.5157   -0.6903    2.3495 C   0  0  0  0  0  0  0  0  0  0  0  0
   -1.5555   -0.9159    3.1596 F   0  0  0  0  0  0  0  0  0  0  0  0
   -1.7313    1.3170   -0.4295 N   0  0  0  0  0  0  0  0  0  0  0  0
   -2.5253    1.6999   -1.3429 C   0  0  0  0  0  0  0  0  0  0  0  0
   -2.1233    2.3911   -2.5129 N   0  0  0  0  0  0  0  0  0  0  0  0
   -4.2629    1.2885   -1.0587 S   0  0  0  0  0  0  0  0  0  0  0  0
   -4.2501   -0.1865   -0.0294 C   0  0  2  0  0  0  0  0  0  0  0  0
   -5.6110   -0.5760    0.5177 C   0  0  0  0  0  0  0  0  0  0  0  0
   -6.0830    0.4984    1.2996 O   0  0  0  0  0  0  0  0  0  0  0  0
   -3.0502   -0.4200    0.7449 C   0  0  1  0  0  0  0  0  0  0  0  0
   -3.2913   -1.2589   -0.4463 C   0  0  0  0  0  0  0  0  0  0  0  0
   -2.4927   -1.1095   -1.5364 F   0  0  0  0  0  0  0  0  0  0  0  0
   -3.7670   -2.5470   -0.2329 F   0  0  0  0  0  0  0  0  0  0  0  0
   -2.1133    2.6446    1.6051 H   0  0  0  0  0  0  0  0  0  0  0  0
   -1.8680    1.2874    2.8163 H   0  0  0  0  0  0  0  0  0  0  0  0
   -3.4901    1.5159    2.1175 H   0  0  0  0  0  0  0  0  0  0  0  0
    0.3313    0.8358   -0.5027 H   0  0  0  0  0  0  0  0  0  0  0  0
    2.9504    0.9654   -0.5399 H   0  0  0  0  0  0  0  0  0  0  0  0
    4.5586    1.3676   -1.6775 H   0  0  0  0  0  0  0  0  0  0  0  0
    7.5709   -2.3369   -2.4831 H   0  0  0  0  0  0  0  0  0  0  0  0
    2.8132   -1.4205    2.1592 H   0  0  0  0  0  0  0  0  0  0  0  0
    0.8329   -1.7714    3.5528 H   0  0  0  0  0  0  0  0  0  0  0  0
   -2.0807    1.9024   -3.4248 H   0  0  0  0  0  0  0  0  0  0  0  0
   -1.8667    3.3959   -2.4677 H   0  0  0  0  0  0  0  0  0  0  0  0
   -6.3452   -0.7918   -0.2620 H   0  0  0  0  0  0  0  0  0  0  0  0
   -5.4619   -1.4182    1.2246 H   0  0  0  0  0  0  0  0  0  0  0  0
   -5.8554    1.3109    0.7418 H   0  0  0  0  0  0  0  0  0  0  0  0
   -3.2342   -0.9033    1.7447 H   0  0  0  0  0  0  0  0  0  0  0  0
  2  1  1  1
  2  3  1  0
  3  4  2  0
  4  5  1  0
  5  6  1  0
  6  7  2  0
  7  8  1  0
  7  9  1  0
  9 10  2  0
 10 11  1  0
 11 12  2  0
 12 13  1  0
 12 14  1  0
 14 15  2  0
  5 16  2  0
 16 17  1  0
 17 18  2  0
 18 19  1  0
  2 20  1  0
 20 21  2  0
 21 22  1  0
 21 23  1  0
 23 24  1  0
 24 25  1  1
 25 26  1  0
 24 27  1  0
 27 28  1  0
 28 29  1  0
 28 30  1  0
 27  2  1  0
 18  3  1  0
 28 24  1  0
 15  9  1  0
  1 31  1  0
  1 32  1  0
  1 33  1  0
  4 34  1  0
  6 35  1  0
 10 36  1  0
 14 37  1  0
 16 38  1  0
 17 39  1  0
 22 40  1  0
 22 41  1  0
 25 42  1  0
 25 43  1  0
 26 44  1  0
 27 45  1  1
M  END
$$$$
