@<TRIPOS>MOLECULE
*****
 48 51 0 0 0
SMALL
GASTEIGER

@<TRIPOS>ATOM
      1 C           4.9586   -0.8035   -0.3145 C.3     1  UNL1       -0.0200
      2 C           4.1234    0.3826   -0.0655 C.ar    1  UNL1        0.0691
      3 N           4.5887    1.6447    0.1280 N.ar    1  UNL1       -0.1761
      4 N           3.5922    2.4712    0.3399 N.ar    1  UNL1       -0.2736
      5 C           3.7046    3.9160    0.5891 C.3     1  UNL1        0.0302
      6 C           2.4677    1.7455    0.2846 C.ar    1  UNL1        0.0346
      7 C           2.7676    0.3950    0.0249 C.ar    1  UNL1        0.0408
      8 C           1.7356   -0.6283   -0.0731 C.ar    1  UNL1        0.0801
      9 C           2.0112   -1.9113   -0.4561 C.ar    1  UNL1       -0.0076
     10 C           0.9738   -2.8607   -0.5456 C.ar    1  UNL1        0.0999
     11 N           0.9565   -4.1575   -0.8861 N.ar    1  UNL1       -0.1712
     12 N          -0.3058   -4.5425   -0.7911 N.ar    1  UNL1       -0.2732
     13 C          -0.7617   -5.8912   -1.0769 C.3     1  UNL1        0.0302
     14 C          -1.0992   -3.5308   -0.3996 C.ar    1  UNL1        0.0380
     15 C          -0.2884   -2.4267   -0.2338 C.ar    1  UNL1        0.0812
     16 C          -0.5712   -1.1425    0.1502 C.ar    1  UNL1        0.2265
     17 O          -1.8840   -0.7765    0.4519 O.3     1  UNL1       -0.4725
     18 C          -2.1592    0.5300    0.8408 C.3     1  UNL1        0.1037
     19 C          -2.7306    0.6180    2.2460 C.3     1  UNL1       -0.0274
     20 C          -3.1743    1.1827   -0.0761 C.3     1  UNL1        0.0196
     21 C          -3.3930    2.5968    0.4448 C.3     1  UNL1        0.0182
     22 N          -3.7166    3.3612   -0.7669 N.am    1  UNL1       -0.3149
     23 C          -3.4392    2.5787   -1.9152 C.2     1  UNL1        0.2135
     24 O          -3.7708    2.8088   -3.1073 O.2     1  UNL1       -0.2758
     25 C          -2.6601    1.3913   -1.4663 C.3     1  UNL1        0.0315
     26 N           0.4397   -0.2805    0.2208 N.ar    1  UNL1       -0.2121
     27 H           6.0477   -0.4821   -0.1530 H       1  UNL1        0.0293
     28 H           4.9485   -1.1903   -1.3321 H       1  UNL1        0.0293
     29 H           4.8056   -1.5258    0.5032 H       1  UNL1        0.0293
     30 H           4.7455    4.1624    0.8487 H       1  UNL1        0.0473
     31 H           3.0875    4.2044    1.4738 H       1  UNL1        0.0473
     32 H           3.3871    4.5074   -0.2804 H       1  UNL1        0.0473
     33 H           1.4900    2.1795    0.4256 H       1  UNL1        0.0833
     34 H           3.0105   -2.2238   -0.7040 H       1  UNL1        0.0661
     35 H          -1.0850   -5.9633   -2.1459 H       1  UNL1        0.0473
     36 H           0.0657   -6.6072   -0.9393 H       1  UNL1        0.0473
     37 H          -1.5673   -6.1690   -0.3705 H       1  UNL1        0.0473
     38 H          -2.1600   -3.5185   -0.2308 H       1  UNL1        0.0834
     39 H          -1.2255    1.1200    0.8512 H       1  UNL1        0.0734
     40 H          -2.1635    0.0439    2.9814 H       1  UNL1        0.0265
     41 H          -3.8246    0.4319    2.2617 H       1  UNL1        0.0265
     42 H          -2.6208    1.7014    2.5429 H       1  UNL1        0.0265
     43 H          -4.1243    0.6288   -0.0833 H       1  UNL1        0.0356
     44 H          -2.4212    2.9721    0.8399 H       1  UNL1        0.0466
     45 H          -4.2083    2.6577    1.1745 H       1  UNL1        0.0466
     46 H          -4.0920    4.3315   -0.7336 H       1  UNL1        0.1487
     47 H          -1.5596    1.5817   -1.4878 H       1  UNL1        0.0363
     48 H          -2.9015    0.4867   -2.0806 H       1  UNL1        0.0363
@<TRIPOS>BOND
     1     1     2    1
     2     2     3   ar
     3     3     4   ar
     4     4     5    1
     5     4     6   ar
     6     6     7   ar
     7     7     8    1
     8     8     9   ar
     9     9    10   ar
    10    10    11   ar
    11    11    12   ar
    12    12    13    1
    13    12    14   ar
    14    14    15   ar
    15    15    16   ar
    16    16    17    1
    17    17    18    1
    18    18    19    1
    19    18    20    1
    20    20    21    1
    21    21    22    1
    22    22    23   am
    23    23    24    2
    24    23    25    1
    25    16    26   ar
    26     7     2   ar
    27    26     8   ar
    28    15    10   ar
    29    25    20    1
    30     1    27    1
    31     1    28    1
    32     1    29    1
    33     5    30    1
    34     5    31    1
    35     5    32    1
    36     6    33    1
    37     9    34    1
    38    13    35    1
    39    13    36    1
    40    13    37    1
    41    14    38    1
    42    18    39    1
    43    19    40    1
    44    19    41    1
    45    19    42    1
    46    20    43    1
    47    21    44    1
    48    21    45    1
    49    22    46    1
    50    25    47    1
    51    25    48    1
