
     RDKit          3D

 48 51  0  0  0  0  0  0  0  0999 V2000
    4.9586   -0.8035   -0.3145 C   0  0  0  0  0  0  0  0  0  0  0  0
    4.1234    0.3826   -0.0655 C   0  0  0  0  0  0  0  0  0  0  0  0
    4.5887    1.6447    0.1280 N   0  0  0  0  0  0  0  0  0  0  0  0
    3.5922    2.4712    0.3399 N   0  0  0  0  0  0  0  0  0  0  0  0
    3.7046    3.9160    0.5891 C   0  0  0  0  0  0  0  0  0  0  0  0
    2.4677    1.7455    0.2846 C   0  0  0  0  0  0  0  0  0  0  0  0
    2.7676    0.3950    0.0249 C   0  0  0  0  0  0  0  0  0  0  0  0
    1.7356   -0.6283   -0.0731 C   0  0  0  0  0  0  0  0  0  0  0  0
    2.0112   -1.9113   -0.4561 C   0  0  0  0  0  0  0  0  0  0  0  0
    0.9738   -2.8607   -0.5456 C   0  0  0  0  0  0  0  0  0  0  0  0
    0.9565   -4.1575   -0.8861 N   0  0  0  0  0  0  0  0  0  0  0  0
   -0.3058   -4.5425   -0.7911 N   0  0  0  0  0  0  0  0  0  0  0  0
   -0.7617   -5.8912   -1.0769 C   0  0  0  0  0  0  0  0  0  0  0  0
   -1.0992   -3.5308   -0.3996 C   0  0  0  0  0  0  0  0  0  0  0  0
   -0.2884   -2.4267   -0.2338 C   0  0  0  0  0  0  0  0  0  0  0  0
   -0.5712   -1.1425    0.1502 C   0  0  0  0  0  0  0  0  0  0  0  0
   -1.8840   -0.7765    0.4519 O   0  0  0  0  0  0  0  0  0  0  0  0
   -2.1592    0.5300    0.8408 C   0  0  2  0  0  0  0  0  0  0  0  0
   -2.7306    0.6180    2.2460 C   0  0  0  0  0  0  0  0  0  0  0  0
   -3.1743    1.1827   -0.0761 C   0  0  1  0  0  0  0  0  0  0  0  0
   -3.3930    2.5968    0.4448 C   0  0  0  0  0  0  0  0  0  0  0  0
   -3.7166    3.3612   -0.7669 N   0  0  0  0  0  0  0  0  0  0  0  0
   -3.4392    2.5787   -1.9152 C   0  0  0  0  0  0  0  0  0  0  0  0
   -3.7708    2.8088   -3.1073 O   0  0  0  0  0  0  0  0  0  0  0  0
   -2.6601    1.3913   -1.4663 C   0  0  0  0  0  0  0  0  0  0  0  0
    0.4397   -0.2805    0.2208 N   0  0  0  0  0  0  0  0  0  0  0  0
    6.0477   -0.4821   -0.1530 H   0  0  0  0  0  0  0  0  0  0  0  0
    4.9485   -1.1903   -1.3321 H   0  0  0  0  0  0  0  0  0  0  0  0
    4.8056   -1.5258    0.5032 H   0  0  0  0  0  0  0  0  0  0  0  0
    4.7455    4.1624    0.8487 H   0  0  0  0  0  0  0  0  0  0  0  0
    3.0875    4.2044    1.4738 H   0  0  0  0  0  0  0  0  0  0  0  0
    3.3871    4.5074   -0.2804 H   0  0  0  0  0  0  0  0  0  0  0  0
    1.4900    2.1795    0.4256 H   0  0  0  0  0  0  0  0  0  0  0  0
    3.0105   -2.2238   -0.7040 H   0  0  0  0  0  0  0  0  0  0  0  0
   -1.0850   -5.9633   -2.1459 H   0  0  0  0  0  0  0  0  0  0  0  0
    0.0657   -6.6072   -0.9393 H   0  0  0  0  0  0  0  0  0  0  0  0
   -1.5673   -6.1690   -0.3705 H   0  0  0  0  0  0  0  0  0  0  0  0
   -2.1600   -3.5185   -0.2308 H   0  0  0  0  0  0  0  0  0  0  0  0
   -1.2255    1.1200    0.8512 H   0  0  0  0  0  0  0  0  0  0  0  0
   -2.1635    0.0439    2.9814 H   0  0  0  0  0  0  0  0  0  0  0  0
   -3.8246    0.4319    2.2617 H   0  0  0  0  0  0  0  0  0  0  0  0
   -2.6208    1.7014    2.5429 H   0  0  0  0  0  0  0  0  0  0  0  0
   -4.1243    0.6288   -0.0833 H   0  0  0  0  0  0  0  0  0  0  0  0
   -2.4212    2.9721    0.8399 H   0  0  0  0  0  0  0  0  0  0  0  0
   -4.2083    2.6577    1.1745 H   0  0  0  0  0  0  0  0  0  0  0  0
   -4.0920    4.3315   -0.7336 H   0  0  0  0  0  0  0  0  0  0  0  0
   -1.5596    1.5817   -1.4878 H   0  0  0  0  0  0  0  0  0  0  0  0
   -2.9015    0.4867   -2.0806 H   0  0  0  0  0  0  0  0  0  0  0  0
  1  2  1  0
  2  3  2  0
  3  4  1  0
  4  5  1  0
  4  6  1  0
  6  7  2  0
  7  8  1  0
  8  9  2  0
  9 10  1  0
 10 11  2  0
 11 12  1  0
 12 13  1  0
 12 14  1  0
 14 15  2  0
 15 16  1  0
 16 17  1  0
 17 18  1  0
 18 19  1  0
 18 20  1  0
 20 21  1  0
 21 22  1  0
 22 23  1  0
 23 24  2  0
 23 25  1  0
 16 26  2  0
  7  2  1  0
 26  8  1  0
 15 10  1  0
 25 20  1  0
  1 27  1  0
  1 28  1  0
  1 29  1  0
  5 30  1  0
  5 31  1  0
  5 32  1  0
  6 33  1  0
  9 34  1  0
 13 35  1  0
 13 36  1  0
 13 37  1  0
 14 38  1  0
 18 39  1  1
 19 40  1  0
 19 41  1  0
 19 42  1  0
 20 43  1  6
 21 44  1  0
 21 45  1  0
 22 46  1  0
 25 47  1  0
 25 48  1  0
M  END
$$$$
