
     RDKit          3D

 53 55  0  0  0  0  0  0  0  0999 V2000
   -0.0763   -2.9422   -1.0650 C   0  0  0  0  0  0  0  0  0  0  0  0
    1.1652   -2.6697   -1.2867 C   0  0  0  0  0  0  0  0  0  0  0  0
    1.8544   -3.3889   -2.4169 C   0  0  0  0  0  0  0  0  0  0  0  0
    1.9456   -1.6810   -0.5879 C   0  0  0  0  0  0  0  0  0  0  0  0
    3.3526   -1.7467   -0.6668 C   0  0  0  0  0  0  0  0  0  0  0  0
    4.1648   -0.8961   -0.0502 N   0  0  0  0  0  0  0  0  0  0  0  0
    3.6736    0.1260    0.7223 C   0  0  0  0  0  0  0  0  0  0  0  0
    4.6490    0.9745    1.3380 C   0  0  0  0  0  0  0  0  0  0  0  0
    6.0134    0.7440    1.1406 C   0  0  0  0  0  0  0  0  0  0  0  0
    7.0018    1.5126    1.6963 C   0  0  0  0  0  0  0  0  0  0  0  0
    8.7004    1.1933    1.4264 Cl  0  0  0  0  0  0  0  0  0  0  0  0
    6.6369    2.5800    2.5003 C   0  0  0  0  0  0  0  0  0  0  0  0
    5.3216    2.8460    2.7233 C   0  0  0  0  0  0  0  0  0  0  0  0
    4.3320    2.0316    2.1334 C   0  0  0  0  0  0  0  0  0  0  0  0
    3.0589    2.3762    2.4143 F   0  0  0  0  0  0  0  0  0  0  0  0
    2.3134    0.2141    0.8132 C   0  0  0  0  0  0  0  0  0  0  0  0
    1.4437   -0.6706    0.1686 C   0  0  0  0  0  0  0  0  0  0  0  0
    0.0273   -0.4214    0.3194 N   0  0  0  0  0  0  0  0  0  0  0  0
   -0.6856    0.0350   -0.8117 C   0  0  0  0  0  0  0  0  0  0  0  0
    0.0566    0.2754   -1.9888 C   0  0  0  0  0  0  0  0  0  0  0  0
   -0.5791    0.7129   -3.1210 C   0  0  0  0  0  0  0  0  0  0  0  0
   -1.9069    0.9059   -3.0873 N   0  0  0  0  0  0  0  0  0  0  0  0
   -2.6330    0.6843   -1.9807 C   0  0  0  0  0  0  0  0  0  0  0  0
   -2.0375    0.2376   -0.7978 C   0  0  0  0  0  0  0  0  0  0  0  0
   -2.8327   -0.0028    0.3848 C   0  0  0  0  0  0  0  0  0  0  0  0
   -2.3376   -0.4168    1.4523 O   0  0  0  0  0  0  0  0  0  0  0  0
   -4.2561    0.2076    0.4516 N   0  0  0  0  0  0  0  0  0  0  0  0
   -5.0085   -0.0496    1.6655 C   0  0  0  0  0  0  0  0  0  0  0  0
   -6.4691    0.2625    1.4265 C   0  0  2  0  0  0  0  0  0  0  0  0
   -6.6605    1.7195    1.0675 C   0  0  0  0  0  0  0  0  0  0  0  0
   -7.2024    0.0206    2.5812 O   0  0  0  0  0  0  0  0  0  0  0  0
   -0.7340   -2.5507   -0.3212 H   0  0  0  0  0  0  0  0  0  0  0  0
   -0.5477   -3.6941   -1.7391 H   0  0  0  0  0  0  0  0  0  0  0  0
    1.0745   -3.6767   -3.1349 H   0  0  0  0  0  0  0  0  0  0  0  0
    2.4083   -4.2281   -1.9844 H   0  0  0  0  0  0  0  0  0  0  0  0
    2.5456   -2.6707   -2.9091 H   0  0  0  0  0  0  0  0  0  0  0  0
    3.7548   -2.5639   -1.2803 H   0  0  0  0  0  0  0  0  0  0  0  0
    6.3007   -0.0935    0.5098 H   0  0  0  0  0  0  0  0  0  0  0  0
    7.4383    3.1892    2.9405 H   0  0  0  0  0  0  0  0  0  0  0  0
    5.0375    3.6806    3.3519 H   0  0  0  0  0  0  0  0  0  0  0  0
    1.8693    0.9943    1.4042 H   0  0  0  0  0  0  0  0  0  0  0  0
   -0.3196   -0.6006    1.2473 H   0  0  0  0  0  0  0  0  0  0  0  0
    1.1283    0.1228   -2.0052 H   0  0  0  0  0  0  0  0  0  0  0  0
   -0.0655    0.9160   -4.0582 H   0  0  0  0  0  0  0  0  0  0  0  0
   -3.6938    0.8449   -1.9755 H   0  0  0  0  0  0  0  0  0  0  0  0
   -4.7382    0.5462   -0.3799 H   0  0  0  0  0  0  0  0  0  0  0  0
   -4.9414   -1.1476    1.8586 H   0  0  0  0  0  0  0  0  0  0  0  0
   -4.5956    0.4879    2.5275 H   0  0  0  0  0  0  0  0  0  0  0  0
   -6.8153   -0.3679    0.5831 H   0  0  0  0  0  0  0  0  0  0  0  0
   -6.3310    1.9250    0.0281 H   0  0  0  0  0  0  0  0  0  0  0  0
   -6.0118    2.3699    1.7235 H   0  0  0  0  0  0  0  0  0  0  0  0
   -7.6823    2.0650    1.2167 H   0  0  0  0  0  0  0  0  0  0  0  0
   -8.1069   -0.3217    2.3916 H   0  0  0  0  0  0  0  0  0  0  0  0
  1  2  2  3
  2  3  1  0
  2  4  1  0
  4  5  2  0
  5  6  1  0
  6  7  2  0
  7  8  1  0
  8  9  2  0
  9 10  1  0
 10 11  1  0
 10 12  2  0
 12 13  1  0
 13 14  2  0
 14 15  1  0
  7 16  1  0
 16 17  2  0
 17 18  1  0
 18 19  1  0
 19 20  2  0
 20 21  1  0
 21 22  2  0
 22 23  1  0
 23 24  2  0
 24 25  1  0
 25 26  2  0
 25 27  1  0
 27 28  1  0
 28 29  1  0
 29 30  1  0
 29 31  1  0
 17  4  1  0
 24 19  1  0
 14  8  1  0
  1 32  1  0
  1 33  1  0
  3 34  1  0
  3 35  1  0
  3 36  1  0
  5 37  1  0
  9 38  1  0
 12 39  1  0
 13 40  1  0
 16 41  1  0
 18 42  1  0
 20 43  1  0
 21 44  1  0
 23 45  1  0
 27 46  1  0
 28 47  1  0
 28 48  1  0
 29 49  1  6
 30 50  1  0
 30 51  1  0
 30 52  1  0
 31 53  1  0
M  END
$$$$
