@<TRIPOS>MOLECULE
*****
 53 55 0 0 0
SMALL
GASTEIGER

@<TRIPOS>ATOM
      1 C          -0.0763   -2.9422   -1.0650 C.2     1  UNL1       -0.0951
      2 C           1.1652   -2.6697   -1.2867 C.2     1  UNL1       -0.0472
      3 C           1.8544   -3.3889   -2.4169 C.3     1  UNL1       -0.0396
      4 C           1.9456   -1.6810   -0.5879 C.ar    1  UNL1        0.0166
      5 C           3.3526   -1.7467   -0.6668 C.ar    1  UNL1        0.0374
      6 N           4.1648   -0.8961   -0.0502 N.ar    1  UNL1       -0.2542
      7 C           3.6736    0.1260    0.7223 C.ar    1  UNL1        0.0755
      8 C           4.6490    0.9745    1.3380 C.ar    1  UNL1        0.0369
      9 C           6.0134    0.7440    1.1406 C.ar    1  UNL1       -0.0314
     10 C           7.0018    1.5126    1.6963 C.ar    1  UNL1        0.0418
     11 CL          8.7004    1.1933    1.4264 Cl      1  UNL1       -0.0835
     12 C           6.6369    2.5800    2.5003 C.ar    1  UNL1       -0.0406
     13 C           5.3216    2.8460    2.7233 C.ar    1  UNL1       -0.0244
     14 C           4.3320    2.0316    2.1334 C.ar    1  UNL1        0.1326
     15 F           3.0589    2.3762    2.4143 F       1  UNL1       -0.2048
     16 C           2.3134    0.2141    0.8132 C.ar    1  UNL1       -0.0138
     17 C           1.4437   -0.6706    0.1686 C.ar    1  UNL1        0.0423
     18 N           0.0273   -0.4214    0.3194 N.pl3   1  UNL1       -0.3133
     19 C          -0.6856    0.0350   -0.8117 C.ar    1  UNL1        0.0465
     20 C           0.0566    0.2754   -1.9888 C.ar    1  UNL1       -0.0217
     21 C          -0.5791    0.7129   -3.1210 C.ar    1  UNL1        0.0293
     22 N          -1.9069    0.9059   -3.0873 N.ar    1  UNL1       -0.2624
     23 C          -2.6330    0.6843   -1.9807 C.ar    1  UNL1        0.0415
     24 C          -2.0375    0.2376   -0.7978 C.ar    1  UNL1        0.0758
     25 C          -2.8327   -0.0028    0.3848 C.2     1  UNL1        0.2474
     26 O          -2.3376   -0.4168    1.4523 O.2     1  UNL1       -0.2701
     27 N          -4.2561    0.2076    0.4516 N.am    1  UNL1       -0.3088
     28 C          -5.0085   -0.0496    1.6655 C.3     1  UNL1        0.0377
     29 C          -6.4691    0.2625    1.4265 C.3     1  UNL1        0.0679
     30 C          -6.6605    1.7195    1.0675 C.3     1  UNL1       -0.0375
     31 O          -7.2024    0.0206    2.5812 O.3     1  UNL1       -0.3905
     32 H          -0.7340   -2.5507   -0.3212 H       1  UNL1        0.0538
     33 H          -0.5477   -3.6941   -1.7391 H       1  UNL1        0.0538
     34 H           1.0745   -3.6767   -3.1349 H       1  UNL1        0.0278
     35 H           2.4083   -4.2281   -1.9844 H       1  UNL1        0.0278
     36 H           2.5456   -2.6707   -2.9091 H       1  UNL1        0.0278
     37 H           3.7548   -2.5639   -1.2803 H       1  UNL1        0.0836
     38 H           6.3007   -0.0935    0.5098 H       1  UNL1        0.0639
     39 H           7.4383    3.1892    2.9405 H       1  UNL1        0.0633
     40 H           5.0375    3.6806    3.3519 H       1  UNL1        0.0647
     41 H           1.8693    0.9943    1.4042 H       1  UNL1        0.0658
     42 H          -0.3196   -0.6006    1.2473 H       1  UNL1        0.1522
     43 H           1.1283    0.1228   -2.0052 H       1  UNL1        0.0651
     44 H          -0.0655    0.9160   -4.0582 H       1  UNL1        0.0830
     45 H          -3.6938    0.8449   -1.9755 H       1  UNL1        0.0838
     46 H          -4.7382    0.5462   -0.3799 H       1  UNL1        0.1491
     47 H          -4.9414   -1.1476    1.8586 H       1  UNL1        0.0487
     48 H          -4.5956    0.4879    2.5275 H       1  UNL1        0.0487
     49 H          -6.8153   -0.3679    0.5831 H       1  UNL1        0.0606
     50 H          -6.3310    1.9250    0.0281 H       1  UNL1        0.0255
     51 H          -6.0118    2.3699    1.7235 H       1  UNL1        0.0255
     52 H          -7.6823    2.0650    1.2167 H       1  UNL1        0.0255
     53 H          -8.1069   -0.3217    2.3916 H       1  UNL1        0.2098
@<TRIPOS>BOND
     1     1     2    2
     2     2     3    1
     3     2     4    1
     4     4     5   ar
     5     5     6   ar
     6     6     7   ar
     7     7     8    1
     8     8     9   ar
     9     9    10   ar
    10    10    11    1
    11    10    12   ar
    12    12    13   ar
    13    13    14   ar
    14    14    15    1
    15     7    16   ar
    16    16    17   ar
    17    17    18    1
    18    18    19    1
    19    19    20   ar
    20    20    21   ar
    21    21    22   ar
    22    22    23   ar
    23    23    24   ar
    24    24    25    1
    25    25    26    2
    26    25    27   am
    27    27    28    1
    28    28    29    1
    29    29    30    1
    30    29    31    1
    31    17     4   ar
    32    24    19   ar
    33    14     8   ar
    34     1    32    1
    35     1    33    1
    36     3    34    1
    37     3    35    1
    38     3    36    1
    39     5    37    1
    40     9    38    1
    41    12    39    1
    42    13    40    1
    43    16    41    1
    44    18    42    1
    45    20    43    1
    46    21    44    1
    47    23    45    1
    48    27    46    1
    49    28    47    1
    50    28    48    1
    51    29    49    1
    52    30    50    1
    53    30    51    1
    54    30    52    1
    55    31    53    1
