@<TRIPOS>MOLECULE
*****
 57 59 0 0 0
SMALL
GASTEIGER

@<TRIPOS>ATOM
      1 C           6.7595   -1.0287   -0.4322 C.3     1  UNL1       -0.0653
      2 C           5.6943   -2.1009   -0.4755 C.3     1  UNL1       -0.0559
      3 C           4.7154   -1.7877    0.6635 C.3     1  UNL1       -0.0533
      4 C           4.1647   -0.4208    0.3750 C.3     1  UNL1       -0.0523
      5 C           3.1723    0.0496    1.4172 C.3     1  UNL1       -0.0436
      6 C           2.7231    1.4384    0.9691 C.3     1  UNL1        0.0011
      7 S           1.9552    1.2817   -0.6610 S.3     1  UNL1       -0.0858
      8 C           0.4270    0.3413   -0.5602 C.ar    1  UNL1        0.1962
      9 N           0.2866   -0.9881   -0.6789 N.ar    1  UNL1       -0.2003
     10 C          -1.0168   -1.2795   -0.5401 C.ar    1  UNL1        0.1829
     11 C          -1.6455   -2.6174   -0.5970 C.ar    1  UNL1        0.0209
     12 C          -2.8723   -2.8285   -0.0038 C.ar    1  UNL1       -0.0507
     13 C          -3.4774   -4.0696   -0.0449 C.ar    1  UNL1       -0.0582
     14 C          -2.8721   -5.1385   -0.6818 C.ar    1  UNL1       -0.0504
     15 C          -3.5187   -6.4848   -0.7320 C.3     1  UNL1       -0.0397
     16 C          -1.6459   -4.9013   -1.2669 C.ar    1  UNL1       -0.0582
     17 C          -1.0247   -3.6655   -1.2361 C.ar    1  UNL1       -0.0507
     18 N          -1.6392   -0.1060   -0.3385 N.ar    1  UNL1       -0.1403
     19 N          -0.7952    0.9100   -0.3432 N.ar    1  UNL1       -0.1571
     20 C          -1.0658    2.2844   -0.1662 C.2     1  UNL1        0.3437
     21 O          -0.1238    3.1028   -0.2034 O.2     1  UNL1       -0.2471
     22 N          -2.3776    2.7562    0.0522 N.am    1  UNL1       -0.2549
     23 C          -3.5196    1.8546    0.1030 C.3     1  UNL1        0.0100
     24 C          -2.6516    4.1594    0.2345 C.ar    1  UNL1        0.0377
     25 C          -2.9400    4.9260   -0.8804 C.ar    1  UNL1       -0.0402
     26 C          -3.1997    6.2755   -0.7142 C.ar    1  UNL1       -0.0600
     27 C          -3.1825    6.8878    0.5205 C.ar    1  UNL1       -0.0616
     28 C          -2.8897    6.0834    1.6057 C.ar    1  UNL1       -0.0600
     29 C          -2.6250    4.7337    1.4820 C.ar    1  UNL1       -0.0402
     30 H           6.4849   -0.1517   -1.0737 H       1  UNL1        0.0230
     31 H           7.7562   -1.4294   -0.7634 H       1  UNL1        0.0230
     32 H           6.9262   -0.6254    0.5878 H       1  UNL1        0.0230
     33 H           5.1732   -2.0527   -1.4468 H       1  UNL1        0.0263
     34 H           6.1230   -3.1155   -0.3387 H       1  UNL1        0.0263
     35 H           3.9374   -2.5542    0.7357 H       1  UNL1        0.0265
     36 H           5.2873   -1.8064    1.6259 H       1  UNL1        0.0265
     37 H           3.6534   -0.4585   -0.6056 H       1  UNL1        0.0266
     38 H           5.0081    0.3013    0.3753 H       1  UNL1        0.0266
     39 H           2.3129   -0.6228    1.5207 H       1  UNL1        0.0273
     40 H           3.6619    0.1098    2.4122 H       1  UNL1        0.0273
     41 H           3.6494    2.0342    0.8372 H       1  UNL1        0.0381
     42 H           2.0283    1.8750    1.7171 H       1  UNL1        0.0381
     43 H          -3.3587   -2.0035    0.4980 H       1  UNL1        0.0625
     44 H          -4.4361   -4.2409    0.4165 H       1  UNL1        0.0620
     45 H          -4.5723   -6.3573   -0.3608 H       1  UNL1        0.0278
     46 H          -3.6286   -6.8501   -1.7806 H       1  UNL1        0.0278
     47 H          -3.0407   -7.2097   -0.0640 H       1  UNL1        0.0278
     48 H          -1.1880   -5.7668   -1.7653 H       1  UNL1        0.0620
     49 H          -0.0624   -3.5474   -1.7151 H       1  UNL1        0.0625
     50 H          -4.4706    2.4164    0.0643 H       1  UNL1        0.0433
     51 H          -3.5146    1.2543   -0.8552 H       1  UNL1        0.0433
     52 H          -3.5092    1.2098    0.9994 H       1  UNL1        0.0433
     53 H          -2.9601    4.4697   -1.8596 H       1  UNL1        0.0636
     54 H          -3.4211    6.8440   -1.6046 H       1  UNL1        0.0618
     55 H          -3.3907    7.9592    0.6333 H       1  UNL1        0.0618
     56 H          -2.8699    6.5452    2.5927 H       1  UNL1        0.0618
     57 H          -2.3939    4.1059    2.3511 H       1  UNL1        0.0636
@<TRIPOS>BOND
     1     1     2    1
     2     2     3    1
     3     3     4    1
     4     4     5    1
     5     5     6    1
     6     6     7    1
     7     7     8    1
     8     8     9   ar
     9     9    10   ar
    10    10    11    1
    11    11    12   ar
    12    12    13   ar
    13    13    14   ar
    14    14    15    1
    15    14    16   ar
    16    16    17   ar
    17    10    18   ar
    18    18    19   ar
    19    19    20   am
    20    20    21    2
    21    20    22   am
    22    22    23    1
    23    22    24    1
    24    24    25   ar
    25    25    26   ar
    26    26    27   ar
    27    27    28   ar
    28    28    29   ar
    29    19     8   ar
    30    29    24   ar
    31    17    11   ar
    32     1    30    1
    33     1    31    1
    34     1    32    1
    35     2    33    1
    36     2    34    1
    37     3    35    1
    38     3    36    1
    39     4    37    1
    40     4    38    1
    41     5    39    1
    42     5    40    1
    43     6    41    1
    44     6    42    1
    45    12    43    1
    46    13    44    1
    47    15    45    1
    48    15    46    1
    49    15    47    1
    50    16    48    1
    51    17    49    1
    52    23    50    1
    53    23    51    1
    54    23    52    1
    55    25    53    1
    56    26    54    1
    57    27    55    1
    58    28    56    1
    59    29    57    1
