@<TRIPOS>MOLECULE
*****
 57 60 0 0 0
SMALL
GASTEIGER

@<TRIPOS>ATOM
      1 C           0.5852   -0.5019    0.6362 C.3     1  UNL1       -0.0263
      2 C           1.5255   -0.7887    1.7432 C.3     1  UNL1       -0.0436
      3 C           2.7101   -1.2690    0.9167 C.3     1  UNL1       -0.0071
      4 C           4.0133   -1.1673    1.6404 C.3     1  UNL1       -0.0594
      5 C           2.6510   -0.4574   -0.3555 C.3     1  UNL1        0.1340
      6 O           2.4737   -1.3827   -1.4119 O.3     1  UNL1       -0.3802
      7 C           3.8800    0.2689   -0.6572 C.2     1  UNL1        0.1904
      8 O           4.4153    1.1479   -0.0068 O.2     1  UNL1       -0.2919
      9 C           4.7550    0.0698   -1.8672 C.3     1  UNL1        0.1052
     10 O           4.2281   -0.9343   -2.6968 O.3     1  UNL1       -0.3874
     11 C           1.4038    0.3752   -0.2840 C.3     1  UNL1        0.0096
     12 C           1.6526    1.7444    0.2887 C.3     1  UNL1       -0.0562
     13 C           0.6501    0.4385   -1.5684 C.3     1  UNL1       -0.0151
     14 C          -0.7877    0.8038   -1.4320 C.3     1  UNL1        0.0910
     15 O          -1.0063    2.1520   -1.2555 O.3     1  UNL1       -0.3886
     16 C          -1.5072    0.0074   -0.3748 C.3     1  UNL1        0.1526
     17 F          -1.3826   -1.3145   -0.7594 F       1  UNL1       -0.2377
     18 C          -0.7056    0.1430    0.9280 C.3     1  UNL1        0.0003
     19 C          -1.4291   -0.4803    2.1023 C.3     1  UNL1       -0.0432
     20 C          -2.7814    0.1939    2.1765 C.3     1  UNL1       -0.0301
     21 C          -3.5562   -0.2468    0.9948 C.2     1  UNL1       -0.0532
     22 C          -4.6008   -1.0530    1.0929 C.2     1  UNL1       -0.0148
     23 C          -5.2341   -1.3778   -0.1801 C.2     1  UNL1        0.1787
     24 O          -6.2314   -2.1357   -0.1796 O.2     1  UNL1       -0.2879
     25 C          -4.7544   -0.8568   -1.4539 C.2     1  UNL1       -0.0180
     26 C          -3.7060   -0.0669   -1.3816 C.2     1  UNL1       -0.0674
     27 C          -2.9362    0.3764   -0.1938 C.3     1  UNL1        0.0443
     28 C          -3.1739    1.8650   -0.0887 C.3     1  UNL1       -0.0493
     29 H           0.3929   -1.4560    0.1029 H       1  UNL1        0.0311
     30 H           1.7985    0.0305    2.4008 H       1  UNL1        0.0272
     31 H           1.0846   -1.6500    2.3264 H       1  UNL1        0.0272
     32 H           2.5198   -2.3617    0.7401 H       1  UNL1        0.0330
     33 H           4.8138   -1.2992    0.9117 H       1  UNL1        0.0233
     34 H           4.0835   -2.0411    2.3320 H       1  UNL1        0.0233
     35 H           4.1189   -0.2806    2.2942 H       1  UNL1        0.0233
     36 H           2.9993   -2.1787   -1.1503 H       1  UNL1        0.2108
     37 H           4.8235    1.0330   -2.4326 H       1  UNL1        0.0637
     38 H           5.7838   -0.2214   -1.6055 H       1  UNL1        0.0637
     39 H           3.7868   -0.4777   -3.4640 H       1  UNL1        0.2100
     40 H           2.4132    2.2963   -0.3007 H       1  UNL1        0.0236
     41 H           0.7522    2.3883    0.2583 H       1  UNL1        0.0236
     42 H           1.9975    1.7453    1.3215 H       1  UNL1        0.0236
     43 H           0.7106   -0.5636   -2.0691 H       1  UNL1        0.0297
     44 H           1.1220    1.2074   -2.2291 H       1  UNL1        0.0297
     45 H          -1.2612    0.4715   -2.4071 H       1  UNL1        0.0626
     46 H          -0.8336    2.6981   -2.0482 H       1  UNL1        0.2099
     47 H          -0.6541    1.2270    1.1496 H       1  UNL1        0.0336
     48 H          -0.8442   -0.2222    2.9912 H       1  UNL1        0.0272
     49 H          -1.5076   -1.5670    1.9309 H       1  UNL1        0.0272
     50 H          -2.6258    1.2799    2.2197 H       1  UNL1        0.0310
     51 H          -3.2388   -0.1634    3.1248 H       1  UNL1        0.0310
     52 H          -4.9199   -1.4142    2.0586 H       1  UNL1        0.0656
     53 H          -5.2110   -1.0884   -2.4052 H       1  UNL1        0.0653
     54 H          -3.3197    0.3396   -2.3133 H       1  UNL1        0.0583
     55 H          -4.1616    2.0003    0.4266 H       1  UNL1        0.0242
     56 H          -2.4481    2.3753    0.5416 H       1  UNL1        0.0242
     57 H          -3.3260    2.3399   -1.0781 H       1  UNL1        0.0242
@<TRIPOS>BOND
     1     1     2    1
     2     2     3    1
     3     3     4    1
     4     3     5    1
     5     5     6    1
     6     5     7    1
     7     7     8    2
     8     7     9    1
     9     9    10    1
    10     5    11    1
    11    11    12    1
    12    11    13    1
    13    13    14    1
    14    14    15    1
    15    14    16    1
    16    16    17    1
    17    16    18    1
    18    18    19    1
    19    19    20    1
    20    20    21    1
    21    21    22    2
    22    22    23    1
    23    23    24    2
    24    23    25    1
    25    25    26    2
    26    26    27    1
    27    27    28    1
    28    11     1    1
    29    27    16    1
    30    18     1    1
    31    27    21    1
    32     1    29    1
    33     2    30    1
    34     2    31    1
    35     3    32    1
    36     4    33    1
    37     4    34    1
    38     4    35    1
    39     6    36    1
    40     9    37    1
    41     9    38    1
    42    10    39    1
    43    12    40    1
    44    12    41    1
    45    12    42    1
    46    13    43    1
    47    13    44    1
    48    14    45    1
    49    15    46    1
    50    18    47    1
    51    19    48    1
    52    19    49    1
    53    20    50    1
    54    20    51    1
    55    22    52    1
    56    25    53    1
    57    26    54    1
    58    28    55    1
    59    28    56    1
    60    28    57    1
