@<TRIPOS>MOLECULE
*****
 41 44 0 0 0
SMALL
GASTEIGER

@<TRIPOS>ATOM
      1 C           4.6340   -1.5540    0.0548 C.3     1  UNL1       -0.0232
      2 C           3.8796   -0.3359    0.5325 C.3     1  UNL1        0.1842
      3 O           3.3404   -0.7198    1.8037 O.3     1  UNL1       -0.3757
      4 C           2.7731    0.0598   -0.3473 C.ar    1  UNL1        0.0109
      5 C           2.9608    0.8448   -1.4368 C.ar    1  UNL1        0.0338
      6 N           1.8803    1.1744   -2.1974 N.ar    1  UNL1       -0.2622
      7 C           0.6389    0.7551   -1.9145 C.ar    1  UNL1        0.0368
      8 C           0.3762   -0.0453   -0.8228 C.ar    1  UNL1        0.0206
      9 C          -0.9480   -0.5332   -0.4624 C.ar    1  UNL1        0.0947
     10 N          -1.3172   -1.7811   -0.1179 N.ar    1  UNL1       -0.2275
     11 C          -2.6401   -1.8495    0.1438 C.ar    1  UNL1        0.1386
     12 C          -3.4372   -2.9312    0.5309 C.ar    1  UNL1       -0.0161
     13 C          -4.7706   -2.6885    0.7258 C.ar    1  UNL1       -0.0215
     14 C          -5.2802   -1.4227    0.5415 C.ar    1  UNL1        0.1399
     15 F          -6.6084   -1.1554    0.7300 F       1  UNL1       -0.2040
     16 C          -4.4424   -0.4038    0.1608 C.ar    1  UNL1        0.0467
     17 N          -3.1144   -0.6143   -0.0402 N.ar    1  UNL1       -0.3000
     18 C          -2.0908    0.2156   -0.4138 C.ar    1  UNL1        0.0542
     19 C          -2.3425    1.6447   -0.6569 C.3     1  UNL1        0.0019
     20 C          -2.4803    2.4335    0.6824 C.3     1  UNL1       -0.0442
     21 C          -1.4221    2.7254   -0.3368 C.3     1  UNL1       -0.0442
     22 C           1.4601   -0.3819   -0.0508 C.ar    1  UNL1       -0.0434
     23 C           4.8065    0.8131    0.7914 C.3     1  UNL1        0.4222
     24 F           5.5273    1.1882   -0.3026 F       1  UNL1       -0.1673
     25 F           4.0885    1.9515    1.1886 F       1  UNL1       -0.1673
     26 F           5.6601    0.5331    1.8485 F       1  UNL1       -0.1673
     27 H           3.9577   -2.2462   -0.5149 H       1  UNL1        0.0263
     28 H           5.0095   -2.1548    0.9130 H       1  UNL1        0.0263
     29 H           5.4782   -1.3232   -0.5961 H       1  UNL1        0.0263
     30 H           3.2795    0.1091    2.3420 H       1  UNL1        0.2110
     31 H           3.9237    1.2225   -1.7447 H       1  UNL1        0.0833
     32 H          -0.1642    1.0582   -2.5641 H       1  UNL1        0.0836
     33 H          -3.0067   -3.9114    0.6669 H       1  UNL1        0.0655
     34 H          -5.4602   -3.4690    1.0264 H       1  UNL1        0.0648
     35 H          -4.8582    0.5958    0.0177 H       1  UNL1        0.0842
     36 H          -3.1767    1.8411   -1.3752 H       1  UNL1        0.0364
     37 H          -2.1297    1.9620    1.5987 H       1  UNL1        0.0272
     38 H          -3.3610    3.0691    0.7905 H       1  UNL1        0.0272
     39 H          -1.6087    3.6964   -0.8841 H       1  UNL1        0.0272
     40 H          -0.3817    2.6352   -0.0346 H       1  UNL1        0.0272
     41 H           1.3666   -1.0074    0.8316 H       1  UNL1        0.0629
@<TRIPOS>BOND
     1     1     2    1
     2     2     3    1
     3     2     4    1
     4     4     5   ar
     5     5     6   ar
     6     6     7   ar
     7     7     8   ar
     8     8     9    1
     9     9    10   ar
    10    10    11   ar
    11    11    12   ar
    12    12    13   ar
    13    13    14   ar
    14    14    15    1
    15    14    16   ar
    16    16    17   ar
    17    17    18   ar
    18    18    19    1
    19    19    20    1
    20    20    21    1
    21     8    22   ar
    22     2    23    1
    23    23    24    1
    24    23    25    1
    25    23    26    1
    26    22     4   ar
    27    18     9   ar
    28    21    19    1
    29    17    11   ar
    30     1    27    1
    31     1    28    1
    32     1    29    1
    33     3    30    1
    34     5    31    1
    35     7    32    1
    36    12    33    1
    37    13    34    1
    38    16    35    1
    39    19    36    1
    40    20    37    1
    41    20    38    1
    42    21    39    1
    43    21    40    1
    44    22    41    1
