
     RDKit          3D

 76 80  0  0  0  0  0  0  0  0999 V2000
   -4.3679    3.1576   -5.1387 C   0  0  0  0  0  0  0  0  0  0  0  0
   -4.4787    2.4519   -3.8281 C   0  0  0  0  0  0  0  0  0  0  0  0
   -4.7077    3.1625   -2.6705 C   0  0  0  0  0  0  0  0  0  0  0  0
   -4.8117    2.5172   -1.4538 C   0  0  0  0  0  0  0  0  0  0  0  0
   -4.6943    1.1475   -1.3308 C   0  0  0  0  0  0  0  0  0  0  0  0
   -4.8013    0.4761   -0.0778 N   0  0  0  0  0  0  0  0  0  0  0  0
   -5.6820   -0.4386    0.2940 N   0  0  0  0  0  0  0  0  0  0  0  0
   -5.4786   -0.8504    1.5530 C   0  0  0  0  0  0  0  0  0  0  0  0
   -6.2773   -1.8779    2.3068 C   0  0  0  0  0  0  0  0  0  0  0  0
   -5.5813   -3.2071    2.0340 C   0  0  0  0  0  0  0  0  0  0  0  0
   -7.6401   -1.9321    1.6594 C   0  0  0  0  0  0  0  0  0  0  0  0
   -6.3151   -1.5730    3.7655 C   0  0  0  0  0  0  0  0  0  0  0  0
   -4.3884   -0.1475    2.0194 C   0  0  0  0  0  0  0  0  0  0  0  0
   -4.0038    0.6627    0.9705 C   0  0  0  0  0  0  0  0  0  0  0  0
   -2.8932    1.5512    1.0695 N   0  0  0  0  0  0  0  0  0  0  0  0
   -1.5798    1.1407    0.7151 C   0  0  0  0  0  0  0  0  0  0  0  0
   -1.4623   -0.0572    0.3045 O   0  0  0  0  0  0  0  0  0  0  0  0
   -0.4473    1.9663    0.7948 N   0  0  0  0  0  0  0  0  0  0  0  0
    0.8640    1.5478    0.4372 C   0  0  0  0  0  0  0  0  0  0  0  0
    1.3716    1.6972   -0.8359 C   0  0  0  0  0  0  0  0  0  0  0  0
    2.6411    1.2914   -1.1830 C   0  0  0  0  0  0  0  0  0  0  0  0
    3.4687    0.7096   -0.2545 C   0  0  0  0  0  0  0  0  0  0  0  0
    4.7605    0.2850   -0.5665 O   0  0  0  0  0  0  0  0  0  0  0  0
    5.3291    0.4111   -1.8280 C   0  0  0  0  0  0  0  0  0  0  0  0
    6.7116   -0.1238   -1.8951 C   0  0  0  0  0  0  0  0  0  0  0  0
    6.8231   -1.5030   -1.6216 N   0  0  0  0  0  0  0  0  0  0  0  0
    8.2098   -1.9761   -1.7427 C   0  0  0  0  0  0  0  0  0  0  0  0
    8.9967   -1.5717   -0.5241 C   0  0  0  0  0  0  0  0  0  0  0  0
    8.4634   -2.2330    0.5785 O   0  0  0  0  0  0  0  0  0  0  0  0
    7.1640   -1.7540    0.7901 C   0  0  0  0  0  0  0  0  0  0  0  0
    6.2885   -2.0302   -0.4212 C   0  0  0  0  0  0  0  0  0  0  0  0
    2.9920    0.5454    1.0278 C   0  0  0  0  0  0  0  0  0  0  0  0
    3.8171   -0.0371    1.9667 C   0  0  0  0  0  0  0  0  0  0  0  0
    3.3891   -0.2216    3.2575 C   0  0  0  0  0  0  0  0  0  0  0  0
    2.1147    0.1991    3.5581 C   0  0  0  0  0  0  0  0  0  0  0  0
    1.2619    0.7842    2.6499 C   0  0  0  0  0  0  0  0  0  0  0  0
    1.6990    0.9627    1.3666 C   0  0  0  0  0  0  0  0  0  0  0  0
   -4.4647    0.4442   -2.4977 C   0  0  0  0  0  0  0  0  0  0  0  0
   -4.3595    1.0830   -3.7179 C   0  0  0  0  0  0  0  0  0  0  0  0
   -5.3959    3.1633   -5.6067 H   0  0  0  0  0  0  0  0  0  0  0  0
   -3.7474    2.5278   -5.8058 H   0  0  0  0  0  0  0  0  0  0  0  0
   -3.9943    4.1722   -5.0073 H   0  0  0  0  0  0  0  0  0  0  0  0
   -4.8037    4.2482   -2.7460 H   0  0  0  0  0  0  0  0  0  0  0  0
   -4.9918    3.0808   -0.5448 H   0  0  0  0  0  0  0  0  0  0  0  0
   -6.2944   -4.0417    2.1428 H   0  0  0  0  0  0  0  0  0  0  0  0
   -5.1721   -3.2638    1.0139 H   0  0  0  0  0  0  0  0  0  0  0  0
   -4.7350   -3.2834    2.7497 H   0  0  0  0  0  0  0  0  0  0  0  0
   -8.4017   -1.4632    2.2824 H   0  0  0  0  0  0  0  0  0  0  0  0
   -7.6600   -1.4504    0.6571 H   0  0  0  0  0  0  0  0  0  0  0  0
   -7.9351   -3.0059    1.4945 H   0  0  0  0  0  0  0  0  0  0  0  0
   -5.5661   -2.2338    4.2900 H   0  0  0  0  0  0  0  0  0  0  0  0
   -7.3089   -1.9207    4.1589 H   0  0  0  0  0  0  0  0  0  0  0  0
   -6.1681   -0.5248    4.0212 H   0  0  0  0  0  0  0  0  0  0  0  0
   -3.9300   -0.2127    2.9929 H   0  0  0  0  0  0  0  0  0  0  0  0
   -3.0306    2.5304    1.4114 H   0  0  0  0  0  0  0  0  0  0  0  0
   -0.5612    2.9497    1.1353 H   0  0  0  0  0  0  0  0  0  0  0  0
    0.7052    2.1581   -1.5605 H   0  0  0  0  0  0  0  0  0  0  0  0
    3.0076    1.4225   -2.1856 H   0  0  0  0  0  0  0  0  0  0  0  0
    4.6415   -0.1313   -2.5458 H   0  0  0  0  0  0  0  0  0  0  0  0
    5.3146    1.4601   -2.2111 H   0  0  0  0  0  0  0  0  0  0  0  0
    7.0501    0.0246   -2.9731 H   0  0  0  0  0  0  0  0  0  0  0  0
    7.4406    0.5082   -1.3225 H   0  0  0  0  0  0  0  0  0  0  0  0
    8.1754   -3.0616   -1.8643 H   0  0  0  0  0  0  0  0  0  0  0  0
    8.6594   -1.4937   -2.6157 H   0  0  0  0  0  0  0  0  0  0  0  0
   10.0553   -1.8683   -0.6903 H   0  0  0  0  0  0  0  0  0  0  0  0
    8.9427   -0.4758   -0.3853 H   0  0  0  0  0  0  0  0  0  0  0  0
    7.1280   -0.7019    1.0877 H   0  0  0  0  0  0  0  0  0  0  0  0
    6.7523   -2.3734    1.6228 H   0  0  0  0  0  0  0  0  0  0  0  0
    5.2610   -1.8290   -0.1702 H   0  0  0  0  0  0  0  0  0  0  0  0
    6.3423   -3.1693   -0.5331 H   0  0  0  0  0  0  0  0  0  0  0  0
    4.8051   -0.3490    1.6845 H   0  0  0  0  0  0  0  0  0  0  0  0
    4.0322   -0.6850    4.0208 H   0  0  0  0  0  0  0  0  0  0  0  0
    1.7429    0.0665    4.5811 H   0  0  0  0  0  0  0  0  0  0  0  0
    0.2581    1.1045    2.9271 H   0  0  0  0  0  0  0  0  0  0  0  0
   -4.3683   -0.6477   -2.4174 H   0  0  0  0  0  0  0  0  0  0  0  0
   -4.1806    0.5248   -4.6194 H   0  0  0  0  0  0  0  0  0  0  0  0
  1  2  1  0
  2  3  2  0
  3  4  1  0
  4  5  2  0
  5  6  1  0
  6  7  1  0
  7  8  2  0
  8  9  1  0
  9 10  1  0
  9 11  1  0
  9 12  1  0
  8 13  1  0
 13 14  2  0
 14 15  1  0
 15 16  1  0
 16 17  2  0
 16 18  1  0
 18 19  1  0
 19 20  2  0
 20 21  1  0
 21 22  2  0
 22 23  1  0
 23 24  1  0
 24 25  1  0
 25 26  1  0
 26 27  1  0
 27 28  1  0
 28 29  1  0
 29 30  1  0
 30 31  1  0
 22 32  1  0
 32 33  2  0
 33 34  1  0
 34 35  2  0
 35 36  1  0
 36 37  2  0
  5 38  1  0
 38 39  2  0
 39  2  1  0
 14  6  1  0
 37 19  1  0
 31 26  1  0
 37 32  1  0
  1 40  1  0
  1 41  1  0
  1 42  1  0
  3 43  1  0
  4 44  1  0
 10 45  1  0
 10 46  1  0
 10 47  1  0
 11 48  1  0
 11 49  1  0
 11 50  1  0
 12 51  1  0
 12 52  1  0
 12 53  1  0
 13 54  1  0
 15 55  1  0
 18 56  1  0
 20 57  1  0
 21 58  1  0
 24 59  1  0
 24 60  1  0
 25 61  1  0
 25 62  1  0
 27 63  1  0
 27 64  1  0
 28 65  1  0
 28 66  1  0
 30 67  1  0
 30 68  1  0
 31 69  1  0
 31 70  1  0
 33 71  1  0
 34 72  1  0
 35 73  1  0
 36 74  1  0
 38 75  1  0
 39 76  1  0
M  END
$$$$
