@<TRIPOS>MOLECULE
*****
 76 80 0 0 0
SMALL
GASTEIGER

@<TRIPOS>ATOM
      1 C          -4.3679    3.1576   -5.1387 C.3     1  UNL1       -0.0397
      2 C          -4.4787    2.4519   -3.8281 C.ar    1  UNL1       -0.0503
      3 C          -4.7077    3.1625   -2.6705 C.ar    1  UNL1       -0.0568
      4 C          -4.8117    2.5172   -1.4538 C.ar    1  UNL1       -0.0359
      5 C          -4.6943    1.1475   -1.3308 C.ar    1  UNL1        0.0674
      6 N          -4.8013    0.4761   -0.0778 N.ar    1  UNL1       -0.2181
      7 N          -5.6820   -0.4386    0.2940 N.ar    1  UNL1       -0.1691
      8 C          -5.4786   -0.8504    1.5530 C.ar    1  UNL1        0.0706
      9 C          -6.2773   -1.8779    2.3068 C.3     1  UNL1        0.0063
     10 C          -5.5813   -3.2071    2.0340 C.3     1  UNL1       -0.0546
     11 C          -7.6401   -1.9321    1.6594 C.3     1  UNL1       -0.0546
     12 C          -6.3151   -1.5730    3.7655 C.3     1  UNL1       -0.0546
     13 C          -4.3884   -0.1475    2.0194 C.ar    1  UNL1        0.0021
     14 C          -4.0038    0.6627    0.9705 C.ar    1  UNL1        0.1299
     15 N          -2.8932    1.5512    1.0695 N.am    1  UNL1       -0.2538
     16 C          -1.5798    1.1407    0.7151 C.2     1  UNL1        0.3092
     17 O          -1.4623   -0.0572    0.3045 O.2     1  UNL1       -0.2521
     18 N          -0.4473    1.9663    0.7948 N.am    1  UNL1       -0.2686
     19 C           0.8640    1.5478    0.4372 C.ar    1  UNL1        0.0427
     20 C           1.3716    1.6972   -0.8359 C.ar    1  UNL1       -0.0364
     21 C           2.6411    1.2914   -1.1830 C.ar    1  UNL1       -0.0176
     22 C           3.4687    0.7096   -0.2545 C.ar    1  UNL1        0.1283
     23 O           4.7605    0.2850   -0.5665 O.3     1  UNL1       -0.4901
     24 C           5.3291    0.4111   -1.8280 C.3     1  UNL1        0.1023
     25 C           6.7116   -0.1238   -1.8951 C.3     1  UNL1        0.0333
     26 N           6.8231   -1.5030   -1.6216 N.3     1  UNL1       -0.2948
     27 C           8.2098   -1.9761   -1.7427 C.3     1  UNL1        0.0225
     28 C           8.9967   -1.5717   -0.5241 C.3     1  UNL1        0.0604
     29 O           8.4634   -2.2330    0.5785 O.3     1  UNL1       -0.3772
     30 C           7.1640   -1.7540    0.7901 C.3     1  UNL1        0.0604
     31 C           6.2885   -2.0302   -0.4212 C.3     1  UNL1        0.0225
     32 C           2.9920    0.5454    1.0278 C.ar    1  UNL1        0.0256
     33 C           3.8171   -0.0371    1.9667 C.ar    1  UNL1       -0.0505
     34 C           3.3891   -0.2216    3.2575 C.ar    1  UNL1       -0.0611
     35 C           2.1147    0.1991    3.5581 C.ar    1  UNL1       -0.0611
     36 C           1.2619    0.7842    2.6499 C.ar    1  UNL1       -0.0521
     37 C           1.6990    0.9627    1.3666 C.ar    1  UNL1        0.0069
     38 C          -4.4647    0.4442   -2.4977 C.ar    1  UNL1       -0.0359
     39 C          -4.3595    1.0830   -3.7179 C.ar    1  UNL1       -0.0568
     40 H          -5.3959    3.1633   -5.6067 H       1  UNL1        0.0278
     41 H          -3.7474    2.5278   -5.8058 H       1  UNL1        0.0278
     42 H          -3.9943    4.1722   -5.0073 H       1  UNL1        0.0278
     43 H          -4.8037    4.2482   -2.7460 H       1  UNL1        0.0621
     44 H          -4.9918    3.0808   -0.5448 H       1  UNL1        0.0639
     45 H          -6.2944   -4.0417    2.1428 H       1  UNL1        0.0239
     46 H          -5.1721   -3.2638    1.0139 H       1  UNL1        0.0239
     47 H          -4.7350   -3.2834    2.7497 H       1  UNL1        0.0239
     48 H          -8.4017   -1.4632    2.2824 H       1  UNL1        0.0239
     49 H          -7.6600   -1.4504    0.6571 H       1  UNL1        0.0239
     50 H          -7.9351   -3.0059    1.4945 H       1  UNL1        0.0239
     51 H          -5.5661   -2.2338    4.2900 H       1  UNL1        0.0239
     52 H          -7.3089   -1.9207    4.1589 H       1  UNL1        0.0239
     53 H          -6.1681   -0.5248    4.0212 H       1  UNL1        0.0239
     54 H          -3.9300   -0.2127    2.9929 H       1  UNL1        0.0671
     55 H          -3.0306    2.5304    1.4114 H       1  UNL1        0.1578
     56 H          -0.5612    2.9497    1.1353 H       1  UNL1        0.1564
     57 H           0.7052    2.1581   -1.5605 H       1  UNL1        0.0637
     58 H           3.0076    1.4225   -2.1856 H       1  UNL1        0.0655
     59 H           4.6415   -0.1313   -2.5458 H       1  UNL1        0.0709
     60 H           5.3146    1.4601   -2.2111 H       1  UNL1        0.0709
     61 H           7.0501    0.0246   -2.9731 H       1  UNL1        0.0460
     62 H           7.4406    0.5082   -1.3225 H       1  UNL1        0.0460
     63 H           8.1754   -3.0616   -1.8643 H       1  UNL1        0.0449
     64 H           8.6594   -1.4937   -2.6157 H       1  UNL1        0.0449
     65 H          10.0553   -1.8683   -0.6903 H       1  UNL1        0.0572
     66 H           8.9427   -0.4758   -0.3853 H       1  UNL1        0.0572
     67 H           7.1280   -0.7019    1.0877 H       1  UNL1        0.0572
     68 H           6.7523   -2.3734    1.6228 H       1  UNL1        0.0572
     69 H           5.2610   -1.8290   -0.1702 H       1  UNL1        0.0449
     70 H           6.3423   -3.1693   -0.5331 H       1  UNL1        0.0449
     71 H           4.8051   -0.3490    1.6845 H       1  UNL1        0.0625
     72 H           4.0322   -0.6850    4.0208 H       1  UNL1        0.0618
     73 H           1.7429    0.0665    4.5811 H       1  UNL1        0.0618
     74 H           0.2581    1.1045    2.9271 H       1  UNL1        0.0624
     75 H          -4.3683   -0.6477   -2.4174 H       1  UNL1        0.0639
     76 H          -4.1806    0.5248   -4.6194 H       1  UNL1        0.0621
@<TRIPOS>BOND
     1     1     2    1
     2     2     3   ar
     3     3     4   ar
     4     4     5   ar
     5     5     6    1
     6     6     7   ar
     7     7     8   ar
     8     8     9    1
     9     9    10    1
    10     9    11    1
    11     9    12    1
    12     8    13   ar
    13    13    14   ar
    14    14    15    1
    15    15    16   am
    16    16    17    2
    17    16    18   am
    18    18    19    1
    19    19    20   ar
    20    20    21   ar
    21    21    22   ar
    22    22    23    1
    23    23    24    1
    24    24    25    1
    25    25    26    1
    26    26    27    1
    27    27    28    1
    28    28    29    1
    29    29    30    1
    30    30    31    1
    31    22    32   ar
    32    32    33   ar
    33    33    34   ar
    34    34    35   ar
    35    35    36   ar
    36    36    37   ar
    37     5    38   ar
    38    38    39   ar
    39    39     2   ar
    40    14     6   ar
    41    37    19   ar
    42    31    26    1
    43    37    32   ar
    44     1    40    1
    45     1    41    1
    46     1    42    1
    47     3    43    1
    48     4    44    1
    49    10    45    1
    50    10    46    1
    51    10    47    1
    52    11    48    1
    53    11    49    1
    54    11    50    1
    55    12    51    1
    56    12    52    1
    57    12    53    1
    58    13    54    1
    59    15    55    1
    60    18    56    1
    61    20    57    1
    62    21    58    1
    63    24    59    1
    64    24    60    1
    65    25    61    1
    66    25    62    1
    67    27    63    1
    68    27    64    1
    69    28    65    1
    70    28    66    1
    71    30    67    1
    72    30    68    1
    73    31    69    1
    74    31    70    1
    75    33    71    1
    76    34    72    1
    77    35    73    1
    78    36    74    1
    79    38    75    1
    80    39    76    1
