@<TRIPOS>MOLECULE
*****
 43 46 0 0 0
SMALL
GASTEIGER

@<TRIPOS>ATOM
      1 C           4.6110    0.2967    0.5999 C.3     1  UNL1       -0.0127
      2 N           3.1666    0.1806    0.5154 N.3     1  UNL1       -0.3047
      3 C           2.8604   -1.2421    0.4125 C.3     1  UNL1        0.0023
      4 C           1.5646   -1.4650   -0.3075 C.3     1  UNL1       -0.0180
      5 C           0.6137   -0.3124   -0.2754 C.2     1  UNL1       -0.0588
      6 C           1.3838    0.5871   -1.1612 C.3     1  UNL1       -0.0180
      7 C           2.7489    0.8739   -0.6824 C.3     1  UNL1        0.0023
      8 C          -0.6345   -0.0302    0.2066 C.2     1  UNL1       -0.0103
      9 C          -1.2220    1.3306    0.0012 C.ar    1  UNL1       -0.0102
     10 C          -0.2596    2.2463    0.3229 C.ar    1  UNL1       -0.0534
     11 C          -0.6813    3.5384    0.1205 C.ar    1  UNL1       -0.0611
     12 C          -1.9623    3.8246   -0.3601 C.ar    1  UNL1       -0.0612
     13 C          -2.8754    2.8089   -0.6574 C.ar    1  UNL1       -0.0540
     14 C          -2.5243    1.4889   -0.4806 C.ar    1  UNL1       -0.0173
     15 C          -3.5700    0.5060   -0.7987 C.2     1  UNL1       -0.0534
     16 C          -3.6395   -0.7686   -0.3651 C.2     1  UNL1       -0.0534
     17 C          -2.6897   -1.4632    0.5206 C.ar    1  UNL1       -0.0173
     18 C          -3.2130   -2.5574    1.1362 C.ar    1  UNL1       -0.0540
     19 C          -2.4073   -3.2806    2.0196 C.ar    1  UNL1       -0.0612
     20 C          -1.0803   -2.9260    2.3003 C.ar    1  UNL1       -0.0611
     21 C          -0.5242   -1.8390    1.7047 C.ar    1  UNL1       -0.0534
     22 C          -1.3562   -1.1675    0.8463 C.ar    1  UNL1       -0.0102
     23 H           5.0340   -0.5254   -0.0135 H       1  UNL1        0.0391
     24 H           4.9610    1.2768    0.1870 H       1  UNL1        0.0391
     25 H           4.9237    0.1484    1.6513 H       1  UNL1        0.0391
     26 H           2.7653   -1.6590    1.4324 H       1  UNL1        0.0429
     27 H           3.6863   -1.7772   -0.1003 H       1  UNL1        0.0429
     28 H           1.0877   -2.4012    0.0262 H       1  UNL1        0.0323
     29 H           1.8748   -1.7201   -1.3636 H       1  UNL1        0.0323
     30 H           1.5449    0.0559   -2.1846 H       1  UNL1        0.0323
     31 H           0.7976    1.4676   -1.5347 H       1  UNL1        0.0323
     32 H           3.5125    0.7491   -1.4799 H       1  UNL1        0.0429
     33 H           2.7836    1.9656   -0.4174 H       1  UNL1        0.0429
     34 H           0.6694    1.9095    0.7051 H       1  UNL1        0.0624
     35 H           0.0376    4.3249    0.3541 H       1  UNL1        0.0618
     36 H          -2.2675    4.8699   -0.5109 H       1  UNL1        0.0618
     37 H          -3.8704    3.0003   -1.0291 H       1  UNL1        0.0624
     38 H          -4.3355    0.8983   -1.4459 H       1  UNL1        0.0624
     39 H          -4.4792   -1.3548   -0.6935 H       1  UNL1        0.0624
     40 H          -4.2193   -2.8192    0.9186 H       1  UNL1        0.0624
     41 H          -2.8193   -4.1707    2.5248 H       1  UNL1        0.0618
     42 H          -0.4454   -3.4755    2.9813 H       1  UNL1        0.0618
     43 H           0.4488   -1.3931    1.8159 H       1  UNL1        0.0624
@<TRIPOS>BOND
     1     1     2    1
     2     2     3    1
     3     3     4    1
     4     4     5    1
     5     5     6    1
     6     6     7    1
     7     5     8    2
     8     8     9    1
     9     9    10   ar
    10    10    11   ar
    11    11    12   ar
    12    12    13   ar
    13    13    14   ar
    14    14    15    1
    15    15    16    2
    16    16    17    1
    17    17    18   ar
    18    18    19   ar
    19    19    20   ar
    20    20    21   ar
    21    21    22   ar
    22     7     2    1
    23    22     8    1
    24    14     9   ar
    25    22    17   ar
    26     1    23    1
    27     1    24    1
    28     1    25    1
    29     3    26    1
    30     3    27    1
    31     4    28    1
    32     4    29    1
    33     6    30    1
    34     6    31    1
    35     7    32    1
    36     7    33    1
    37    10    34    1
    38    11    35    1
    39    12    36    1
    40    13    37    1
    41    15    38    1
    42    16    39    1
    43    18    40    1
    44    19    41    1
    45    20    42    1
    46    21    43    1
