@<TRIPOS>MOLECULE
*****
 62 65 0 0 0
SMALL
GASTEIGER

@<TRIPOS>ATOM
      1 C          -6.3700   -4.6610    1.7899 C.3     1  UNL1        0.0788
      2 O          -5.0275   -4.2487    2.0159 O.3     1  UNL1       -0.4951
      3 C          -4.5669   -3.0570    1.4424 C.ar    1  UNL1        0.1201
      4 C          -5.4224   -2.2971    0.6643 C.ar    1  UNL1       -0.0192
      5 C          -4.9765   -1.1199    0.0930 C.ar    1  UNL1       -0.0460
      6 C          -3.6897   -0.6585    0.2676 C.ar    1  UNL1        0.0401
      7 C          -3.3074    0.6041   -0.2754 C.2     1  UNL1        0.2631
      8 O          -4.2528    1.4987   -0.1661 O.2     1  UNL1       -0.2667
      9 N          -2.0892    0.9949   -0.8894 N.ar    1  UNL1       -0.2801
     10 C          -1.0427    0.2970   -1.2845 C.ar    1  UNL1        0.0282
     11 C          -0.9236   -1.1802   -1.3263 C.3     1  UNL1       -0.0235
     12 C          -0.0115    1.1176   -1.7637 C.ar    1  UNL1       -0.0143
     13 C           1.3144    0.6904   -2.2758 C.3     1  UNL1       -0.0000
     14 C           2.2850    0.3389   -1.2475 C.ar    1  UNL1       -0.0395
     15 C           3.0822    1.3387   -0.7102 C.ar    1  UNL1       -0.0580
     16 C           4.0173    1.1197    0.2489 C.ar    1  UNL1       -0.0580
     17 C           4.2220   -0.1563    0.7495 C.ar    1  UNL1       -0.0199
     18 C           3.4504   -1.1690    0.2401 C.ar    1  UNL1        0.1220
     19 O           3.6300   -2.4503    0.7183 O.3     1  UNL1       -0.4779
     20 C           4.5305   -2.8604    1.6892 C.3     1  UNL1        0.1931
     21 C           4.3350   -2.2776    3.0534 C.3     1  UNL1       -0.0172
     22 C           5.9534   -2.7111    1.2636 C.2     1  UNL1        0.3456
     23 O           6.2578   -2.2807    0.1222 O.2     1  UNL1       -0.2468
     24 O           7.0026   -3.0432    2.1145 O.3     1  UNL1       -0.4781
     25 C           2.4928   -0.9247   -0.7473 C.ar    1  UNL1       -0.0164
     26 C          -0.5104    2.3940   -1.6348 C.ar    1  UNL1        0.0075
     27 C           0.0758    3.6144   -1.9509 C.ar    1  UNL1       -0.0102
     28 C          -0.6214    4.7683   -1.7278 C.ar    1  UNL1        0.1307
     29 O           0.0073    5.9624   -2.0590 O.3     1  UNL1       -0.4057
     30 C           0.8091    6.6702   -1.1284 C.3     1  UNL1        0.5752
     31 F           1.3254    7.8200   -1.6841 F       1  UNL1       -0.1328
     32 F           0.0420    6.9347   -0.0166 F       1  UNL1       -0.1328
     33 F           1.9009    5.9006   -0.7192 F       1  UNL1       -0.1328
     34 C          -1.8735    4.7281   -1.2037 C.ar    1  UNL1       -0.0176
     35 C          -2.4479    3.4901   -0.8915 C.ar    1  UNL1       -0.0337
     36 C          -1.7771    2.3128   -1.1020 C.ar    1  UNL1        0.0574
     37 C          -2.8489   -1.4126    1.0392 C.ar    1  UNL1       -0.0460
     38 C          -3.2796   -2.6119    1.6285 C.ar    1  UNL1       -0.0192
     39 H          -6.6704   -5.4723    2.4690 H       1  UNL1        0.0660
     40 H          -6.5590   -4.9843    0.7650 H       1  UNL1        0.0660
     41 H          -7.0701   -3.7955    1.9914 H       1  UNL1        0.0660
     42 H          -6.4455   -2.5845    0.4769 H       1  UNL1        0.0654
     43 H          -5.7102   -0.5686   -0.5116 H       1  UNL1        0.0626
     44 H          -1.8607   -1.7025   -1.5829 H       1  UNL1        0.0292
     45 H          -0.3748   -1.5802   -0.4582 H       1  UNL1        0.0292
     46 H          -0.2416   -1.4575   -2.2019 H       1  UNL1        0.0292
     47 H           1.1590   -0.1869   -2.9603 H       1  UNL1        0.0362
     48 H           1.6896    1.4966   -2.9731 H       1  UNL1        0.0362
     49 H           2.9277    2.3545   -1.1000 H       1  UNL1        0.0620
     50 H           4.6227    1.9268    0.6457 H       1  UNL1        0.0619
     51 H           4.9839   -0.3256    1.5300 H       1  UNL1        0.0654
     52 H           4.3924   -3.9849    1.7791 H       1  UNL1        0.0849
     53 H           3.5255   -1.4996    3.0094 H       1  UNL1        0.0271
     54 H           5.2428   -1.7512    3.4251 H       1  UNL1        0.0271
     55 H           4.0509   -3.0728    3.8024 H       1  UNL1        0.0271
     56 H           7.9671   -2.9936    1.7596 H       1  UNL1        0.2952
     57 H           1.9098   -1.7331   -1.1271 H       1  UNL1        0.0657
     58 H           1.0735    3.5804   -2.3645 H       1  UNL1        0.0661
     59 H          -2.4170    5.6634   -1.0314 H       1  UNL1        0.0655
     60 H          -3.4366    3.5590   -0.4826 H       1  UNL1        0.0640
     61 H          -1.8328   -1.1521    1.2903 H       1  UNL1        0.0626
     62 H          -2.6212   -3.2109    2.2347 H       1  UNL1        0.0654
@<TRIPOS>BOND
     1     1     2    1
     2     2     3    1
     3     3     4   ar
     4     4     5   ar
     5     5     6   ar
     6     6     7    1
     7     7     8    2
     8     7     9   am
     9     9    10   ar
    10    10    11    1
    11    10    12   ar
    12    12    13    1
    13    13    14    1
    14    14    15   ar
    15    15    16   ar
    16    16    17   ar
    17    17    18   ar
    18    18    19    1
    19    19    20    1
    20    20    21    1
    21    20    22    1
    22    22    23    2
    23    22    24    1
    24    18    25   ar
    25    12    26   ar
    26    26    27   ar
    27    27    28   ar
    28    28    29    1
    29    29    30    1
    30    30    31    1
    31    30    32    1
    32    30    33    1
    33    28    34   ar
    34    34    35   ar
    35    35    36   ar
    36     6    37   ar
    37    37    38   ar
    38    38     3   ar
    39    36     9   ar
    40    25    14   ar
    41    36    26   ar
    42     1    39    1
    43     1    40    1
    44     1    41    1
    45     4    42    1
    46     5    43    1
    47    11    44    1
    48    11    45    1
    49    11    46    1
    50    13    47    1
    51    13    48    1
    52    15    49    1
    53    16    50    1
    54    17    51    1
    55    20    52    1
    56    21    53    1
    57    21    54    1
    58    21    55    1
    59    24    56    1
    60    25    57    1
    61    27    58    1
    62    34    59    1
    63    35    60    1
    64    37    61    1
    65    38    62    1
