
     RDKit          3D

 62 65  0  0  0  0  0  0  0  0999 V2000
   -6.3700   -4.6610    1.7899 C   0  0  0  0  0  0  0  0  0  0  0  0
   -5.0275   -4.2487    2.0159 O   0  0  0  0  0  0  0  0  0  0  0  0
   -4.5669   -3.0570    1.4424 C   0  0  0  0  0  0  0  0  0  0  0  0
   -5.4224   -2.2971    0.6643 C   0  0  0  0  0  0  0  0  0  0  0  0
   -4.9765   -1.1199    0.0930 C   0  0  0  0  0  0  0  0  0  0  0  0
   -3.6897   -0.6585    0.2676 C   0  0  0  0  0  0  0  0  0  0  0  0
   -3.3074    0.6041   -0.2754 C   0  0  0  0  0  0  0  0  0  0  0  0
   -4.2528    1.4987   -0.1661 O   0  0  0  0  0  0  0  0  0  0  0  0
   -2.0892    0.9949   -0.8894 N   0  0  0  0  0  0  0  0  0  0  0  0
   -1.0427    0.2970   -1.2845 C   0  0  0  0  0  0  0  0  0  0  0  0
   -0.9236   -1.1802   -1.3263 C   0  0  0  0  0  0  0  0  0  0  0  0
   -0.0115    1.1176   -1.7637 C   0  0  0  0  0  0  0  0  0  0  0  0
    1.3144    0.6904   -2.2758 C   0  0  0  0  0  0  0  0  0  0  0  0
    2.2850    0.3389   -1.2475 C   0  0  0  0  0  0  0  0  0  0  0  0
    3.0822    1.3387   -0.7102 C   0  0  0  0  0  0  0  0  0  0  0  0
    4.0173    1.1197    0.2489 C   0  0  0  0  0  0  0  0  0  0  0  0
    4.2220   -0.1563    0.7495 C   0  0  0  0  0  0  0  0  0  0  0  0
    3.4504   -1.1690    0.2401 C   0  0  0  0  0  0  0  0  0  0  0  0
    3.6300   -2.4503    0.7183 O   0  0  0  0  0  0  0  0  0  0  0  0
    4.5305   -2.8604    1.6892 C   0  0  2  0  0  0  0  0  0  0  0  0
    4.3350   -2.2776    3.0534 C   0  0  0  0  0  0  0  0  0  0  0  0
    5.9534   -2.7111    1.2636 C   0  0  0  0  0  0  0  0  0  0  0  0
    6.2578   -2.2807    0.1222 O   0  0  0  0  0  0  0  0  0  0  0  0
    7.0026   -3.0432    2.1145 O   0  0  0  0  0  0  0  0  0  0  0  0
    2.4928   -0.9247   -0.7473 C   0  0  0  0  0  0  0  0  0  0  0  0
   -0.5104    2.3940   -1.6348 C   0  0  0  0  0  0  0  0  0  0  0  0
    0.0758    3.6144   -1.9509 C   0  0  0  0  0  0  0  0  0  0  0  0
   -0.6214    4.7683   -1.7278 C   0  0  0  0  0  0  0  0  0  0  0  0
    0.0073    5.9624   -2.0590 O   0  0  0  0  0  0  0  0  0  0  0  0
    0.8091    6.6702   -1.1284 C   0  0  0  0  0  0  0  0  0  0  0  0
    1.3254    7.8200   -1.6841 F   0  0  0  0  0  0  0  0  0  0  0  0
    0.0420    6.9347   -0.0166 F   0  0  0  0  0  0  0  0  0  0  0  0
    1.9009    5.9006   -0.7192 F   0  0  0  0  0  0  0  0  0  0  0  0
   -1.8735    4.7281   -1.2037 C   0  0  0  0  0  0  0  0  0  0  0  0
   -2.4479    3.4901   -0.8915 C   0  0  0  0  0  0  0  0  0  0  0  0
   -1.7771    2.3128   -1.1020 C   0  0  0  0  0  0  0  0  0  0  0  0
   -2.8489   -1.4126    1.0392 C   0  0  0  0  0  0  0  0  0  0  0  0
   -3.2796   -2.6119    1.6285 C   0  0  0  0  0  0  0  0  0  0  0  0
   -6.6704   -5.4723    2.4690 H   0  0  0  0  0  0  0  0  0  0  0  0
   -6.5590   -4.9843    0.7650 H   0  0  0  0  0  0  0  0  0  0  0  0
   -7.0701   -3.7955    1.9914 H   0  0  0  0  0  0  0  0  0  0  0  0
   -6.4455   -2.5845    0.4769 H   0  0  0  0  0  0  0  0  0  0  0  0
   -5.7102   -0.5686   -0.5116 H   0  0  0  0  0  0  0  0  0  0  0  0
   -1.8607   -1.7025   -1.5829 H   0  0  0  0  0  0  0  0  0  0  0  0
   -0.3748   -1.5802   -0.4582 H   0  0  0  0  0  0  0  0  0  0  0  0
   -0.2416   -1.4575   -2.2019 H   0  0  0  0  0  0  0  0  0  0  0  0
    1.1590   -0.1869   -2.9603 H   0  0  0  0  0  0  0  0  0  0  0  0
    1.6896    1.4966   -2.9731 H   0  0  0  0  0  0  0  0  0  0  0  0
    2.9277    2.3545   -1.1000 H   0  0  0  0  0  0  0  0  0  0  0  0
    4.6227    1.9268    0.6457 H   0  0  0  0  0  0  0  0  0  0  0  0
    4.9839   -0.3256    1.5300 H   0  0  0  0  0  0  0  0  0  0  0  0
    4.3924   -3.9849    1.7791 H   0  0  0  0  0  0  0  0  0  0  0  0
    3.5255   -1.4996    3.0094 H   0  0  0  0  0  0  0  0  0  0  0  0
    5.2428   -1.7512    3.4251 H   0  0  0  0  0  0  0  0  0  0  0  0
    4.0509   -3.0728    3.8024 H   0  0  0  0  0  0  0  0  0  0  0  0
    7.9671   -2.9936    1.7596 H   0  0  0  0  0  0  0  0  0  0  0  0
    1.9098   -1.7331   -1.1271 H   0  0  0  0  0  0  0  0  0  0  0  0
    1.0735    3.5804   -2.3645 H   0  0  0  0  0  0  0  0  0  0  0  0
   -2.4170    5.6634   -1.0314 H   0  0  0  0  0  0  0  0  0  0  0  0
   -3.4366    3.5590   -0.4826 H   0  0  0  0  0  0  0  0  0  0  0  0
   -1.8328   -1.1521    1.2903 H   0  0  0  0  0  0  0  0  0  0  0  0
   -2.6212   -3.2109    2.2347 H   0  0  0  0  0  0  0  0  0  0  0  0
  1  2  1  0
  2  3  1  0
  3  4  2  0
  4  5  1  0
  5  6  2  0
  6  7  1  0
  7  8  2  0
  7  9  1  0
  9 10  1  0
 10 11  1  0
 10 12  2  0
 12 13  1  0
 13 14  1  0
 14 15  2  0
 15 16  1  0
 16 17  2  0
 17 18  1  0
 18 19  1  0
 19 20  1  0
 20 21  1  0
 20 22  1  0
 22 23  2  0
 22 24  1  0
 18 25  2  0
 12 26  1  0
 26 27  2  0
 27 28  1  0
 28 29  1  0
 29 30  1  0
 30 31  1  0
 30 32  1  0
 30 33  1  0
 28 34  2  0
 34 35  1  0
 35 36  2  0
  6 37  1  0
 37 38  2  0
 38  3  1  0
 36  9  1  0
 25 14  1  0
 36 26  1  0
  1 39  1  0
  1 40  1  0
  1 41  1  0
  4 42  1  0
  5 43  1  0
 11 44  1  0
 11 45  1  0
 11 46  1  0
 13 47  1  0
 13 48  1  0
 15 49  1  0
 16 50  1  0
 17 51  1  0
 20 52  1  1
 21 53  1  0
 21 54  1  0
 21 55  1  0
 24 56  1  0
 25 57  1  0
 27 58  1  0
 34 59  1  0
 35 60  1  0
 37 61  1  0
 38 62  1  0
M  END
$$$$
