@<TRIPOS>MOLECULE
*****
 48 49 0 0 0
SMALL
GASTEIGER

@<TRIPOS>ATOM
      1 C           7.6969    1.0361    2.8702 C.3     1  UNL1        0.0788
      2 O           7.0162    1.3065    1.6594 O.3     1  UNL1       -0.4951
      3 C           5.7640    0.7446    1.4567 C.ar    1  UNL1        0.1201
      4 C           5.2375    1.1127    0.2152 C.ar    1  UNL1       -0.0194
      5 C           3.9796    0.6409   -0.1657 C.ar    1  UNL1       -0.0506
      6 C           3.2237   -0.1863    0.6456 C.ar    1  UNL1       -0.0177
      7 C           3.7816   -0.5232    1.8596 C.ar    1  UNL1       -0.0506
      8 C           5.0105   -0.0795    2.2646 C.ar    1  UNL1       -0.0194
      9 C           1.9138   -0.6705    0.2295 C.ar    1  UNL1       -0.0178
     10 C           0.8450   -0.9550    1.0496 C.ar    1  UNL1       -0.0522
     11 C          -0.3563   -1.4107    0.5588 C.ar    1  UNL1       -0.0348
     12 C          -0.5499   -1.6069   -0.7952 C.ar    1  UNL1        0.1053
     13 C           0.5325   -1.3179   -1.6159 C.ar    1  UNL1       -0.0348
     14 C           1.7487   -0.8587   -1.1413 C.ar    1  UNL1       -0.0522
     15 S          -2.0247   -2.1802   -1.5484 S.O2    1  UNL1        0.0592
     16 O          -2.7168   -3.1571   -0.6586 O.2     1  UNL1       -0.1530
     17 O          -1.6654   -2.8778   -2.8466 O.2     1  UNL1       -0.1530
     18 N          -3.0092   -0.8452   -1.9616 N.3     1  UNL1       -0.1750
     19 C          -3.4325   -0.0425   -0.8565 C.3     1  UNL1        0.1319
     20 C          -4.9400    0.0267   -0.9041 C.3     1  UNL1       -0.0185
     21 C          -5.4898   -1.3717   -0.7963 C.3     1  UNL1       -0.0606
     22 C          -5.5488    0.8675    0.1730 C.3     1  UNL1       -0.0606
     23 P          -2.6984    1.6106   -1.0800 P.3     1  UNL1        0.3463
     24 O          -3.4739    2.3678   -2.3526 O.3     1  UNL1       -0.3230
     25 O          -2.7478    2.5216    0.3387 O.3     1  UNL1       -0.3230
     26 O          -1.2466    1.4051   -1.4621 O.2     1  UNL1       -0.2571
     27 H           7.3414    1.7778    3.6102 H       1  UNL1        0.0660
     28 H           7.5178    0.0100    3.2355 H       1  UNL1        0.0660
     29 H           8.7771    1.2078    2.6537 H       1  UNL1        0.0660
     30 H           5.7340    1.7614   -0.5185 H       1  UNL1        0.0654
     31 H           3.5699    0.9312   -1.1392 H       1  UNL1        0.0625
     32 H           3.2391   -1.1754    2.5547 H       1  UNL1        0.0625
     33 H           5.5064   -0.3030    3.1990 H       1  UNL1        0.0654
     34 H           0.9965   -0.8031    2.0964 H       1  UNL1        0.0624
     35 H          -1.1904   -1.6337    1.1917 H       1  UNL1        0.0637
     36 H           0.4218   -1.4583   -2.6840 H       1  UNL1        0.0637
     37 H           2.5365   -0.6620   -1.8784 H       1  UNL1        0.0624
     38 H          -2.7196   -0.3523   -2.8095 H       1  UNL1        0.1490
     39 H          -3.0584   -0.4082    0.1122 H       1  UNL1        0.0605
     40 H          -5.2130    0.4369   -1.9082 H       1  UNL1        0.0317
     41 H          -5.1902   -1.8187    0.1772 H       1  UNL1        0.0233
     42 H          -5.1190   -2.0478   -1.5921 H       1  UNL1        0.0233
     43 H          -6.5990   -1.3556   -0.8958 H       1  UNL1        0.0233
     44 H          -6.5118    1.2881   -0.2207 H       1  UNL1        0.0233
     45 H          -5.8562    0.2150    1.0397 H       1  UNL1        0.0233
     46 H          -4.8992    1.6442    0.5845 H       1  UNL1        0.0233
     47 H          -3.5451    1.6964   -3.0851 H       1  UNL1        0.2198
     48 H          -2.5885    1.9968    1.1406 H       1  UNL1        0.2198
@<TRIPOS>BOND
     1     1     2    1
     2     2     3    1
     3     3     4   ar
     4     4     5   ar
     5     5     6   ar
     6     6     7   ar
     7     7     8   ar
     8     6     9    1
     9     9    10   ar
    10    10    11   ar
    11    11    12   ar
    12    12    13   ar
    13    13    14   ar
    14    12    15    1
    15    15    16    2
    16    15    17    2
    17    15    18    1
    18    18    19    1
    19    19    20    1
    20    20    21    1
    21    20    22    1
    22    19    23    1
    23    23    24    1
    24    23    25    1
    25    23    26    2
    26     8     3   ar
    27    14     9   ar
    28     1    27    1
    29     1    28    1
    30     1    29    1
    31     4    30    1
    32     5    31    1
    33     7    32    1
    34     8    33    1
    35    10    34    1
    36    11    35    1
    37    13    36    1
    38    14    37    1
    39    18    38    1
    40    19    39    1
    41    20    40    1
    42    21    41    1
    43    21    42    1
    44    21    43    1
    45    22    44    1
    46    22    45    1
    47    22    46    1
    48    24    47    1
    49    25    48    1
