
     RDKit          3D

 48 49  0  0  0  0  0  0  0  0999 V2000
    7.6969    1.0361    2.8702 C   0  0  0  0  0  0  0  0  0  0  0  0
    7.0162    1.3065    1.6594 O   0  0  0  0  0  0  0  0  0  0  0  0
    5.7640    0.7446    1.4567 C   0  0  0  0  0  0  0  0  0  0  0  0
    5.2375    1.1127    0.2152 C   0  0  0  0  0  0  0  0  0  0  0  0
    3.9796    0.6409   -0.1657 C   0  0  0  0  0  0  0  0  0  0  0  0
    3.2237   -0.1863    0.6456 C   0  0  0  0  0  0  0  0  0  0  0  0
    3.7816   -0.5232    1.8596 C   0  0  0  0  0  0  0  0  0  0  0  0
    5.0105   -0.0795    2.2646 C   0  0  0  0  0  0  0  0  0  0  0  0
    1.9138   -0.6705    0.2295 C   0  0  0  0  0  0  0  0  0  0  0  0
    0.8450   -0.9550    1.0496 C   0  0  0  0  0  0  0  0  0  0  0  0
   -0.3563   -1.4107    0.5588 C   0  0  0  0  0  0  0  0  0  0  0  0
   -0.5499   -1.6069   -0.7952 C   0  0  0  0  0  0  0  0  0  0  0  0
    0.5325   -1.3179   -1.6159 C   0  0  0  0  0  0  0  0  0  0  0  0
    1.7487   -0.8587   -1.1413 C   0  0  0  0  0  0  0  0  0  0  0  0
   -2.0247   -2.1802   -1.5484 S   0  0  0  0  0  0  0  0  0  0  0  0
   -2.7168   -3.1571   -0.6586 O   0  0  0  0  0  0  0  0  0  0  0  0
   -1.6654   -2.8778   -2.8466 O   0  0  0  0  0  0  0  0  0  0  0  0
   -3.0092   -0.8452   -1.9616 N   0  0  0  0  0  0  0  0  0  0  0  0
   -3.4325   -0.0425   -0.8565 C   0  0  2  0  0  0  0  0  0  0  0  0
   -4.9400    0.0267   -0.9041 C   0  0  0  0  0  0  0  0  0  0  0  0
   -5.4898   -1.3717   -0.7963 C   0  0  0  0  0  0  0  0  0  0  0  0
   -5.5488    0.8675    0.1730 C   0  0  0  0  0  0  0  0  0  0  0  0
   -2.6984    1.6106   -1.0800 P   0  0  0  0  0  0  0  0  0  0  0  0
   -3.4739    2.3678   -2.3526 O   0  0  0  0  0  0  0  0  0  0  0  0
   -2.7478    2.5216    0.3387 O   0  0  0  0  0  0  0  0  0  0  0  0
   -1.2466    1.4051   -1.4621 O   0  0  0  0  0  0  0  0  0  0  0  0
    7.3414    1.7778    3.6102 H   0  0  0  0  0  0  0  0  0  0  0  0
    7.5178    0.0100    3.2355 H   0  0  0  0  0  0  0  0  0  0  0  0
    8.7771    1.2078    2.6537 H   0  0  0  0  0  0  0  0  0  0  0  0
    5.7340    1.7614   -0.5185 H   0  0  0  0  0  0  0  0  0  0  0  0
    3.5699    0.9312   -1.1392 H   0  0  0  0  0  0  0  0  0  0  0  0
    3.2391   -1.1754    2.5547 H   0  0  0  0  0  0  0  0  0  0  0  0
    5.5064   -0.3030    3.1990 H   0  0  0  0  0  0  0  0  0  0  0  0
    0.9965   -0.8031    2.0964 H   0  0  0  0  0  0  0  0  0  0  0  0
   -1.1904   -1.6337    1.1917 H   0  0  0  0  0  0  0  0  0  0  0  0
    0.4218   -1.4583   -2.6840 H   0  0  0  0  0  0  0  0  0  0  0  0
    2.5365   -0.6620   -1.8784 H   0  0  0  0  0  0  0  0  0  0  0  0
   -2.7196   -0.3523   -2.8095 H   0  0  0  0  0  0  0  0  0  0  0  0
   -3.0584   -0.4082    0.1122 H   0  0  0  0  0  0  0  0  0  0  0  0
   -5.2130    0.4369   -1.9082 H   0  0  0  0  0  0  0  0  0  0  0  0
   -5.1902   -1.8187    0.1772 H   0  0  0  0  0  0  0  0  0  0  0  0
   -5.1190   -2.0478   -1.5921 H   0  0  0  0  0  0  0  0  0  0  0  0
   -6.5990   -1.3556   -0.8958 H   0  0  0  0  0  0  0  0  0  0  0  0
   -6.5118    1.2881   -0.2207 H   0  0  0  0  0  0  0  0  0  0  0  0
   -5.8562    0.2150    1.0397 H   0  0  0  0  0  0  0  0  0  0  0  0
   -4.8992    1.6442    0.5845 H   0  0  0  0  0  0  0  0  0  0  0  0
   -3.5451    1.6964   -3.0851 H   0  0  0  0  0  0  0  0  0  0  0  0
   -2.5885    1.9968    1.1406 H   0  0  0  0  0  0  0  0  0  0  0  0
  1  2  1  0
  2  3  1  0
  3  4  2  0
  4  5  1  0
  5  6  2  0
  6  7  1  0
  7  8  2  0
  6  9  1  0
  9 10  2  0
 10 11  1  0
 11 12  2  0
 12 13  1  0
 13 14  2  0
 12 15  1  0
 15 16  2  0
 15 17  2  0
 15 18  1  0
 18 19  1  0
 19 20  1  0
 20 21  1  0
 20 22  1  0
 19 23  1  0
 23 24  1  0
 23 25  1  0
 23 26  2  0
  8  3  1  0
 14  9  1  0
  1 27  1  0
  1 28  1  0
  1 29  1  0
  4 30  1  0
  5 31  1  0
  7 32  1  0
  8 33  1  0
 10 34  1  0
 11 35  1  0
 13 36  1  0
 14 37  1  0
 18 38  1  0
 19 39  1  1
 20 40  1  0
 21 41  1  0
 21 42  1  0
 21 43  1  0
 22 44  1  0
 22 45  1  0
 22 46  1  0
 24 47  1  0
 25 48  1  0
M  END
$$$$
