
     RDKit          3D

 72 75  0  0  0  0  0  0  0  0999 V2000
  -10.5713    0.9422   -1.8456 C   0  0  0  0  0  0  0  0  0  0  0  0
  -10.2632    1.1611   -0.3835 C   0  0  0  0  0  0  0  0  0  0  0  0
   -8.8435    1.5168   -0.1525 C   0  0  0  0  0  0  0  0  0  0  0  0
   -8.4203    2.7921    0.1383 C   0  0  0  0  0  0  0  0  0  0  0  0
   -7.0864    3.0642    0.3456 C   0  0  0  0  0  0  0  0  0  0  0  0
   -6.1188    2.0675    0.2688 C   0  0  0  0  0  0  0  0  0  0  0  0
   -4.8253    2.0700    0.4200 O   0  0  0  0  0  0  0  0  0  0  0  0
   -4.3172    0.8545    0.2470 C   0  0  0  0  0  0  0  0  0  0  0  0
   -2.9075    0.5382    0.3524 C   0  0  0  0  0  0  0  0  0  0  0  0
   -2.0777    1.5295    0.3819 O   0  0  0  0  0  0  0  0  0  0  0  0
   -2.3209   -0.7363    0.4314 N   0  0  0  0  0  0  0  0  0  0  0  0
   -0.8756   -0.8827    0.5263 C   0  0  0  0  0  0  0  0  0  0  0  0
   -0.3217   -0.9412    1.7998 C   0  0  0  0  0  0  0  0  0  0  0  0
    1.0454   -1.0757    1.9542 C   0  0  0  0  0  0  0  0  0  0  0  0
    1.8574   -1.1512    0.8327 C   0  0  0  0  0  0  0  0  0  0  0  0
    3.3140   -1.3008    0.9556 C   0  0  0  0  0  0  0  0  0  0  0  0
    3.9556   -0.7527    2.0220 C   0  0  0  0  0  0  0  0  0  0  0  0
    5.3363   -0.8746    2.1598 C   0  0  0  0  0  0  0  0  0  0  0  0
    6.0810   -1.5562    1.2126 C   0  0  0  0  0  0  0  0  0  0  0  0
    7.8109   -1.7254    1.3690 S   0  0  0  0  0  6  0  0  0  0  0  0
    8.2920   -2.9564    0.6513 O   0  0  0  0  0  0  0  0  0  0  0  0
    8.1470   -1.8379    2.8101 O   0  0  0  0  0  0  0  0  0  0  0  0
    8.5294   -0.3090    0.7015 N   0  0  0  0  0  0  0  0  0  0  0  0
    8.2432   -0.1220   -0.6909 C   0  0  2  0  0  0  0  0  0  0  0  0
    9.4805   -0.0420   -1.4758 C   0  0  0  0  0  0  0  0  0  0  0  0
    9.5082    0.1328   -2.7212 O   0  0  0  0  0  0  0  0  0  0  0  0
   10.7070   -0.1647   -0.8211 O   0  0  0  0  0  0  0  0  0  0  0  0
    7.3979    1.1473   -0.8248 C   0  0  0  0  0  0  0  0  0  0  0  0
    7.0362    1.4407   -2.2432 C   0  0  0  0  0  0  0  0  0  0  0  0
    8.1617    2.2877   -0.1778 C   0  0  0  0  0  0  0  0  0  0  0  0
    5.4321   -2.1035    0.1453 C   0  0  0  0  0  0  0  0  0  0  0  0
    4.0562   -1.9843    0.0052 C   0  0  0  0  0  0  0  0  0  0  0  0
    1.2741   -1.0899   -0.4119 C   0  0  0  0  0  0  0  0  0  0  0  0
   -0.0999   -0.9549   -0.5886 C   0  0  0  0  0  0  0  0  0  0  0  0
   -5.3641    0.0201   -0.0366 C   0  0  0  0  0  0  0  0  0  0  0  0
   -5.3476   -1.4265   -0.3691 C   0  0  0  0  0  0  0  0  0  0  0  0
   -6.5335    0.7795   -0.0245 C   0  0  0  0  0  0  0  0  0  0  0  0
   -7.8612    0.5128   -0.2281 C   0  0  0  0  0  0  0  0  0  0  0  0
   -8.3084   -0.7535   -0.5162 O   0  0  0  0  0  0  0  0  0  0  0  0
   -8.7027   -1.5681    0.5970 C   0  0  0  0  0  0  0  0  0  0  0  0
  -11.5309    1.3867   -2.1333 H   0  0  0  0  0  0  0  0  0  0  0  0
   -9.7807    1.4028   -2.4863 H   0  0  0  0  0  0  0  0  0  0  0  0
  -10.6699   -0.1584   -2.0731 H   0  0  0  0  0  0  0  0  0  0  0  0
  -10.6151    0.3208    0.2404 H   0  0  0  0  0  0  0  0  0  0  0  0
  -10.8652    2.0609   -0.0712 H   0  0  0  0  0  0  0  0  0  0  0  0
   -9.1323    3.5955    0.2071 H   0  0  0  0  0  0  0  0  0  0  0  0
   -6.7530    4.0885    0.5770 H   0  0  0  0  0  0  0  0  0  0  0  0
   -2.9242   -1.5746    0.4412 H   0  0  0  0  0  0  0  0  0  0  0  0
   -0.9260   -0.8846    2.6931 H   0  0  0  0  0  0  0  0  0  0  0  0
    1.5266   -1.1256    2.9250 H   0  0  0  0  0  0  0  0  0  0  0  0
    3.3768   -0.2082    2.7817 H   0  0  0  0  0  0  0  0  0  0  0  0
    5.8153   -0.4357    3.0077 H   0  0  0  0  0  0  0  0  0  0  0  0
    8.2288    0.5095    1.3057 H   0  0  0  0  0  0  0  0  0  0  0  0
    7.6039   -0.9727   -1.0372 H   0  0  0  0  0  0  0  0  0  0  0  0
   11.5393    0.1756   -1.2487 H   0  0  0  0  0  0  0  0  0  0  0  0
    6.4569    0.9370   -0.2748 H   0  0  0  0  0  0  0  0  0  0  0  0
    6.9523    0.4601   -2.7844 H   0  0  0  0  0  0  0  0  0  0  0  0
    7.8056    2.1048   -2.7210 H   0  0  0  0  0  0  0  0  0  0  0  0
    6.0408    1.9646   -2.2688 H   0  0  0  0  0  0  0  0  0  0  0  0
    7.9927    3.2440   -0.7465 H   0  0  0  0  0  0  0  0  0  0  0  0
    9.2299    2.0292   -0.1495 H   0  0  0  0  0  0  0  0  0  0  0  0
    7.7134    2.4428    0.8307 H   0  0  0  0  0  0  0  0  0  0  0  0
    5.9472   -2.6486   -0.6282 H   0  0  0  0  0  0  0  0  0  0  0  0
    3.5682   -2.4175   -0.8333 H   0  0  0  0  0  0  0  0  0  0  0  0
    1.8731   -1.1466   -1.3185 H   0  0  0  0  0  0  0  0  0  0  0  0
   -0.5704   -0.9050   -1.5554 H   0  0  0  0  0  0  0  0  0  0  0  0
   -5.2138   -2.0254    0.5335 H   0  0  0  0  0  0  0  0  0  0  0  0
   -6.2966   -1.7781   -0.8368 H   0  0  0  0  0  0  0  0  0  0  0  0
   -4.5154   -1.5597   -1.1234 H   0  0  0  0  0  0  0  0  0  0  0  0
   -8.0169   -2.4408    0.6993 H   0  0  0  0  0  0  0  0  0  0  0  0
   -8.6412   -1.0126    1.5606 H   0  0  0  0  0  0  0  0  0  0  0  0
   -9.7184   -1.9768    0.4645 H   0  0  0  0  0  0  0  0  0  0  0  0
  1  2  1  0
  2  3  1  0
  3  4  2  0
  4  5  1  0
  5  6  2  0
  6  7  1  0
  7  8  1  0
  8  9  1  0
  9 10  2  0
  9 11  1  0
 11 12  1  0
 12 13  2  0
 13 14  1  0
 14 15  2  0
 15 16  1  0
 16 17  2  0
 17 18  1  0
 18 19  2  0
 19 20  1  0
 20 21  2  0
 20 22  2  0
 20 23  1  0
 23 24  1  0
 24 25  1  0
 25 26  2  0
 25 27  1  0
 24 28  1  0
 28 29  1  0
 28 30  1  0
 19 31  1  0
 31 32  2  0
 15 33  1  0
 33 34  2  0
  8 35  2  0
 35 36  1  0
 35 37  1  0
 37 38  2  0
 38 39  1  0
 39 40  1  0
 38  3  1  0
 37  6  1  0
 34 12  1  0
 32 16  1  0
  1 41  1  0
  1 42  1  0
  1 43  1  0
  2 44  1  0
  2 45  1  0
  4 46  1  0
  5 47  1  0
 11 48  1  0
 13 49  1  0
 14 50  1  0
 17 51  1  0
 18 52  1  0
 23 53  1  0
 24 54  1  6
 27 55  1  0
 28 56  1  0
 29 57  1  0
 29 58  1  0
 29 59  1  0
 30 60  1  0
 30 61  1  0
 30 62  1  0
 31 63  1  0
 32 64  1  0
 33 65  1  0
 34 66  1  0
 36 67  1  0
 36 68  1  0
 36 69  1  0
 40 70  1  0
 40 71  1  0
 40 72  1  0
M  END
$$$$
