@<TRIPOS>MOLECULE
*****
 72 75 0 0 0
SMALL
GASTEIGER

@<TRIPOS>ATOM
      1 C         -10.5713    0.9422   -1.8456 C.3     1  UNL1       -0.0611
      2 C         -10.2632    1.1611   -0.3835 C.3     1  UNL1       -0.0270
      3 C          -8.8435    1.5168   -0.1525 C.ar    1  UNL1       -0.0051
      4 C          -8.4203    2.7921    0.1383 C.ar    1  UNL1       -0.0516
      5 C          -7.0864    3.0642    0.3456 C.ar    1  UNL1       -0.0182
      6 C          -6.1188    2.0675    0.2688 C.ar    1  UNL1        0.1397
      7 O          -4.8253    2.0700    0.4200 O.2     1  UNL1       -0.4498
      8 C          -4.3172    0.8545    0.2470 C.ar    1  UNL1        0.1938
      9 C          -2.9075    0.5382    0.3524 C.2     1  UNL1        0.2839
     10 O          -2.0777    1.5295    0.3819 O.2     1  UNL1       -0.2665
     11 N          -2.3209   -0.7363    0.4314 N.am    1  UNL1       -0.2790
     12 C          -0.8756   -0.8827    0.5263 C.ar    1  UNL1        0.0338
     13 C          -0.3217   -0.9412    1.7998 C.ar    1  UNL1       -0.0399
     14 C           1.0454   -1.0757    1.9542 C.ar    1  UNL1       -0.0523
     15 C           1.8574   -1.1512    0.8327 C.ar    1  UNL1       -0.0178
     16 C           3.3140   -1.3008    0.9556 C.ar    1  UNL1       -0.0178
     17 C           3.9556   -0.7527    2.0220 C.ar    1  UNL1       -0.0522
     18 C           5.3363   -0.8746    2.1598 C.ar    1  UNL1       -0.0348
     19 C           6.0810   -1.5562    1.2126 C.ar    1  UNL1        0.1053
     20 S           7.8109   -1.7254    1.3690 S.O2    1  UNL1        0.0591
     21 O           8.2920   -2.9564    0.6513 O.2     1  UNL1       -0.1530
     22 O           8.1470   -1.8379    2.8101 O.2     1  UNL1       -0.1530
     23 N           8.5294   -0.3090    0.7015 N.3     1  UNL1       -0.1759
     24 C           8.2432   -0.1220   -0.6909 C.3     1  UNL1        0.1276
     25 C           9.4805   -0.0420   -1.4758 C.2     1  UNL1        0.3238
     26 O           9.5082    0.1328   -2.7212 O.2     1  UNL1       -0.2492
     27 O          10.7070   -0.1647   -0.8211 O.3     1  UNL1       -0.4795
     28 C           7.3979    1.1473   -0.8248 C.3     1  UNL1       -0.0194
     29 C           7.0362    1.4407   -2.2432 C.3     1  UNL1       -0.0607
     30 C           8.1617    2.2877   -0.1778 C.3     1  UNL1       -0.0607
     31 C           5.4321   -2.1035    0.1453 C.ar    1  UNL1       -0.0348
     32 C           4.0562   -1.9843    0.0052 C.ar    1  UNL1       -0.0522
     33 C           1.2741   -1.0899   -0.4119 C.ar    1  UNL1       -0.0523
     34 C          -0.0999   -0.9549   -0.5886 C.ar    1  UNL1       -0.0399
     35 C          -5.3641    0.0201   -0.0366 C.ar    1  UNL1        0.0112
     36 C          -5.3476   -1.4265   -0.3691 C.3     1  UNL1       -0.0353
     37 C          -6.5335    0.7795   -0.0245 C.ar    1  UNL1        0.0657
     38 C          -7.8612    0.5128   -0.2281 C.ar    1  UNL1        0.1342
     39 O          -8.3084   -0.7535   -0.5162 O.3     1  UNL1       -0.4941
     40 C          -8.7027   -1.5681    0.5970 C.3     1  UNL1        0.0788
     41 H         -11.5309    1.3867   -2.1333 H       1  UNL1        0.0233
     42 H          -9.7807    1.4028   -2.4863 H       1  UNL1        0.0233
     43 H         -10.6699   -0.1584   -2.0731 H       1  UNL1        0.0233
     44 H         -10.6151    0.3208    0.2404 H       1  UNL1        0.0312
     45 H         -10.8652    2.0609   -0.0712 H       1  UNL1        0.0312
     46 H          -9.1323    3.5955    0.2071 H       1  UNL1        0.0623
     47 H          -6.7530    4.0885    0.5770 H       1  UNL1        0.0655
     48 H          -2.9242   -1.5746    0.4412 H       1  UNL1        0.1552
     49 H          -0.9260   -0.8846    2.6931 H       1  UNL1        0.0636
     50 H           1.5266   -1.1256    2.9250 H       1  UNL1        0.0624
     51 H           3.3768   -0.2082    2.7817 H       1  UNL1        0.0624
     52 H           5.8153   -0.4357    3.0077 H       1  UNL1        0.0637
     53 H           8.2288    0.5095    1.3057 H       1  UNL1        0.1489
     54 H           7.6039   -0.9727   -1.0372 H       1  UNL1        0.0595
     55 H          11.5393    0.1756   -1.2487 H       1  UNL1        0.2951
     56 H           6.4569    0.9370   -0.2748 H       1  UNL1        0.0316
     57 H           6.9523    0.4601   -2.7844 H       1  UNL1        0.0233
     58 H           7.8056    2.1048   -2.7210 H       1  UNL1        0.0233
     59 H           6.0408    1.9646   -2.2688 H       1  UNL1        0.0233
     60 H           7.9927    3.2440   -0.7465 H       1  UNL1        0.0233
     61 H           9.2299    2.0292   -0.1495 H       1  UNL1        0.0233
     62 H           7.7134    2.4428    0.8307 H       1  UNL1        0.0233
     63 H           5.9472   -2.6486   -0.6282 H       1  UNL1        0.0637
     64 H           3.5682   -2.4175   -0.8333 H       1  UNL1        0.0624
     65 H           1.8731   -1.1466   -1.3185 H       1  UNL1        0.0624
     66 H          -0.5704   -0.9050   -1.5554 H       1  UNL1        0.0636
     67 H          -5.2138   -2.0254    0.5335 H       1  UNL1        0.0279
     68 H          -6.2966   -1.7781   -0.8368 H       1  UNL1        0.0279
     69 H          -4.5154   -1.5597   -1.1234 H       1  UNL1        0.0279
     70 H          -8.0169   -2.4408    0.6993 H       1  UNL1        0.0660
     71 H          -8.6412   -1.0126    1.5606 H       1  UNL1        0.0660
     72 H          -9.7184   -1.9768    0.4645 H       1  UNL1        0.0660
@<TRIPOS>BOND
     1     1     2    1
     2     2     3    1
     3     3     4   ar
     4     4     5   ar
     5     5     6   ar
     6     6     7   ar
     7     7     8   ar
     8     8     9    1
     9     9    10    2
    10     9    11   am
    11    11    12    1
    12    12    13   ar
    13    13    14   ar
    14    14    15   ar
    15    15    16    1
    16    16    17   ar
    17    17    18   ar
    18    18    19   ar
    19    19    20    1
    20    20    21    2
    21    20    22    2
    22    20    23    1
    23    23    24    1
    24    24    25    1
    25    25    26    2
    26    25    27    1
    27    24    28    1
    28    28    29    1
    29    28    30    1
    30    19    31   ar
    31    31    32   ar
    32    15    33   ar
    33    33    34   ar
    34     8    35   ar
    35    35    36    1
    36    35    37   ar
    37    37    38   ar
    38    38    39    1
    39    39    40    1
    40    38     3   ar
    41    37     6   ar
    42    34    12   ar
    43    32    16   ar
    44     1    41    1
    45     1    42    1
    46     1    43    1
    47     2    44    1
    48     2    45    1
    49     4    46    1
    50     5    47    1
    51    11    48    1
    52    13    49    1
    53    14    50    1
    54    17    51    1
    55    18    52    1
    56    23    53    1
    57    24    54    1
    58    27    55    1
    59    28    56    1
    60    29    57    1
    61    29    58    1
    62    29    59    1
    63    30    60    1
    64    30    61    1
    65    30    62    1
    66    31    63    1
    67    32    64    1
    68    33    65    1
    69    34    66    1
    70    36    67    1
    71    36    68    1
    72    36    69    1
    73    40    70    1
    74    40    71    1
    75    40    72    1
