
     RDKit          3D

 69 72  0  0  0  0  0  0  0  0999 V2000
    7.2134    1.9595   -2.6092 C   0  0  0  0  0  0  0  0  0  0  0  0
    6.9305    1.1542   -1.4076 C   0  0  0  0  0  0  0  0  0  0  0  0
    5.6382    0.9680   -0.9785 C   0  0  0  0  0  0  0  0  0  0  0  0
    5.3486    0.2112    0.1541 C   0  0  0  0  0  0  0  0  0  0  0  0
    3.9939   -0.0019    0.6300 C   0  0  0  0  0  0  0  0  0  0  0  0
    3.6392   -1.1477    1.2748 C   0  0  0  0  0  0  0  0  0  0  0  0
    2.3354   -1.3368    1.7255 C   0  0  0  0  0  0  0  0  0  0  0  0
    1.3988   -0.3470    1.5120 C   0  0  0  0  0  0  0  0  0  0  0  0
   -0.0090   -0.5038    1.9764 C   0  0  2  0  0  0  0  0  0  0  0  0
   -0.3029   -1.9142    2.4050 C   0  0  0  0  0  0  0  0  0  0  0  0
   -0.9118   -0.0870    0.9220 N   0  0  0  0  0  0  0  0  0  0  0  0
   -0.9929   -0.7501   -0.3638 C   0  0  0  0  0  0  0  0  0  0  0  0
   -2.3725   -1.1370   -0.7594 C   0  0  0  0  0  0  0  0  0  0  0  0
   -3.4553   -0.1734   -0.2734 C   0  0  2  0  0  0  0  0  0  0  0  0
   -4.1264   -0.8010    0.8829 C   0  0  0  0  0  0  0  0  0  0  0  0
   -5.1960   -0.0738    1.5816 C   0  0  0  0  0  0  0  0  0  0  0  0
   -6.3992    0.3063    0.7886 C   0  0  0  0  0  0  0  0  0  0  0  0
   -4.7228    1.1609    2.3233 C   0  0  0  0  0  0  0  0  0  0  0  0
   -5.6666   -0.9383    2.6084 O   0  0  0  0  0  0  0  0  0  0  0  0
   -4.2941    0.0886   -1.4562 C   0  0  0  0  0  0  0  0  0  0  0  0
   -4.1372    1.2359   -2.1649 C   0  0  0  0  0  0  0  0  0  0  0  0
   -4.8954    1.4568   -3.2831 C   0  0  0  0  0  0  0  0  0  0  0  0
   -5.8159    0.5380   -3.7053 C   0  0  0  0  0  0  0  0  0  0  0  0
   -5.9879   -0.6273   -3.0012 C   0  0  0  0  0  0  0  0  0  0  0  0
   -5.2096   -0.8426   -1.8625 C   0  0  0  0  0  0  0  0  0  0  0  0
   -2.8684    1.0523    0.1873 O   0  0  0  0  0  0  0  0  0  0  0  0
   -1.8061    1.0344    1.0811 C   0  0  0  0  0  0  0  0  0  0  0  0
   -1.5771    1.8693    1.9648 O   0  0  0  0  0  0  0  0  0  0  0  0
    1.7241    0.8222    0.8641 C   0  0  0  0  0  0  0  0  0  0  0  0
    3.0299    0.9681    0.4335 C   0  0  0  0  0  0  0  0  0  0  0  0
    6.4238   -0.3345    0.8123 C   0  0  0  0  0  0  0  0  0  0  0  0
    7.7016   -0.1537    0.3927 N   0  0  0  0  0  0  0  0  0  0  0  0
    8.7721   -0.7563    1.1340 C   0  0  0  0  0  0  0  0  0  0  0  0
    7.9663    0.5870   -0.7133 C   0  0  0  0  0  0  0  0  0  0  0  0
    9.1830    0.7327   -1.0745 O   0  0  0  0  0  0  0  0  0  0  0  0
    7.0731    1.3660   -3.5196 H   0  0  0  0  0  0  0  0  0  0  0  0
    6.4450    2.7855   -2.6494 H   0  0  0  0  0  0  0  0  0  0  0  0
    8.1987    2.4683   -2.5686 H   0  0  0  0  0  0  0  0  0  0  0  0
    4.7843    1.4031   -1.5036 H   0  0  0  0  0  0  0  0  0  0  0  0
    4.3449   -1.9341    1.4549 H   0  0  0  0  0  0  0  0  0  0  0  0
    2.0684   -2.2664    2.2431 H   0  0  0  0  0  0  0  0  0  0  0  0
   -0.1276    0.1455    2.8490 H   0  0  0  0  0  0  0  0  0  0  0  0
   -1.3587   -1.9657    2.7053 H   0  0  0  0  0  0  0  0  0  0  0  0
   -0.1207   -2.6586    1.6301 H   0  0  0  0  0  0  0  0  0  0  0  0
    0.3226   -2.1505    3.2928 H   0  0  0  0  0  0  0  0  0  0  0  0
   -0.5545   -0.0438   -1.1097 H   0  0  0  0  0  0  0  0  0  0  0  0
   -0.3545   -1.6568   -0.4055 H   0  0  0  0  0  0  0  0  0  0  0  0
   -2.3829   -1.2746   -1.8591 H   0  0  0  0  0  0  0  0  0  0  0  0
   -2.5564   -2.1715   -0.3440 H   0  0  0  0  0  0  0  0  0  0  0  0
   -4.5829   -1.7694    0.5049 H   0  0  0  0  0  0  0  0  0  0  0  0
   -3.3170   -1.1708    1.5681 H   0  0  0  0  0  0  0  0  0  0  0  0
   -6.1343    1.0642    0.0289 H   0  0  0  0  0  0  0  0  0  0  0  0
   -6.9346   -0.5725    0.3767 H   0  0  0  0  0  0  0  0  0  0  0  0
   -7.0934    0.8407    1.5177 H   0  0  0  0  0  0  0  0  0  0  0  0
   -4.4838    1.9929    1.6497 H   0  0  0  0  0  0  0  0  0  0  0  0
   -5.6050    1.5029    2.9326 H   0  0  0  0  0  0  0  0  0  0  0  0
   -3.9242    0.9341    3.0585 H   0  0  0  0  0  0  0  0  0  0  0  0
   -5.1304   -0.8218    3.4353 H   0  0  0  0  0  0  0  0  0  0  0  0
   -3.4257    1.9697   -1.8572 H   0  0  0  0  0  0  0  0  0  0  0  0
   -4.7841    2.3751   -3.8680 H   0  0  0  0  0  0  0  0  0  0  0  0
   -6.3988    0.7634   -4.6088 H   0  0  0  0  0  0  0  0  0  0  0  0
   -6.6975   -1.3497   -3.3156 H   0  0  0  0  0  0  0  0  0  0  0  0
   -5.3979   -1.7850   -1.3553 H   0  0  0  0  0  0  0  0  0  0  0  0
    1.0037    1.6216    0.6817 H   0  0  0  0  0  0  0  0  0  0  0  0
    3.2747    1.8906   -0.0744 H   0  0  0  0  0  0  0  0  0  0  0  0
    6.2431   -0.9325    1.7012 H   0  0  0  0  0  0  0  0  0  0  0  0
    8.4917   -1.8289    1.3465 H   0  0  0  0  0  0  0  0  0  0  0  0
    8.8771   -0.2420    2.0936 H   0  0  0  0  0  0  0  0  0  0  0  0
    9.6856   -0.7485    0.5066 H   0  0  0  0  0  0  0  0  0  0  0  0
  1  2  1  0
  2  3  2  0
  3  4  1  0
  4  5  1  0
  5  6  2  0
  6  7  1  0
  7  8  2  0
  8  9  1  0
  9 10  1  0
  9 11  1  0
 11 12  1  0
 12 13  1  0
 13 14  1  0
 14 15  1  1
 15 16  1  0
 16 17  1  0
 16 18  1  0
 16 19  1  0
 14 20  1  0
 20 21  2  0
 21 22  1  0
 22 23  2  0
 23 24  1  0
 24 25  2  0
 14 26  1  0
 26 27  1  0
 27 28  2  0
  8 29  1  0
 29 30  2  0
  4 31  2  0
 31 32  1  0
 32 33  1  0
 32 34  1  0
 34 35  2  0
 34  2  1  0
 30  5  1  0
 27 11  1  0
 25 20  1  0
  1 36  1  0
  1 37  1  0
  1 38  1  0
  3 39  1  0
  6 40  1  0
  7 41  1  0
  9 42  1  1
 10 43  1  0
 10 44  1  0
 10 45  1  0
 12 46  1  0
 12 47  1  0
 13 48  1  0
 13 49  1  0
 15 50  1  0
 15 51  1  0
 17 52  1  0
 17 53  1  0
 17 54  1  0
 18 55  1  0
 18 56  1  0
 18 57  1  0
 19 58  1  0
 21 59  1  0
 22 60  1  0
 23 61  1  0
 24 62  1  0
 25 63  1  0
 29 64  1  0
 30 65  1  0
 31 66  1  0
 33 67  1  0
 33 68  1  0
 33 69  1  0
M  END
$$$$
