@<TRIPOS>MOLECULE
*****
 69 72 0 0 0
SMALL
GASTEIGER

@<TRIPOS>ATOM
      1 C           7.2134    1.9595   -2.6092 C.3     1  UNL1       -0.0346
      2 C           6.9305    1.1542   -1.4076 C.ar    1  UNL1        0.0146
      3 C           5.6382    0.9680   -0.9785 C.ar    1  UNL1       -0.0446
      4 C           5.3486    0.2112    0.1541 C.ar    1  UNL1       -0.0013
      5 C           3.9939   -0.0019    0.6300 C.ar    1  UNL1       -0.0165
      6 C           3.6392   -1.1477    1.2748 C.ar    1  UNL1       -0.0537
      7 C           2.3354   -1.3368    1.7255 C.ar    1  UNL1       -0.0562
      8 C           1.3988   -0.3470    1.5120 C.ar    1  UNL1       -0.0271
      9 C          -0.0090   -0.5038    1.9764 C.3     1  UNL1        0.0515
     10 C          -0.3029   -1.9142    2.4050 C.3     1  UNL1       -0.0421
     11 N          -0.9118   -0.0870    0.9220 N.am    1  UNL1       -0.2605
     12 C          -0.9929   -0.7501   -0.3638 C.3     1  UNL1        0.0224
     13 C          -2.3725   -1.1370   -0.7594 C.3     1  UNL1        0.0076
     14 C          -3.4553   -0.1734   -0.2734 C.3     1  UNL1        0.1440
     15 C          -4.1264   -0.8010    0.8829 C.3     1  UNL1        0.0199
     16 C          -5.1960   -0.0738    1.5816 C.3     1  UNL1        0.0645
     17 C          -6.3992    0.3063    0.7886 C.3     1  UNL1       -0.0362
     18 C          -4.7228    1.1609    2.3233 C.3     1  UNL1       -0.0362
     19 O          -5.6666   -0.9383    2.6084 O.3     1  UNL1       -0.3890
     20 C          -4.2941    0.0886   -1.4562 C.ar    1  UNL1       -0.0040
     21 C          -4.1372    1.2359   -2.1649 C.ar    1  UNL1       -0.0548
     22 C          -4.8954    1.4568   -3.2831 C.ar    1  UNL1       -0.0614
     23 C          -5.8159    0.5380   -3.7053 C.ar    1  UNL1       -0.0617
     24 C          -5.9879   -0.6273   -3.0012 C.ar    1  UNL1       -0.0614
     25 C          -5.2096   -0.8426   -1.8625 C.ar    1  UNL1       -0.0548
     26 O          -2.8684    1.0523    0.1873 O.3     1  UNL1       -0.4387
     27 C          -1.8061    1.0344    1.0811 C.2     1  UNL1        0.4042
     28 O          -1.5771    1.8693    1.9648 O.2     1  UNL1       -0.2262
     29 C           1.7241    0.8222    0.8641 C.ar    1  UNL1       -0.0562
     30 C           3.0299    0.9681    0.4335 C.ar    1  UNL1       -0.0537
     31 C           6.4238   -0.3345    0.8123 C.ar    1  UNL1        0.0153
     32 N           7.7016   -0.1537    0.3927 N.ar    1  UNL1       -0.3175
     33 C           8.7721   -0.7563    1.1340 C.3     1  UNL1        0.0147
     34 C           7.9663    0.5870   -0.7133 C.ar    1  UNL1        0.2540
     35 O           9.1830    0.7327   -1.0745 O.2     1  UNL1       -0.2674
     36 H           7.0731    1.3660   -3.5196 H       1  UNL1        0.0279
     37 H           6.4450    2.7855   -2.6494 H       1  UNL1        0.0279
     38 H           8.1987    2.4683   -2.5686 H       1  UNL1        0.0279
     39 H           4.7843    1.4031   -1.5036 H       1  UNL1        0.0628
     40 H           4.3449   -1.9341    1.4549 H       1  UNL1        0.0624
     41 H           2.0684   -2.2664    2.2431 H       1  UNL1        0.0621
     42 H          -0.1276    0.1455    2.8490 H       1  UNL1        0.0549
     43 H          -1.3587   -1.9657    2.7053 H       1  UNL1        0.0251
     44 H          -0.1207   -2.6586    1.6301 H       1  UNL1        0.0251
     45 H           0.3226   -2.1505    3.2928 H       1  UNL1        0.0251
     46 H          -0.5545   -0.0438   -1.1097 H       1  UNL1        0.0467
     47 H          -0.3545   -1.6568   -0.4055 H       1  UNL1        0.0467
     48 H          -2.3829   -1.2746   -1.8591 H       1  UNL1        0.0322
     49 H          -2.5564   -2.1715   -0.3440 H       1  UNL1        0.0322
     50 H          -4.5829   -1.7694    0.5049 H       1  UNL1        0.0335
     51 H          -3.3170   -1.1708    1.5681 H       1  UNL1        0.0335
     52 H          -6.1343    1.0642    0.0289 H       1  UNL1        0.0257
     53 H          -6.9346   -0.5725    0.3767 H       1  UNL1        0.0257
     54 H          -7.0934    0.8407    1.5177 H       1  UNL1        0.0257
     55 H          -4.4838    1.9929    1.6497 H       1  UNL1        0.0257
     56 H          -5.6050    1.5029    2.9326 H       1  UNL1        0.0257
     57 H          -3.9242    0.9341    3.0585 H       1  UNL1        0.0257
     58 H          -5.1304   -0.8218    3.4353 H       1  UNL1        0.2101
     59 H          -3.4257    1.9697   -1.8572 H       1  UNL1        0.0622
     60 H          -4.7841    2.3751   -3.8680 H       1  UNL1        0.0618
     61 H          -6.3988    0.7634   -4.6088 H       1  UNL1        0.0618
     62 H          -6.6975   -1.3497   -3.3156 H       1  UNL1        0.0618
     63 H          -5.3979   -1.7850   -1.3553 H       1  UNL1        0.0622
     64 H           1.0037    1.6216    0.6817 H       1  UNL1        0.0621
     65 H           3.2747    1.8906   -0.0744 H       1  UNL1        0.0624
     66 H           6.2431   -0.9325    1.7012 H       1  UNL1        0.0816
     67 H           8.4917   -1.8289    1.3465 H       1  UNL1        0.0457
     68 H           8.8771   -0.2420    2.0936 H       1  UNL1        0.0457
     69 H           9.6856   -0.7485    0.5066 H       1  UNL1        0.0457
@<TRIPOS>BOND
     1     1     2    1
     2     2     3   ar
     3     3     4   ar
     4     4     5    1
     5     5     6   ar
     6     6     7   ar
     7     7     8   ar
     8     8     9    1
     9     9    10    1
    10     9    11    1
    11    11    12    1
    12    12    13    1
    13    13    14    1
    14    14    15    1
    15    15    16    1
    16    16    17    1
    17    16    18    1
    18    16    19    1
    19    14    20    1
    20    20    21   ar
    21    21    22   ar
    22    22    23   ar
    23    23    24   ar
    24    24    25   ar
    25    14    26    1
    26    26    27    1
    27    27    28    2
    28     8    29   ar
    29    29    30   ar
    30     4    31   ar
    31    31    32   ar
    32    32    33    1
    33    32    34   ar
    34    34    35    2
    35    34     2   ar
    36    30     5   ar
    37    27    11   am
    38    25    20   ar
    39     1    36    1
    40     1    37    1
    41     1    38    1
    42     3    39    1
    43     6    40    1
    44     7    41    1
    45     9    42    1
    46    10    43    1
    47    10    44    1
    48    10    45    1
    49    12    46    1
    50    12    47    1
    51    13    48    1
    52    13    49    1
    53    15    50    1
    54    15    51    1
    55    17    52    1
    56    17    53    1
    57    17    54    1
    58    18    55    1
    59    18    56    1
    60    18    57    1
    61    19    58    1
    62    21    59    1
    63    22    60    1
    64    23    61    1
    65    24    62    1
    66    25    63    1
    67    29    64    1
    68    30    65    1
    69    31    66    1
    70    33    67    1
    71    33    68    1
    72    33    69    1
