@<TRIPOS>MOLECULE
*****
 40 43 0 0 0
SMALL
GASTEIGER

@<TRIPOS>ATOM
      1 C          -4.8957   -2.2784   -1.3068 C.3     1  UNL1        0.0790
      2 O          -4.8995   -0.9699   -0.7847 O.3     1  UNL1       -0.4914
      3 C          -3.7544   -0.2595   -0.5372 C.ar    1  UNL1        0.1618
      4 C          -2.5329   -0.8216   -0.7963 C.ar    1  UNL1       -0.0122
      5 C          -1.3557   -0.1269   -0.5558 C.ar    1  UNL1       -0.0300
      6 C          -1.3648    1.1544   -0.0479 C.ar    1  UNL1        0.0096
      7 C          -2.5951    1.7212    0.2134 C.ar    1  UNL1       -0.0068
      8 C          -3.7746    1.0217   -0.0288 C.ar    1  UNL1        0.1621
      9 O          -5.0154    1.5723    0.2263 O.3     1  UNL1       -0.4914
     10 C          -5.0870    2.8816    0.7518 C.3     1  UNL1        0.0790
     11 C           0.0296    1.5580    0.0616 C.ar    1  UNL1        0.0982
     12 N           0.8182    2.5800    0.4282 N.ar    1  UNL1       -0.1720
     13 N           2.0924    2.2340    0.2400 N.ar    1  UNL1       -0.2632
     14 C           2.1975    0.9898   -0.2509 C.ar    1  UNL1        0.1224
     15 N           3.3216    0.2110   -0.6209 N.pl3   1  UNL1       -0.2995
     16 C           4.0461   -0.5299    0.3456 C.ar    1  UNL1        0.0351
     17 C           5.0708   -1.3838   -0.0413 C.ar    1  UNL1       -0.0403
     18 C           5.8032   -2.1119    0.8732 C.ar    1  UNL1       -0.0573
     19 C           5.4842   -1.9655    2.2066 C.ar    1  UNL1       -0.0263
     20 C           4.4707   -1.1206    2.5900 C.ar    1  UNL1        0.1252
     21 F           4.1764   -0.9942    3.9085 F       1  UNL1       -0.2054
     22 C           3.7343   -0.3888    1.6671 C.ar    1  UNL1       -0.0052
     23 C           0.8668    0.5603   -0.3634 C.ar    1  UNL1        0.0240
     24 C           0.0386   -0.5906   -0.7780 C.3     1  UNL1        0.0037
     25 H          -4.1726   -2.8620   -0.6720 H       1  UNL1        0.0660
     26 H          -4.4448   -2.2142   -2.3235 H       1  UNL1        0.0660
     27 H          -5.8891   -2.7482   -1.3061 H       1  UNL1        0.0660
     28 H          -2.4887   -1.8449   -1.2043 H       1  UNL1        0.0658
     29 H          -2.6298    2.7447    0.6203 H       1  UNL1        0.0662
     30 H          -4.4678    3.5379    0.0895 H       1  UNL1        0.0660
     31 H          -4.6331    2.9727    1.7576 H       1  UNL1        0.0660
     32 H          -6.1362    3.2814    0.7124 H       1  UNL1        0.0660
     33 H           2.9448    2.8377    0.4411 H       1  UNL1        0.1903
     34 H           3.6590    0.1508   -1.6192 H       1  UNL1        0.1536
     35 H           5.3013   -1.4828   -1.0827 H       1  UNL1        0.0636
     36 H           6.6076   -2.7840    0.5639 H       1  UNL1        0.0619
     37 H           6.0362   -2.5168    2.9332 H       1  UNL1        0.0646
     38 H           2.9636    0.2451    2.0432 H       1  UNL1        0.0665
     39 H           0.2499   -1.5076   -0.2153 H       1  UNL1        0.0363
     40 H           0.2244   -0.7523   -1.8656 H       1  UNL1        0.0363
@<TRIPOS>BOND
     1     1     2    1
     2     2     3    1
     3     3     4   ar
     4     4     5   ar
     5     5     6   ar
     6     6     7   ar
     7     7     8   ar
     8     8     9    1
     9     9    10    1
    10     6    11    1
    11    11    12   ar
    12    12    13   ar
    13    13    14   ar
    14    14    15    1
    15    15    16    1
    16    16    17   ar
    17    17    18   ar
    18    18    19   ar
    19    19    20   ar
    20    20    21    1
    21    20    22   ar
    22    14    23   ar
    23    23    24    1
    24     8     3   ar
    25    23    11   ar
    26    24     5    1
    27    22    16   ar
    28     1    25    1
    29     1    26    1
    30     1    27    1
    31     4    28    1
    32     7    29    1
    33    10    30    1
    34    10    31    1
    35    10    32    1
    36    13    33    1
    37    15    34    1
    38    17    35    1
    39    18    36    1
    40    19    37    1
    41    22    38    1
    42    24    39    1
    43    24    40    1
