
     RDKit          3D

 40 43  0  0  0  0  0  0  0  0999 V2000
   -4.8957   -2.2784   -1.3068 C   0  0  0  0  0  0  0  0  0  0  0  0
   -4.8995   -0.9699   -0.7847 O   0  0  0  0  0  0  0  0  0  0  0  0
   -3.7544   -0.2595   -0.5372 C   0  0  0  0  0  0  0  0  0  0  0  0
   -2.5329   -0.8216   -0.7963 C   0  0  0  0  0  0  0  0  0  0  0  0
   -1.3557   -0.1269   -0.5558 C   0  0  0  0  0  0  0  0  0  0  0  0
   -1.3648    1.1544   -0.0479 C   0  0  0  0  0  0  0  0  0  0  0  0
   -2.5951    1.7212    0.2134 C   0  0  0  0  0  0  0  0  0  0  0  0
   -3.7746    1.0217   -0.0288 C   0  0  0  0  0  0  0  0  0  0  0  0
   -5.0154    1.5723    0.2263 O   0  0  0  0  0  0  0  0  0  0  0  0
   -5.0870    2.8816    0.7518 C   0  0  0  0  0  0  0  0  0  0  0  0
    0.0296    1.5580    0.0616 C   0  0  0  0  0  0  0  0  0  0  0  0
    0.8182    2.5800    0.4282 N   0  0  0  0  0  0  0  0  0  0  0  0
    2.0924    2.2340    0.2400 N   0  0  0  0  0  0  0  0  0  0  0  0
    2.1975    0.9898   -0.2509 C   0  0  0  0  0  0  0  0  0  0  0  0
    3.3216    0.2110   -0.6209 N   0  0  0  0  0  0  0  0  0  0  0  0
    4.0461   -0.5299    0.3456 C   0  0  0  0  0  0  0  0  0  0  0  0
    5.0708   -1.3838   -0.0413 C   0  0  0  0  0  0  0  0  0  0  0  0
    5.8032   -2.1119    0.8732 C   0  0  0  0  0  0  0  0  0  0  0  0
    5.4842   -1.9655    2.2066 C   0  0  0  0  0  0  0  0  0  0  0  0
    4.4707   -1.1206    2.5900 C   0  0  0  0  0  0  0  0  0  0  0  0
    4.1764   -0.9942    3.9085 F   0  0  0  0  0  0  0  0  0  0  0  0
    3.7343   -0.3888    1.6671 C   0  0  0  0  0  0  0  0  0  0  0  0
    0.8668    0.5603   -0.3634 C   0  0  0  0  0  0  0  0  0  0  0  0
    0.0386   -0.5906   -0.7780 C   0  0  0  0  0  0  0  0  0  0  0  0
   -4.1726   -2.8620   -0.6720 H   0  0  0  0  0  0  0  0  0  0  0  0
   -4.4448   -2.2142   -2.3235 H   0  0  0  0  0  0  0  0  0  0  0  0
   -5.8891   -2.7482   -1.3061 H   0  0  0  0  0  0  0  0  0  0  0  0
   -2.4887   -1.8449   -1.2043 H   0  0  0  0  0  0  0  0  0  0  0  0
   -2.6298    2.7447    0.6203 H   0  0  0  0  0  0  0  0  0  0  0  0
   -4.4678    3.5379    0.0895 H   0  0  0  0  0  0  0  0  0  0  0  0
   -4.6331    2.9727    1.7576 H   0  0  0  0  0  0  0  0  0  0  0  0
   -6.1362    3.2814    0.7124 H   0  0  0  0  0  0  0  0  0  0  0  0
    2.9448    2.8377    0.4411 H   0  0  0  0  0  0  0  0  0  0  0  0
    3.6590    0.1508   -1.6192 H   0  0  0  0  0  0  0  0  0  0  0  0
    5.3013   -1.4828   -1.0827 H   0  0  0  0  0  0  0  0  0  0  0  0
    6.6076   -2.7840    0.5639 H   0  0  0  0  0  0  0  0  0  0  0  0
    6.0362   -2.5168    2.9332 H   0  0  0  0  0  0  0  0  0  0  0  0
    2.9636    0.2451    2.0432 H   0  0  0  0  0  0  0  0  0  0  0  0
    0.2499   -1.5076   -0.2153 H   0  0  0  0  0  0  0  0  0  0  0  0
    0.2244   -0.7523   -1.8656 H   0  0  0  0  0  0  0  0  0  0  0  0
  1  2  1  0
  2  3  1  0
  3  4  2  0
  4  5  1  0
  5  6  2  0
  6  7  1  0
  7  8  2  0
  8  9  1  0
  9 10  1  0
  6 11  1  0
 11 12  2  0
 12 13  1  0
 13 14  1  0
 14 15  1  0
 15 16  1  0
 16 17  2  0
 17 18  1  0
 18 19  2  0
 19 20  1  0
 20 21  1  0
 20 22  2  0
 14 23  2  0
 23 24  1  0
  8  3  1  0
 23 11  1  0
 24  5  1  0
 22 16  1  0
  1 25  1  0
  1 26  1  0
  1 27  1  0
  4 28  1  0
  7 29  1  0
 10 30  1  0
 10 31  1  0
 10 32  1  0
 13 33  1  0
 15 34  1  0
 17 35  1  0
 18 36  1  0
 19 37  1  0
 22 38  1  0
 24 39  1  0
 24 40  1  0
M  END
$$$$
