
     RDKit          3D

 53 56  0  0  0  0  0  0  0  0999 V2000
   -1.4387   -1.9757    0.7698 O   0  0  0  0  0  0  0  0  0  0  0  0
   -0.9810   -0.9036    0.2994 C   0  0  0  0  0  0  0  0  0  0  0  0
   -1.9243    0.0566   -0.1488 N   0  0  0  0  0  0  0  0  0  0  0  0
   -3.3274   -0.2018   -0.0610 C   0  0  1  0  0  0  0  0  0  0  0  0
   -3.9512    0.8838    0.7913 C   0  0  0  0  0  0  0  0  0  0  0  0
   -5.3417    0.4548    1.1446 C   0  0  0  0  0  0  0  0  0  0  0  0
   -5.8342   -0.6681    0.2937 C   0  0  1  0  0  0  0  0  0  0  0  0
   -7.3669   -0.6463    0.3675 C   0  0  0  0  0  0  0  0  0  0  0  0
   -7.8056   -0.8143    1.6812 O   0  0  0  0  0  0  0  0  0  0  0  0
   -5.4723   -0.5417   -1.1586 C   0  0  0  0  0  0  0  0  0  0  0  0
   -4.0320   -0.1890   -1.3907 C   0  0  0  0  0  0  0  0  0  0  0  0
    0.4618   -0.6683    0.2228 C   0  0  0  0  0  0  0  0  0  0  0  0
    0.8284    0.5652    1.0382 C   0  0  0  0  0  0  0  0  0  0  0  0
    2.3251    0.4433    1.3190 C   0  0  0  0  0  0  0  0  0  0  0  0
    2.9650    0.3805    0.0051 N   0  0  0  0  0  0  0  0  0  0  0  0
    4.3801    0.3614   -0.0235 C   0  0  0  0  0  0  0  0  0  0  0  0
    5.2474    0.3943    1.0327 N   0  0  0  0  0  0  0  0  0  0  0  0
    6.4987    0.3594    0.5724 C   0  0  0  0  0  0  0  0  0  0  0  0
    7.7159    0.3694    1.1837 C   0  0  0  0  0  0  0  0  0  0  0  0
    8.8577    0.3232    0.4196 C   0  0  0  0  0  0  0  0  0  0  0  0
   10.4430    0.3347    1.1793 Cl  0  0  0  0  0  0  0  0  0  0  0  0
    8.8177    0.2665   -0.9576 C   0  0  0  0  0  0  0  0  0  0  0  0
    7.5586    0.2581   -1.5414 C   0  0  0  0  0  0  0  0  0  0  0  0
    6.4005    0.3037   -0.7963 C   0  0  0  0  0  0  0  0  0  0  0  0
    5.1103    0.3073   -1.1040 O   0  0  0  0  0  0  0  0  0  0  0  0
    2.2250    0.3394   -1.2140 C   0  0  0  0  0  0  0  0  0  0  0  0
    0.9735   -0.4759   -1.1656 C   0  0  0  0  0  0  0  0  0  0  0  0
   -1.6313    0.9847   -0.5581 H   0  0  0  0  0  0  0  0  0  0  0  0
   -3.5172   -1.2121    0.3873 H   0  0  0  0  0  0  0  0  0  0  0  0
   -4.0370    1.7905    0.1361 H   0  0  0  0  0  0  0  0  0  0  0  0
   -3.3243    1.1079    1.6761 H   0  0  0  0  0  0  0  0  0  0  0  0
   -5.2997    0.0691    2.2046 H   0  0  0  0  0  0  0  0  0  0  0  0
   -6.0406    1.3171    1.1827 H   0  0  0  0  0  0  0  0  0  0  0  0
   -5.5383   -1.6679    0.6623 H   0  0  0  0  0  0  0  0  0  0  0  0
   -7.8104   -1.3966   -0.3179 H   0  0  0  0  0  0  0  0  0  0  0  0
   -7.7545    0.3562    0.0285 H   0  0  0  0  0  0  0  0  0  0  0  0
   -7.1553   -1.3619    2.1716 H   0  0  0  0  0  0  0  0  0  0  0  0
   -6.1766    0.2113   -1.6064 H   0  0  0  0  0  0  0  0  0  0  0  0
   -5.7454   -1.5159   -1.6428 H   0  0  0  0  0  0  0  0  0  0  0  0
   -3.6148   -0.9040   -2.1085 H   0  0  0  0  0  0  0  0  0  0  0  0
   -4.0173    0.8679   -1.7671 H   0  0  0  0  0  0  0  0  0  0  0  0
    1.0083   -1.5177    0.6823 H   0  0  0  0  0  0  0  0  0  0  0  0
    0.2370    0.6432    1.9580 H   0  0  0  0  0  0  0  0  0  0  0  0
    0.7218    1.4561    0.3760 H   0  0  0  0  0  0  0  0  0  0  0  0
    2.7000    1.2608    1.9364 H   0  0  0  0  0  0  0  0  0  0  0  0
    2.4621   -0.5601    1.7775 H   0  0  0  0  0  0  0  0  0  0  0  0
    7.8148    0.4127    2.2550 H   0  0  0  0  0  0  0  0  0  0  0  0
    9.7208    0.2303   -1.5538 H   0  0  0  0  0  0  0  0  0  0  0  0
    7.4925    0.2138   -2.6276 H   0  0  0  0  0  0  0  0  0  0  0  0
    2.0353    1.3786   -1.6055 H   0  0  0  0  0  0  0  0  0  0  0  0
    2.8799   -0.1260   -2.0046 H   0  0  0  0  0  0  0  0  0  0  0  0
    0.1884    0.0910   -1.7463 H   0  0  0  0  0  0  0  0  0  0  0  0
    1.0681   -1.4461   -1.6985 H   0  0  0  0  0  0  0  0  0  0  0  0
  1  2  2  0
  2  3  1  0
  3  4  1  0
  4  5  1  0
  5  6  1  0
  6  7  1  0
  7  8  1  0
  8  9  1  0
  7 10  1  0
 10 11  1  0
  2 12  1  0
 12 13  1  0
 13 14  1  0
 14 15  1  0
 15 16  1  0
 16 17  2  0
 17 18  1  0
 18 19  2  0
 19 20  1  0
 20 21  1  0
 20 22  2  0
 22 23  1  0
 23 24  2  0
 24 25  1  0
 15 26  1  0
 26 27  1  0
 11  4  1  0
 27 12  1  0
 25 16  1  0
 24 18  1  0
  3 28  1  0
  4 29  1  1
  5 30  1  0
  5 31  1  0
  6 32  1  0
  6 33  1  0
  7 34  1  1
  8 35  1  0
  8 36  1  0
  9 37  1  0
 10 38  1  0
 10 39  1  0
 11 40  1  0
 11 41  1  0
 12 42  1  0
 13 43  1  0
 13 44  1  0
 14 45  1  0
 14 46  1  0
 19 47  1  0
 22 48  1  0
 23 49  1  0
 26 50  1  0
 26 51  1  0
 27 52  1  0
 27 53  1  0
M  END
$$$$
