@<TRIPOS>MOLECULE
*****
 53 56 0 0 0
SMALL
GASTEIGER

@<TRIPOS>ATOM
      1 O          -1.4387   -1.9757    0.7698 O.2     1  UNL1       -0.2755
      2 C          -0.9810   -0.9036    0.2994 C.2     1  UNL1        0.2164
      3 N          -1.9243    0.0566   -0.1488 N.am    1  UNL1       -0.3122
      4 C          -3.3274   -0.2018   -0.0610 C.3     1  UNL1        0.0231
      5 C          -3.9512    0.8838    0.7913 C.3     1  UNL1       -0.0342
      6 C          -5.3417    0.4548    1.1446 C.3     1  UNL1       -0.0465
      7 C          -5.8342   -0.6681    0.2937 C.3     1  UNL1       -0.0177
      8 C          -7.3669   -0.6463    0.3675 C.3     1  UNL1        0.0470
      9 O          -7.8056   -0.8143    1.6812 O.3     1  UNL1       -0.3947
     10 C          -5.4723   -0.5417   -1.1586 C.3     1  UNL1       -0.0465
     11 C          -4.0320   -0.1890   -1.3907 C.3     1  UNL1       -0.0342
     12 C           0.4618   -0.6683    0.2228 C.3     1  UNL1        0.0384
     13 C           0.8284    0.5652    1.0382 C.3     1  UNL1       -0.0259
     14 C           2.3251    0.4433    1.3190 C.3     1  UNL1        0.0170
     15 N           2.9650    0.3805    0.0051 N.pl3   1  UNL1       -0.2850
     16 C           4.3801    0.3614   -0.0235 C.ar    1  UNL1        0.2911
     17 N           5.2474    0.3943    1.0327 N.ar    1  UNL1       -0.1953
     18 C           6.4987    0.3594    0.5724 C.ar    1  UNL1        0.1126
     19 C           7.7159    0.3694    1.1837 C.ar    1  UNL1       -0.0142
     20 C           8.8577    0.3232    0.4196 C.ar    1  UNL1        0.0432
     21 CL         10.4430    0.3347    1.1793 Cl      1  UNL1       -0.0835
     22 C           8.8177    0.2665   -0.9576 C.ar    1  UNL1       -0.0398
     23 C           7.5586    0.2581   -1.5414 C.ar    1  UNL1       -0.0157
     24 C           6.4005    0.3037   -0.7963 C.ar    1  UNL1        0.1571
     25 O           5.1103    0.3073   -1.1040 O.2     1  UNL1       -0.4244
     26 C           2.2250    0.3394   -1.2140 C.3     1  UNL1        0.0170
     27 C           0.9735   -0.4759   -1.1656 C.3     1  UNL1       -0.0259
     28 H          -1.6313    0.9847   -0.5581 H       1  UNL1        0.1490
     29 H          -3.5172   -1.2121    0.3873 H       1  UNL1        0.0498
     30 H          -4.0370    1.7905    0.1361 H       1  UNL1        0.0283
     31 H          -3.3243    1.1079    1.6761 H       1  UNL1        0.0283
     32 H          -5.2997    0.0691    2.2046 H       1  UNL1        0.0269
     33 H          -6.0406    1.3171    1.1827 H       1  UNL1        0.0269
     34 H          -5.5383   -1.6679    0.6623 H       1  UNL1        0.0323
     35 H          -7.8104   -1.3966   -0.3179 H       1  UNL1        0.0560
     36 H          -7.7545    0.3562    0.0285 H       1  UNL1        0.0560
     37 H          -7.1553   -1.3619    2.1716 H       1  UNL1        0.2094
     38 H          -6.1766    0.2113   -1.6064 H       1  UNL1        0.0269
     39 H          -5.7454   -1.5159   -1.6428 H       1  UNL1        0.0269
     40 H          -3.6148   -0.9040   -2.1085 H       1  UNL1        0.0283
     41 H          -4.0173    0.8679   -1.7671 H       1  UNL1        0.0283
     42 H           1.0083   -1.5177    0.6823 H       1  UNL1        0.0395
     43 H           0.2370    0.6432    1.9580 H       1  UNL1        0.0288
     44 H           0.7218    1.4561    0.3760 H       1  UNL1        0.0288
     45 H           2.7000    1.2608    1.9364 H       1  UNL1        0.0465
     46 H           2.4621   -0.5601    1.7775 H       1  UNL1        0.0465
     47 H           7.8148    0.4127    2.2550 H       1  UNL1        0.0654
     48 H           9.7208    0.2303   -1.5538 H       1  UNL1        0.0633
     49 H           7.4925    0.2138   -2.6276 H       1  UNL1        0.0655
     50 H           2.0353    1.3786   -1.6055 H       1  UNL1        0.0465
     51 H           2.8799   -0.1260   -2.0046 H       1  UNL1        0.0465
     52 H           0.1884    0.0910   -1.7463 H       1  UNL1        0.0288
     53 H           1.0681   -1.4461   -1.6985 H       1  UNL1        0.0288
@<TRIPOS>BOND
     1     1     2    2
     2     2     3   am
     3     3     4    1
     4     4     5    1
     5     5     6    1
     6     6     7    1
     7     7     8    1
     8     8     9    1
     9     7    10    1
    10    10    11    1
    11     2    12    1
    12    12    13    1
    13    13    14    1
    14    14    15    1
    15    15    16    1
    16    16    17   ar
    17    17    18   ar
    18    18    19   ar
    19    19    20   ar
    20    20    21    1
    21    20    22   ar
    22    22    23   ar
    23    23    24   ar
    24    24    25   ar
    25    15    26    1
    26    26    27    1
    27    11     4    1
    28    27    12    1
    29    25    16   ar
    30    24    18   ar
    31     3    28    1
    32     4    29    1
    33     5    30    1
    34     5    31    1
    35     6    32    1
    36     6    33    1
    37     7    34    1
    38     8    35    1
    39     8    36    1
    40     9    37    1
    41    10    38    1
    42    10    39    1
    43    11    40    1
    44    11    41    1
    45    12    42    1
    46    13    43    1
    47    13    44    1
    48    14    45    1
    49    14    46    1
    50    19    47    1
    51    22    48    1
    52    23    49    1
    53    26    50    1
    54    26    51    1
    55    27    52    1
    56    27    53    1
