@<TRIPOS>MOLECULE
*****
 132 139 0 0 0
SMALL
GASTEIGER

@<TRIPOS>ATOM
      1 C         -10.0282    1.2389   -4.3568 C.3     1  UNL1       -0.0437
      2 C         -10.6417    1.0213   -3.0079 C.2     1  UNL1       -0.0739
      3 C         -11.8931    1.3113   -2.7447 C.2     1  UNL1       -0.0812
      4 C         -12.2482    1.8785   -1.4261 C.3     1  UNL1       -0.0122
      5 C         -13.1916    0.9804   -0.6444 C.3     1  UNL1       -0.0055
      6 C         -12.4383   -0.1760   -0.0856 C.ar    1  UNL1        0.0248
      7 N         -13.2225   -1.2003    0.3689 N.ar    1  UNL1       -0.3259
      8 C         -12.6688   -2.3125    0.8680 C.ar    1  UNL1        0.2489
      9 O         -13.4120   -3.2495    1.2839 O.2     1  UNL1       -0.2679
     10 C         -11.2962   -2.4508    0.9353 C.ar    1  UNL1        0.0031
     11 C         -10.5025   -1.4117    0.4748 C.ar    1  UNL1       -0.0498
     12 C         -11.0949   -0.2791   -0.0332 C.ar    1  UNL1       -0.0039
     13 C         -10.1948    0.8132   -0.5595 C.3     1  UNL1        0.0710
     14 C          -9.7456    0.4362   -1.9269 C.3     1  UNL1       -0.0059
     15 C         -10.9769    2.1188   -0.6871 C.3     1  UNL1       -0.0083
     16 C         -11.1292    2.8969    0.5610 C.3     1  UNL1       -0.0460
     17 C         -11.0429    2.0677    1.8168 C.3     1  UNL1       -0.0368
     18 C          -9.8756    1.1580    1.8278 C.3     1  UNL1        0.0156
     19 N          -9.2255    1.0709    0.4600 N.am    1  UNL1       -0.2910
     20 C          -7.8336    1.2951    0.4295 C.2     1  UNL1        0.2175
     21 O          -7.3598    1.5570    1.6165 O.2     1  UNL1       -0.2755
     22 C          -6.8982    1.2824   -0.6555 C.3     1  UNL1        0.0369
     23 C          -5.4739    1.6341   -0.4534 C.3     1  UNL1        0.0069
     24 N          -4.5936    0.8973    0.3378 N.3     1  UNL1       -0.3049
     25 C          -4.6965    0.9078    1.7532 C.3     1  UNL1       -0.0127
     26 C          -4.4958   -0.5026   -0.1196 C.3     1  UNL1       -0.0014
     27 C          -3.3889   -1.1822    0.6098 C.3     1  UNL1       -0.0402
     28 C          -2.0412   -0.5486    0.2988 C.3     1  UNL1       -0.0519
     29 C          -0.9179   -1.1971    1.0524 C.3     1  UNL1       -0.0530
     30 C          -0.7650   -2.6720    0.7556 C.3     1  UNL1       -0.0531
     31 C           0.3677   -3.2783    1.5311 C.3     1  UNL1       -0.0531
     32 C           1.6792   -2.6250    1.1926 C.3     1  UNL1       -0.0530
     33 C           2.0316   -2.7820   -0.2520 C.3     1  UNL1       -0.0519
     34 C           3.3500   -2.1369   -0.5986 C.3     1  UNL1       -0.0402
     35 C           4.4660   -2.7191    0.2123 C.3     1  UNL1       -0.0014
     36 N           5.7612   -2.1270   -0.1475 N.3     1  UNL1       -0.3049
     37 C           6.1136   -2.5888   -1.5028 C.3     1  UNL1       -0.0127
     38 C           5.6245   -0.6662   -0.2595 C.3     1  UNL1        0.0069
     39 C           7.0896   -0.1993   -0.5732 C.3     1  UNL1        0.0369
     40 C           7.9076   -0.6060    0.5592 C.2     1  UNL1        0.2175
     41 O           7.2760   -1.2476    1.5269 O.2     1  UNL1       -0.2755
     42 N           9.2841   -0.4509    0.8558 N.am    1  UNL1       -0.2910
     43 C           9.7372   -0.9519    2.1661 C.3     1  UNL1        0.0156
     44 C          11.0616   -1.6200    2.1728 C.3     1  UNL1       -0.0368
     45 C          12.0397   -0.6155    1.5461 C.3     1  UNL1       -0.0460
     46 C          11.5837   -0.5162    0.1039 C.3     1  UNL1       -0.0083
     47 C          12.6245    0.2133   -0.7118 C.3     1  UNL1       -0.0122
     48 C          12.1529    0.3227   -2.1105 C.2     1  UNL1       -0.0812
     49 C          10.9294    0.7356   -2.3511 C.2     1  UNL1       -0.0739
     50 C          10.5954    1.6922   -3.4626 C.3     1  UNL1       -0.0437
     51 C           9.8248    0.2210   -1.4662 C.3     1  UNL1       -0.0059
     52 C          10.2575    0.1726    0.0008 C.3     1  UNL1        0.0710
     53 C          10.4344    1.5924    0.4591 C.ar    1  UNL1       -0.0039
     54 C           9.3288    2.2570    0.9483 C.ar    1  UNL1       -0.0498
     55 C           9.4380    3.5718    1.3742 C.ar    1  UNL1        0.0031
     56 C          10.6751    4.1581    1.2849 C.ar    1  UNL1        0.2489
     57 O          10.7760    5.3636    1.6761 O.2     1  UNL1       -0.2679
     58 N          11.7285    3.4714    0.8008 N.ar    1  UNL1       -0.3259
     59 C          11.6409    2.1934    0.3819 C.ar    1  UNL1        0.0248
     60 C          12.9022    1.5854   -0.1152 C.3     1  UNL1       -0.0055
     61 H          -9.0760    1.8043   -4.1705 H       1  UNL1        0.0274
     62 H         -10.6710    1.8235   -5.0245 H       1  UNL1        0.0274
     63 H          -9.7410    0.2661   -4.7591 H       1  UNL1        0.0274
     64 H         -12.6442    1.1343   -3.4975 H       1  UNL1        0.0575
     65 H         -12.7519    2.8859   -1.5288 H       1  UNL1        0.0350
     66 H         -13.7592    1.5138    0.1260 H       1  UNL1        0.0333
     67 H         -13.8961    0.5554   -1.3832 H       1  UNL1        0.0333
     68 H         -14.2614   -1.1484    0.3408 H       1  UNL1        0.1686
     69 H         -10.8559   -3.3398    1.3324 H       1  UNL1        0.0672
     70 H          -9.4350   -1.5469    0.5383 H       1  UNL1        0.0623
     71 H          -9.9954   -0.6881   -2.0235 H       1  UNL1        0.0334
     72 H          -8.7271    0.5097   -2.2130 H       1  UNL1        0.0334
     73 H         -10.3314    2.7429   -1.3819 H       1  UNL1        0.0331
     74 H         -12.1310    3.3806    0.5439 H       1  UNL1        0.0269
     75 H         -10.3913    3.7445    0.6340 H       1  UNL1        0.0269
     76 H         -10.8611    2.8249    2.6459 H       1  UNL1        0.0280
     77 H         -12.0166    1.6196    2.0909 H       1  UNL1        0.0280
     78 H          -9.0844    1.4575    2.5567 H       1  UNL1        0.0465
     79 H         -10.1565    0.1471    2.0866 H       1  UNL1        0.0465
     80 H          -7.2879    1.9845   -1.4598 H       1  UNL1        0.0371
     81 H          -6.8913    0.2502   -1.1181 H       1  UNL1        0.0371
     82 H          -5.3670    2.7550   -0.2086 H       1  UNL1        0.0431
     83 H          -5.0197    1.6355   -1.5121 H       1  UNL1        0.0431
     84 H          -4.8630    1.8988    2.1816 H       1  UNL1        0.0391
     85 H          -3.6276    0.6679    2.1281 H       1  UNL1        0.0391
     86 H          -5.2773    0.0731    2.1726 H       1  UNL1        0.0391
     87 H          -5.4356   -1.0491    0.0827 H       1  UNL1        0.0426
     88 H          -4.3050   -0.5160   -1.1897 H       1  UNL1        0.0426
     89 H          -3.5332   -1.3121    1.6854 H       1  UNL1        0.0278
     90 H          -3.3098   -2.2340    0.1985 H       1  UNL1        0.0278
     91 H          -2.0774    0.5214    0.4391 H       1  UNL1        0.0266
     92 H          -1.8053   -0.7000   -0.7969 H       1  UNL1        0.0266
     93 H          -1.1259   -1.0967    2.1403 H       1  UNL1        0.0265
     94 H           0.0122   -0.6459    0.7767 H       1  UNL1        0.0265
     95 H          -0.5983   -2.7993   -0.3131 H       1  UNL1        0.0265
     96 H          -1.7184   -3.2142    1.0178 H       1  UNL1        0.0265
     97 H           0.4093   -4.3660    1.2760 H       1  UNL1        0.0265
     98 H           0.2249   -3.1751    2.6366 H       1  UNL1        0.0265
     99 H           2.4952   -3.1286    1.7946 H       1  UNL1        0.0265
    100 H           1.6629   -1.5735    1.5243 H       1  UNL1        0.0265
    101 H           1.2628   -2.3324   -0.9304 H       1  UNL1        0.0266
    102 H           2.1433   -3.8740   -0.4763 H       1  UNL1        0.0266
    103 H           3.2822   -1.0192   -0.4545 H       1  UNL1        0.0278
    104 H           3.5730   -2.3327   -1.6678 H       1  UNL1        0.0278
    105 H           4.5648   -3.7920    0.0515 H       1  UNL1        0.0426
    106 H           4.3432   -2.5239    1.2980 H       1  UNL1        0.0426
    107 H           5.4828   -3.4911   -1.7225 H       1  UNL1        0.0391
    108 H           5.8529   -1.8492   -2.2672 H       1  UNL1        0.0391
    109 H           7.1823   -2.8546   -1.5174 H       1  UNL1        0.0391
    110 H           5.3191   -0.1943    0.6667 H       1  UNL1        0.0431
    111 H           5.0729   -0.3767   -1.1609 H       1  UNL1        0.0431
    112 H           7.3408   -0.7070   -1.5110 H       1  UNL1        0.0371
    113 H           6.9611    0.9101   -0.6756 H       1  UNL1        0.0371
    114 H           8.9395   -1.6411    2.5502 H       1  UNL1        0.0465
    115 H           9.7696   -0.0948    2.8728 H       1  UNL1        0.0465
    116 H          11.3355   -1.7984    3.2359 H       1  UNL1        0.0280
    117 H          11.1113   -2.5345    1.5626 H       1  UNL1        0.0280
    118 H          11.9038    0.3189    2.1016 H       1  UNL1        0.0269
    119 H          13.0812   -0.9407    1.6379 H       1  UNL1        0.0269
    120 H          11.5336   -1.5617   -0.2883 H       1  UNL1        0.0331
    121 H          13.5386   -0.4233   -0.7142 H       1  UNL1        0.0350
    122 H          12.7707    0.0825   -2.9842 H       1  UNL1        0.0575
    123 H          10.4783    2.7226   -3.0610 H       1  UNL1        0.0274
    124 H           9.6051    1.3833   -3.8546 H       1  UNL1        0.0274
    125 H          11.3389    1.6416   -4.2587 H       1  UNL1        0.0274
    126 H           9.5386   -0.7742   -1.8050 H       1  UNL1        0.0334
    127 H           9.0064    0.9323   -1.5936 H       1  UNL1        0.0334
    128 H           8.3510    1.8174    1.0329 H       1  UNL1        0.0623
    129 H           8.5524    4.0852    1.7556 H       1  UNL1        0.0672
    130 H          12.6387    3.9878    0.7652 H       1  UNL1        0.1686
    131 H          13.3465    2.2812   -0.8477 H       1  UNL1        0.0333
    132 H          13.6149    1.4867    0.7337 H       1  UNL1        0.0333
@<TRIPOS>BOND
     1     1     2    1
     2     2     3    2
     3     3     4    1
     4     4     5    1
     5     5     6    1
     6     6     7   ar
     7     7     8   ar
     8     8     9    2
     9     8    10   ar
    10    10    11   ar
    11    11    12   ar
    12    12    13    1
    13    13    14    1
    14    13    15    1
    15    15    16    1
    16    16    17    1
    17    17    18    1
    18    18    19    1
    19    19    20   am
    20    20    21    2
    21    20    22    1
    22    22    23    1
    23    23    24    1
    24    24    25    1
    25    24    26    1
    26    26    27    1
    27    27    28    1
    28    28    29    1
    29    29    30    1
    30    30    31    1
    31    31    32    1
    32    32    33    1
    33    33    34    1
    34    34    35    1
    35    35    36    1
    36    36    37    1
    37    36    38    1
    38    38    39    1
    39    39    40    1
    40    40    41    2
    41    40    42   am
    42    42    43    1
    43    43    44    1
    44    44    45    1
    45    45    46    1
    46    46    47    1
    47    47    48    1
    48    48    49    2
    49    49    50    1
    50    49    51    1
    51    51    52    1
    52    52    53    1
    53    53    54   ar
    54    54    55   ar
    55    55    56   ar
    56    56    57    2
    57    56    58   ar
    58    58    59   ar
    59    59    60    1
    60    14     2    1
    61    52    42    1
    62    59    53   ar
    63    15     4    1
    64    52    46    1
    65    12     6   ar
    66    13    19    1
    67    60    47    1
    68     1    61    1
    69     1    62    1
    70     1    63    1
    71     3    64    1
    72     4    65    1
    73     5    66    1
    74     5    67    1
    75     7    68    1
    76    10    69    1
    77    11    70    1
    78    14    71    1
    79    14    72    1
    80    15    73    1
    81    16    74    1
    82    16    75    1
    83    17    76    1
    84    17    77    1
    85    18    78    1
    86    18    79    1
    87    22    80    1
    88    22    81    1
    89    23    82    1
    90    23    83    1
    91    25    84    1
    92    25    85    1
    93    25    86    1
    94    26    87    1
    95    26    88    1
    96    27    89    1
    97    27    90    1
    98    28    91    1
    99    28    92    1
   100    29    93    1
   101    29    94    1
   102    30    95    1
   103    30    96    1
   104    31    97    1
   105    31    98    1
   106    32    99    1
   107    32   100    1
   108    33   101    1
   109    33   102    1
   110    34   103    1
   111    34   104    1
   112    35   105    1
   113    35   106    1
   114    37   107    1
   115    37   108    1
   116    37   109    1
   117    38   110    1
   118    38   111    1
   119    39   112    1
   120    39   113    1
   121    43   114    1
   122    43   115    1
   123    44   116    1
   124    44   117    1
   125    45   118    1
   126    45   119    1
   127    46   120    1
   128    47   121    1
   129    48   122    1
   130    50   123    1
   131    50   124    1
   132    50   125    1
   133    51   126    1
   134    51   127    1
   135    54   128    1
   136    55   129    1
   137    58   130    1
   138    60   131    1
   139    60   132    1
