@<TRIPOS>MOLECULE
*****
 55 58 0 0 0
SMALL
GASTEIGER

@<TRIPOS>ATOM
      1 C          -6.0108   -0.7783    1.6600 C.3     1  UNL1        0.0365
      2 O          -5.8715   -0.6528    0.3023 O.3     1  UNL1       -0.3814
      3 C          -5.8312    0.6493   -0.1747 C.3     1  UNL1        0.0645
      4 C          -4.6779    1.3701    0.4304 C.3     1  UNL1        0.0552
      5 C          -4.5470    2.7981   -0.0070 C.3     1  UNL1       -0.0323
      6 C          -3.1920    3.1338    0.6263 C.3     1  UNL1       -0.0370
      7 C          -2.4969    1.7929    0.7338 C.3     1  UNL1        0.0209
      8 N          -3.4017    0.8201    0.1776 N.3     1  UNL1       -0.1713
      9 S          -2.9831    0.4984   -1.4239 S.O2    1  UNL1        0.0612
     10 O          -2.9483    1.7173   -2.3148 O.2     1  UNL1       -0.1528
     11 O          -3.8736   -0.4947   -2.1047 O.2     1  UNL1       -0.1528
     12 C          -1.3513   -0.1806   -1.5059 C.ar    1  UNL1        0.1063
     13 C          -0.2564    0.6399   -1.7211 C.ar    1  UNL1       -0.0335
     14 C           1.0306    0.1510   -1.7907 C.ar    1  UNL1       -0.0377
     15 C           1.2527   -1.2168   -1.6410 C.ar    1  UNL1        0.0481
     16 C           0.1464   -2.0078   -1.4283 C.ar    1  UNL1        0.0502
     17 C          -1.1382   -1.5260   -1.3579 C.ar    1  UNL1       -0.0226
     18 C           0.6371   -3.3894   -1.3056 C.2     1  UNL1        0.2496
     19 O          -0.1045   -4.3894   -1.1042 O.2     1  UNL1       -0.2817
     20 C           2.0879   -3.3392   -1.4609 C.2     1  UNL1        0.2915
     21 O           2.8549   -4.3289   -1.4155 O.2     1  UNL1       -0.2661
     22 N           2.4416   -1.9868   -1.6667 N.am    1  UNL1       -0.2598
     23 C           3.7685   -1.4592   -1.8708 C.3     1  UNL1        0.0452
     24 C           4.4267   -1.0952   -0.5912 C.ar    1  UNL1       -0.0295
     25 C           5.1759   -2.0517    0.0621 C.ar    1  UNL1       -0.0536
     26 C           5.8052   -1.7427    1.2612 C.ar    1  UNL1       -0.0196
     27 C           5.6983   -0.4849    1.8234 C.ar    1  UNL1        0.1201
     28 O           6.3560   -0.2545    3.0222 O.3     1  UNL1       -0.4951
     29 C           6.2876    0.9986    3.6451 C.3     1  UNL1        0.0788
     30 C           4.9513    0.4716    1.1740 C.ar    1  UNL1       -0.0196
     31 C           4.3289    0.1537   -0.0192 C.ar    1  UNL1       -0.0536
     32 H          -6.0356   -1.8915    1.8639 H       1  UNL1        0.0523
     33 H          -6.9346   -0.3637    2.0790 H       1  UNL1        0.0523
     34 H          -5.0934   -0.4560    2.2398 H       1  UNL1        0.0523
     35 H          -5.8245    0.6067   -1.2671 H       1  UNL1        0.0576
     36 H          -6.7767    1.2040    0.0974 H       1  UNL1        0.0576
     37 H          -4.8186    1.4100    1.5431 H       1  UNL1        0.0502
     38 H          -4.4503    2.9673   -1.0770 H       1  UNL1        0.0282
     39 H          -5.3574    3.4496    0.3814 H       1  UNL1        0.0282
     40 H          -2.6271    3.8807    0.0653 H       1  UNL1        0.0279
     41 H          -3.4670    3.5456    1.6434 H       1  UNL1        0.0279
     42 H          -2.4288    1.5654    1.8202 H       1  UNL1        0.0444
     43 H          -1.5009    1.8081    0.2497 H       1  UNL1        0.0444
     44 H          -0.3910    1.7225   -1.8483 H       1  UNL1        0.0638
     45 H           1.8646    0.8135   -1.9593 H       1  UNL1        0.0637
     46 H          -1.9985   -2.1613   -1.1901 H       1  UNL1        0.0645
     47 H           4.4225   -2.2036   -2.4128 H       1  UNL1        0.0518
     48 H           3.7415   -0.5759   -2.5641 H       1  UNL1        0.0518
     49 H           5.2909   -3.0546   -0.3380 H       1  UNL1        0.0622
     50 H           6.3858   -2.4997    1.7592 H       1  UNL1        0.0654
     51 H           6.8741    0.9945    4.5895 H       1  UNL1        0.0660
     52 H           5.2385    1.2581    3.9551 H       1  UNL1        0.0660
     53 H           6.6730    1.8054    3.0011 H       1  UNL1        0.0660
     54 H           4.8884    1.4439    1.6409 H       1  UNL1        0.0654
     55 H           3.7601    0.9152   -0.4948 H       1  UNL1        0.0622
@<TRIPOS>BOND
     1     1     2    1
     2     2     3    1
     3     3     4    1
     4     4     5    1
     5     5     6    1
     6     6     7    1
     7     7     8    1
     8     8     9    1
     9     9    10    2
    10     9    11    2
    11     9    12    1
    12    12    13   ar
    13    13    14   ar
    14    14    15   ar
    15    15    16   ar
    16    16    17   ar
    17    16    18    1
    18    18    19    2
    19    18    20    1
    20    20    21    2
    21    20    22   am
    22    22    23    1
    23    23    24    1
    24    24    25   ar
    25    25    26   ar
    26    26    27   ar
    27    27    28    1
    28    28    29    1
    29    27    30   ar
    30    30    31   ar
    31     8     4    1
    32    17    12   ar
    33    31    24   ar
    34    22    15    1
    35     1    32    1
    36     1    33    1
    37     1    34    1
    38     3    35    1
    39     3    36    1
    40     4    37    1
    41     5    38    1
    42     5    39    1
    43     6    40    1
    44     6    41    1
    45     7    42    1
    46     7    43    1
    47    13    44    1
    48    14    45    1
    49    17    46    1
    50    23    47    1
    51    23    48    1
    52    25    49    1
    53    26    50    1
    54    29    51    1
    55    29    52    1
    56    29    53    1
    57    30    54    1
    58    31    55    1
