
     RDKit          3D

 65 70  0  0  0  0  0  0  0  0999 V2000
    3.3066   -3.4010    0.5951 C   0  0  0  0  0  0  0  0  0  0  0  0
    2.3263   -2.2988    0.5304 C   0  0  0  0  0  0  0  0  0  0  0  0
    0.9935   -2.5275    0.7903 C   0  0  0  0  0  0  0  0  0  0  0  0
    0.0285   -1.5351    0.7453 C   0  0  0  0  0  0  0  0  0  0  0  0
    0.3681   -0.2380    0.4278 C   0  0  0  0  0  0  0  0  0  0  0  0
   -0.5611    0.8814    0.4172 C   0  0  0  0  0  0  0  0  0  0  0  0
   -0.0917    2.0252    0.5001 O   0  0  0  0  0  0  0  0  0  0  0  0
   -1.9849    0.6633    0.3149 C   0  0  0  0  0  0  0  0  0  0  0  0
   -3.0380    1.3023    0.8884 C   0  0  0  0  0  0  0  0  0  0  0  0
   -3.0396    2.4048    1.8072 C   0  0  0  0  0  0  0  0  0  0  0  0
   -2.4295    3.6112    1.6324 C   0  0  0  0  0  0  0  0  0  0  0  0
   -2.4537    4.6121    2.5917 C   0  0  0  0  0  0  0  0  0  0  0  0
   -3.1109    4.4043    3.7681 C   0  0  0  0  0  0  0  0  0  0  0  0
   -3.7424    3.2074    3.9931 C   0  0  0  0  0  0  0  0  0  0  0  0
   -3.7069    2.2235    3.0272 C   0  0  0  0  0  0  0  0  0  0  0  0
   -4.1736    0.7070    0.3885 N   0  0  0  0  0  0  0  0  0  0  0  0
   -5.5292    1.0942    0.7502 C   0  0  0  0  0  0  0  0  0  0  0  0
   -3.8493   -0.2418   -0.4457 N   0  0  0  0  0  0  0  0  0  0  0  0
   -4.7661   -1.0969   -1.1764 C   0  0  0  0  0  0  0  0  0  0  0  0
   -5.3045   -2.2246   -0.5936 C   0  0  0  0  0  0  0  0  0  0  0  0
   -6.1803   -3.0627   -1.2571 C   0  0  0  0  0  0  0  0  0  0  0  0
   -6.5169   -2.7467   -2.5445 C   0  0  0  0  0  0  0  0  0  0  0  0
   -6.0054   -1.6370   -3.1603 C   0  0  0  0  0  0  0  0  0  0  0  0
   -5.1299   -0.8136   -2.4736 C   0  0  0  0  0  0  0  0  0  0  0  0
   -2.5150   -0.3093   -0.5284 C   0  0  0  0  0  0  0  0  0  0  0  0
   -1.8933   -1.1435   -1.2772 O   0  0  0  0  0  0  0  0  0  0  0  0
    1.7241    0.0040    0.1626 C   0  0  0  0  0  0  0  0  0  0  0  0
    2.0744    1.3551   -0.1667 N   0  0  0  0  0  0  0  0  0  0  0  0
    2.6556   -0.9999    0.2162 C   0  0  0  0  0  0  0  0  0  0  0  0
    4.0353   -0.7005   -0.0648 C   0  0  0  0  0  0  0  0  0  0  0  0
    4.9373   -0.3176    0.9106 C   0  0  0  0  0  0  0  0  0  0  0  0
    6.2590   -0.0270    0.6651 C   0  0  0  0  0  0  0  0  0  0  0  0
    6.7627   -0.1125   -0.6444 C   0  0  0  0  0  0  0  0  0  0  0  0
    7.9732    0.1239   -1.0531 N   0  0  0  0  0  0  0  0  0  0  0  0
    8.3875    0.0429   -2.1961 C   0  0  0  0  0  0  0  0  0  0  0  0
    9.6639    0.2416   -2.9407 C   0  0  0  0  0  0  0  0  0  0  0  0
    9.6018   -0.3371   -4.1997 F   0  0  0  0  0  0  0  0  0  0  0  0
   10.0029    1.5814   -3.0040 F   0  0  0  0  0  0  0  0  0  0  0  0
   10.6422   -0.4318   -2.2427 F   0  0  0  0  0  0  0  0  0  0  0  0
    6.8118   -0.4914   -3.0669 S   0  0  0  0  0  0  0  0  0  0  0  0
    5.8500   -0.4947   -1.5991 C   0  0  0  0  0  0  0  0  0  0  0  0
    4.5279   -0.7847   -1.3493 C   0  0  0  0  0  0  0  0  0  0  0  0
    4.3437   -3.0765    0.6352 H   0  0  0  0  0  0  0  0  0  0  0  0
    3.0474   -4.1437    1.3974 H   0  0  0  0  0  0  0  0  0  0  0  0
    3.1955   -3.9832   -0.3596 H   0  0  0  0  0  0  0  0  0  0  0  0
    0.7035   -3.5596    1.0446 H   0  0  0  0  0  0  0  0  0  0  0  0
   -0.9954   -1.7657    0.9982 H   0  0  0  0  0  0  0  0  0  0  0  0
   -1.9266    3.8384    0.7273 H   0  0  0  0  0  0  0  0  0  0  0  0
   -1.9529    5.5665    2.4182 H   0  0  0  0  0  0  0  0  0  0  0  0
   -3.1334    5.1950    4.5333 H   0  0  0  0  0  0  0  0  0  0  0  0
   -4.2548    3.0820    4.9423 H   0  0  0  0  0  0  0  0  0  0  0  0
   -4.2050    1.3048    3.2274 H   0  0  0  0  0  0  0  0  0  0  0  0
   -5.8857    0.5809    1.6600 H   0  0  0  0  0  0  0  0  0  0  0  0
   -6.2217    0.7587   -0.0724 H   0  0  0  0  0  0  0  0  0  0  0  0
   -5.6478    2.1920    0.7997 H   0  0  0  0  0  0  0  0  0  0  0  0
   -5.0315   -2.4586    0.4145 H   0  0  0  0  0  0  0  0  0  0  0  0
   -6.6054   -3.9539   -0.7957 H   0  0  0  0  0  0  0  0  0  0  0  0
   -7.2009   -3.3927   -3.0766 H   0  0  0  0  0  0  0  0  0  0  0  0
   -6.2866   -1.4161   -4.1659 H   0  0  0  0  0  0  0  0  0  0  0  0
   -4.7071    0.0721   -2.9313 H   0  0  0  0  0  0  0  0  0  0  0  0
    2.4687    1.9356    0.5913 H   0  0  0  0  0  0  0  0  0  0  0  0
    1.9453    1.7457   -1.1121 H   0  0  0  0  0  0  0  0  0  0  0  0
    4.6127   -0.2287    1.9634 H   0  0  0  0  0  0  0  0  0  0  0  0
    6.9056    0.2693    1.4993 H   0  0  0  0  0  0  0  0  0  0  0  0
    3.9224   -1.0741   -2.2052 H   0  0  0  0  0  0  0  0  0  0  0  0
  1  2  1  0
  2  3  2  0
  3  4  1  0
  4  5  2  0
  5  6  1  0
  6  7  2  0
  6  8  1  0
  8  9  2  0
  9 10  1  0
 10 11  2  0
 11 12  1  0
 12 13  2  0
 13 14  1  0
 14 15  2  0
  9 16  1  0
 16 17  1  0
 16 18  1  0
 18 19  1  0
 19 20  2  0
 20 21  1  0
 21 22  2  0
 22 23  1  0
 23 24  2  0
 18 25  1  0
 25 26  2  0
  5 27  1  0
 27 28  1  0
 27 29  2  0
 29 30  1  0
 30 31  2  0
 31 32  1  0
 32 33  2  0
 33 34  1  0
 34 35  2  0
 35 36  1  0
 36 37  1  0
 36 38  1  0
 36 39  1  0
 35 40  1  0
 40 41  1  0
 41 42  2  0
 29  2  1  0
 42 30  1  0
 25  8  1  0
 41 33  1  0
 15 10  1  0
 24 19  1  0
  1 43  1  0
  1 44  1  0
  1 45  1  0
  3 46  1  0
  4 47  1  0
 11 48  1  0
 12 49  1  0
 13 50  1  0
 14 51  1  0
 15 52  1  0
 17 53  1  0
 17 54  1  0
 17 55  1  0
 20 56  1  0
 21 57  1  0
 22 58  1  0
 23 59  1  0
 24 60  1  0
 28 61  1  0
 28 62  1  0
 31 63  1  0
 32 64  1  0
 42 65  1  0
M  END
$$$$
