@<TRIPOS>MOLECULE
*****
 65 70 0 0 0
SMALL
GASTEIGER

@<TRIPOS>ATOM
      1 C           3.3066   -3.4010    0.5951 C.3     1  UNL1       -0.0391
      2 C           2.3263   -2.2988    0.5304 C.ar    1  UNL1       -0.0410
      3 C           0.9935   -2.5275    0.7903 C.ar    1  UNL1       -0.0575
      4 C           0.0285   -1.5351    0.7453 C.ar    1  UNL1       -0.0489
      5 C           0.3681   -0.2380    0.4278 C.ar    1  UNL1        0.0437
      6 C          -0.5611    0.8814    0.4172 C.2     1  UNL1        0.2022
      7 O          -0.0917    2.0252    0.5001 O.2     1  UNL1       -0.2863
      8 C          -1.9849    0.6633    0.3149 C.ar    1  UNL1        0.1138
      9 C          -3.0380    1.3023    0.8884 C.ar    1  UNL1        0.0818
     10 C          -3.0396    2.4048    1.8072 C.ar    1  UNL1        0.0008
     11 C          -2.4295    3.6112    1.6324 C.ar    1  UNL1       -0.0526
     12 C          -2.4537    4.6121    2.5917 C.ar    1  UNL1       -0.0611
     13 C          -3.1109    4.4043    3.7681 C.ar    1  UNL1       -0.0617
     14 C          -3.7424    3.2074    3.9931 C.ar    1  UNL1       -0.0611
     15 C          -3.7069    2.2235    3.0272 C.ar    1  UNL1       -0.0526
     16 N          -4.1736    0.7070    0.3885 N.ar    1  UNL1       -0.2785
     17 C          -5.5292    1.0942    0.7502 C.3     1  UNL1        0.0295
     18 N          -3.8493   -0.2418   -0.4457 N.ar    1  UNL1       -0.2163
     19 C          -4.7661   -1.0969   -1.1764 C.ar    1  UNL1        0.0674
     20 C          -5.3045   -2.2246   -0.5936 C.ar    1  UNL1       -0.0362
     21 C          -6.1803   -3.0627   -1.2571 C.ar    1  UNL1       -0.0598
     22 C          -6.5169   -2.7467   -2.5445 C.ar    1  UNL1       -0.0616
     23 C          -6.0054   -1.6370   -3.1603 C.ar    1  UNL1       -0.0598
     24 C          -5.1299   -0.8136   -2.4736 C.ar    1  UNL1       -0.0362
     25 C          -2.5150   -0.3093   -0.5284 C.ar    1  UNL1        0.2833
     26 O          -1.8933   -1.1435   -1.2772 O.2     1  UNL1       -0.2650
     27 C           1.7241    0.0040    0.1626 C.ar    1  UNL1        0.0436
     28 N           2.0744    1.3551   -0.1667 N.pl3   1  UNL1       -0.3569
     29 C           2.6556   -0.9999    0.2162 C.ar    1  UNL1        0.0064
     30 C           4.0353   -0.7005   -0.0648 C.ar    1  UNL1       -0.0147
     31 C           4.9373   -0.3176    0.9106 C.ar    1  UNL1       -0.0519
     32 C           6.2590   -0.0270    0.6651 C.ar    1  UNL1       -0.0346
     33 C           6.7627   -0.1125   -0.6444 C.ar    1  UNL1        0.0788
     34 N           7.9732    0.1239   -1.0531 N.ar    1  UNL1       -0.2352
     35 C           8.3875    0.0429   -2.1961 C.ar    1  UNL1        0.1823
     36 C           9.6639    0.2416   -2.9407 C.3     1  UNL1        0.4407
     37 F           9.6018   -0.3371   -4.1997 F       1  UNL1       -0.1640
     38 F          10.0029    1.5814   -3.0040 F       1  UNL1       -0.1640
     39 F          10.6422   -0.4318   -2.2427 F       1  UNL1       -0.1640
     40 S           6.8118   -0.4914   -3.0669 S.2     1  UNL1       -0.0633
     41 C           5.8500   -0.4947   -1.5991 C.ar    1  UNL1        0.0401
     42 C           4.5279   -0.7847   -1.3493 C.ar    1  UNL1       -0.0381
     43 H           4.3437   -3.0765    0.6352 H       1  UNL1        0.0278
     44 H           3.0474   -4.1437    1.3974 H       1  UNL1        0.0278
     45 H           3.1955   -3.9832   -0.3596 H       1  UNL1        0.0278
     46 H           0.7035   -3.5596    1.0446 H       1  UNL1        0.0621
     47 H          -0.9954   -1.7657    0.9982 H       1  UNL1        0.0625
     48 H          -1.9266    3.8384    0.7273 H       1  UNL1        0.0624
     49 H          -1.9529    5.5665    2.4182 H       1  UNL1        0.0618
     50 H          -3.1334    5.1950    4.5333 H       1  UNL1        0.0618
     51 H          -4.2548    3.0820    4.9423 H       1  UNL1        0.0618
     52 H          -4.2050    1.3048    3.2274 H       1  UNL1        0.0624
     53 H          -5.8857    0.5809    1.6600 H       1  UNL1        0.0472
     54 H          -6.2217    0.7587   -0.0724 H       1  UNL1        0.0472
     55 H          -5.6478    2.1920    0.7997 H       1  UNL1        0.0472
     56 H          -5.0315   -2.4586    0.4145 H       1  UNL1        0.0639
     57 H          -6.6054   -3.9539   -0.7957 H       1  UNL1        0.0618
     58 H          -7.2009   -3.3927   -3.0766 H       1  UNL1        0.0618
     59 H          -6.2866   -1.4161   -4.1659 H       1  UNL1        0.0618
     60 H          -4.7071    0.0721   -2.9313 H       1  UNL1        0.0639
     61 H           2.4687    1.9356    0.5913 H       1  UNL1        0.1424
     62 H           1.9453    1.7457   -1.1121 H       1  UNL1        0.1424
     63 H           4.6127   -0.2287    1.9634 H       1  UNL1        0.0624
     64 H           6.9056    0.2693    1.4993 H       1  UNL1        0.0639
     65 H           3.9224   -1.0741   -2.2052 H       1  UNL1        0.0635
@<TRIPOS>BOND
     1     1     2    1
     2     2     3   ar
     3     3     4   ar
     4     4     5   ar
     5     5     6    1
     6     6     7    2
     7     6     8    1
     8     8     9   ar
     9     9    10    1
    10    10    11   ar
    11    11    12   ar
    12    12    13   ar
    13    13    14   ar
    14    14    15   ar
    15     9    16   ar
    16    16    17    1
    17    16    18   ar
    18    18    19    1
    19    19    20   ar
    20    20    21   ar
    21    21    22   ar
    22    22    23   ar
    23    23    24   ar
    24    18    25   ar
    25    25    26    2
    26     5    27   ar
    27    27    28    1
    28    27    29   ar
    29    29    30    1
    30    30    31   ar
    31    31    32   ar
    32    32    33   ar
    33    33    34   ar
    34    34    35   ar
    35    35    36    1
    36    36    37    1
    37    36    38    1
    38    36    39    1
    39    35    40   ar
    40    40    41   ar
    41    41    42   ar
    42    29     2   ar
    43    42    30   ar
    44    25     8   ar
    45    41    33   ar
    46    15    10   ar
    47    24    19   ar
    48     1    43    1
    49     1    44    1
    50     1    45    1
    51     3    46    1
    52     4    47    1
    53    11    48    1
    54    12    49    1
    55    13    50    1
    56    14    51    1
    57    15    52    1
    58    17    53    1
    59    17    54    1
    60    17    55    1
    61    20    56    1
    62    21    57    1
    63    22    58    1
    64    23    59    1
    65    24    60    1
    66    28    61    1
    67    28    62    1
    68    31    63    1
    69    32    64    1
    70    42    65    1
