
     RDKit          3D

 46 47  0  0  0  0  0  0  0  0999 V2000
   -4.9562   -1.0267    1.6305 C   0  0  0  0  0  0  0  0  0  0  0  0
   -4.1763   -0.0755    0.9042 N   0  0  0  0  0  0  0  0  0  0  0  0
   -4.6765    0.0003   -0.4355 C   0  0  0  0  0  0  0  0  0  0  0  0
   -2.7807   -0.3731    0.9959 C   0  0  0  0  0  0  0  0  0  0  0  0
   -2.3782   -0.3440    2.4576 C   0  0  0  0  0  0  0  0  0  0  0  0
   -2.4015   -1.7140    0.4349 C   0  0  0  0  0  0  0  0  0  0  0  0
   -1.9450    0.6625    0.3237 C   0  0  0  0  0  0  0  0  0  0  0  0
   -0.7627    0.2757   -0.1723 N   0  0  0  0  0  0  0  0  0  0  0  0
    0.0905    1.1222   -0.8028 C   0  0  0  0  0  0  0  0  0  0  0  0
    1.3709    0.7054   -1.3434 C   0  0  0  0  0  0  0  0  0  0  0  0
    2.0806    1.5809   -1.8808 O   0  0  0  0  0  0  0  0  0  0  0  0
    1.7965   -0.6315   -1.2655 N   0  0  0  0  0  0  0  0  0  0  0  0
    3.0609   -1.0996   -1.7820 C   0  0  0  0  0  0  0  0  0  0  0  0
    4.1575   -0.7511   -0.8699 C   0  0  0  0  0  0  0  0  0  0  0  0
    4.5009   -1.5971    0.1870 C   0  0  0  0  0  0  0  0  0  0  0  0
    5.5171   -1.3345    1.0685 C   0  0  0  0  0  0  0  0  0  0  0  0
    6.2480   -0.1762    0.9153 C   0  0  0  0  0  0  0  0  0  0  0  0
    7.2628    0.1083    1.7786 F   0  0  0  0  0  0  0  0  0  0  0  0
    5.9414    0.6954   -0.1232 C   0  0  0  0  0  0  0  0  0  0  0  0
    4.9135    0.3861   -0.9795 C   0  0  0  0  0  0  0  0  0  0  0  0
   -0.3425    2.4277   -0.9030 C   0  0  0  0  0  0  0  0  0  0  0  0
    0.4870    3.3442   -1.5388 O   0  0  0  0  0  0  0  0  0  0  0  0
   -1.5572    2.8193   -0.3920 C   0  0  0  0  0  0  0  0  0  0  0  0
   -1.9323    4.0149   -0.4942 O   0  0  0  0  0  0  0  0  0  0  0  0
   -2.3498    1.9370    0.2170 N   0  0  0  0  0  0  0  0  0  0  0  0
   -5.7488   -1.4841    0.9874 H   0  0  0  0  0  0  0  0  0  0  0  0
   -4.3882   -1.8789    2.0475 H   0  0  0  0  0  0  0  0  0  0  0  0
   -5.4828   -0.5600    2.5151 H   0  0  0  0  0  0  0  0  0  0  0  0
   -3.9351    0.2033   -1.2070 H   0  0  0  0  0  0  0  0  0  0  0  0
   -5.2041   -0.9428   -0.7416 H   0  0  0  0  0  0  0  0  0  0  0  0
   -5.4435    0.8037   -0.4696 H   0  0  0  0  0  0  0  0  0  0  0  0
   -2.6596   -1.2876    2.9515 H   0  0  0  0  0  0  0  0  0  0  0  0
   -2.7565    0.5528    2.9662 H   0  0  0  0  0  0  0  0  0  0  0  0
   -1.2575   -0.2916    2.5296 H   0  0  0  0  0  0  0  0  0  0  0  0
   -2.6147   -1.7405   -0.6696 H   0  0  0  0  0  0  0  0  0  0  0  0
   -2.8111   -2.5753    0.9628 H   0  0  0  0  0  0  0  0  0  0  0  0
   -1.2749   -1.7697    0.5021 H   0  0  0  0  0  0  0  0  0  0  0  0
    1.2022   -1.3921   -0.8130 H   0  0  0  0  0  0  0  0  0  0  0  0
    3.0471   -2.1963   -1.9840 H   0  0  0  0  0  0  0  0  0  0  0  0
    3.2876   -0.6326   -2.7713 H   0  0  0  0  0  0  0  0  0  0  0  0
    3.9247   -2.5273    0.3204 H   0  0  0  0  0  0  0  0  0  0  0  0
    5.7844   -1.9886    1.8869 H   0  0  0  0  0  0  0  0  0  0  0  0
    6.4959    1.6024   -0.2610 H   0  0  0  0  0  0  0  0  0  0  0  0
    4.7271    1.1046   -1.7789 H   0  0  0  0  0  0  0  0  0  0  0  0
    1.2272    3.8354   -1.0468 H   0  0  0  0  0  0  0  0  0  0  0  0
   -3.2883    2.2086    0.6198 H   0  0  0  0  0  0  0  0  0  0  0  0
  1  2  1  0
  2  3  1  0
  2  4  1  0
  4  5  1  0
  4  6  1  0
  4  7  1  0
  7  8  2  0
  8  9  1  0
  9 10  1  0
 10 11  2  0
 10 12  1  0
 12 13  1  0
 13 14  1  0
 14 15  2  0
 15 16  1  0
 16 17  2  0
 17 18  1  0
 17 19  1  0
 19 20  2  0
  9 21  2  0
 21 22  1  0
 21 23  1  0
 23 24  2  0
 23 25  1  0
 25  7  1  0
 20 14  1  0
  1 26  1  0
  1 27  1  0
  1 28  1  0
  3 29  1  0
  3 30  1  0
  3 31  1  0
  5 32  1  0
  5 33  1  0
  5 34  1  0
  6 35  1  0
  6 36  1  0
  6 37  1  0
 12 38  1  0
 13 39  1  0
 13 40  1  0
 15 41  1  0
 16 42  1  0
 19 43  1  0
 20 44  1  0
 22 45  1  0
 25 46  1  0
M  END
$$$$
