@<TRIPOS>MOLECULE
*****
 46 47 0 0 0
SMALL
GASTEIGER

@<TRIPOS>ATOM
      1 C          -4.9562   -1.0267    1.6305 C.3     1  UNL1       -0.0122
      2 N          -4.1763   -0.0755    0.9042 N.3     1  UNL1       -0.2968
      3 C          -4.6765    0.0003   -0.4355 C.3     1  UNL1       -0.0122
      4 C          -2.7807   -0.3731    0.9959 C.3     1  UNL1        0.0739
      5 C          -2.3782   -0.3440    2.4576 C.3     1  UNL1       -0.0398
      6 C          -2.4015   -1.7140    0.4349 C.3     1  UNL1       -0.0398
      7 C          -1.9450    0.6625    0.3237 C.ar    1  UNL1        0.1307
      8 N          -0.7627    0.2757   -0.1723 N.ar    1  UNL1       -0.2235
      9 C           0.0905    1.1222   -0.8028 C.ar    1  UNL1        0.1740
     10 C           1.3709    0.7054   -1.3434 C.2     1  UNL1        0.2665
     11 O           2.0806    1.5809   -1.8808 O.2     1  UNL1       -0.2684
     12 N           1.7965   -0.6315   -1.2655 N.am    1  UNL1       -0.3059
     13 C           3.0609   -1.0996   -1.7820 C.3     1  UNL1        0.0372
     14 C           4.1575   -0.7511   -0.8699 C.ar    1  UNL1       -0.0301
     15 C           4.5009   -1.5971    0.1870 C.ar    1  UNL1       -0.0544
     16 C           5.5171   -1.3345    1.0685 C.ar    1  UNL1       -0.0261
     17 C           6.2480   -0.1762    0.9153 C.ar    1  UNL1        0.1234
     18 F           7.2628    0.1083    1.7786 F       1  UNL1       -0.2055
     19 C           5.9414    0.6954   -0.1232 C.ar    1  UNL1       -0.0261
     20 C           4.9135    0.3861   -0.9795 C.ar    1  UNL1       -0.0544
     21 C          -0.3425    2.4277   -0.9030 C.ar    1  UNL1        0.2128
     22 O           0.4870    3.3442   -1.5388 O.3     1  UNL1       -0.5006
     23 C          -1.5572    2.8193   -0.3920 C.ar    1  UNL1        0.2940
     24 O          -1.9323    4.0149   -0.4942 O.2     1  UNL1       -0.2638
     25 N          -2.3498    1.9370    0.2170 N.ar    1  UNL1       -0.3063
     26 H          -5.7488   -1.4841    0.9874 H       1  UNL1        0.0391
     27 H          -4.3882   -1.8789    2.0475 H       1  UNL1        0.0391
     28 H          -5.4828   -0.5600    2.5151 H       1  UNL1        0.0391
     29 H          -3.9351    0.2033   -1.2070 H       1  UNL1        0.0391
     30 H          -5.2041   -0.9428   -0.7416 H       1  UNL1        0.0391
     31 H          -5.4435    0.8037   -0.4696 H       1  UNL1        0.0391
     32 H          -2.6596   -1.2876    2.9515 H       1  UNL1        0.0252
     33 H          -2.7565    0.5528    2.9662 H       1  UNL1        0.0252
     34 H          -1.2575   -0.2916    2.5296 H       1  UNL1        0.0252
     35 H          -2.6147   -1.7405   -0.6696 H       1  UNL1        0.0252
     36 H          -2.8111   -2.5753    0.9628 H       1  UNL1        0.0252
     37 H          -1.2749   -1.7697    0.5021 H       1  UNL1        0.0252
     38 H           1.2022   -1.3921   -0.8130 H       1  UNL1        0.1494
     39 H           3.0471   -2.1963   -1.9840 H       1  UNL1        0.0512
     40 H           3.2876   -0.6326   -2.7713 H       1  UNL1        0.0512
     41 H           3.9247   -2.5273    0.3204 H       1  UNL1        0.0622
     42 H           5.7844   -1.9886    1.8869 H       1  UNL1        0.0646
     43 H           6.4959    1.6024   -0.2610 H       1  UNL1        0.0646
     44 H           4.7271    1.1046   -1.7789 H       1  UNL1        0.0622
     45 H           1.2272    3.8354   -1.0468 H       1  UNL1        0.2924
     46 H          -3.2883    2.2086    0.6198 H       1  UNL1        0.1702
@<TRIPOS>BOND
     1     1     2    1
     2     2     3    1
     3     2     4    1
     4     4     5    1
     5     4     6    1
     6     4     7    1
     7     7     8   ar
     8     8     9   ar
     9     9    10    1
    10    10    11    2
    11    10    12   am
    12    12    13    1
    13    13    14    1
    14    14    15   ar
    15    15    16   ar
    16    16    17   ar
    17    17    18    1
    18    17    19   ar
    19    19    20   ar
    20     9    21   ar
    21    21    22    1
    22    21    23   ar
    23    23    24    2
    24    23    25   ar
    25    25     7   ar
    26    20    14   ar
    27     1    26    1
    28     1    27    1
    29     1    28    1
    30     3    29    1
    31     3    30    1
    32     3    31    1
    33     5    32    1
    34     5    33    1
    35     5    34    1
    36     6    35    1
    37     6    36    1
    38     6    37    1
    39    12    38    1
    40    13    39    1
    41    13    40    1
    42    15    41    1
    43    16    42    1
    44    19    43    1
    45    20    44    1
    46    22    45    1
    47    25    46    1
