@<TRIPOS>MOLECULE
*****
 51 54 0 0 0
SMALL
GASTEIGER

@<TRIPOS>ATOM
      1 C          -2.1608    0.7672    0.0129 C.3     1  UNL1       -0.0255
      2 C          -3.1143    1.3984    0.9414 C.3     1  UNL1       -0.0424
      3 C          -4.4510    1.2087    0.2160 C.3     1  UNL1        0.0067
      4 C          -4.2211    0.0549   -0.7202 C.2     1  UNL1        0.1395
      5 O          -5.1217   -0.1933   -1.5071 O.2     1  UNL1       -0.2968
      6 C          -2.8968   -0.4889   -0.4121 C.3     1  UNL1        0.0293
      7 C          -2.9743   -1.4930    0.6982 C.3     1  UNL1       -0.0526
      8 C          -2.1437   -0.9881   -1.6176 C.3     1  UNL1       -0.0404
      9 C          -0.7272   -1.2916   -1.2709 C.3     1  UNL1       -0.0486
     10 C          -0.0273   -0.1160   -0.6108 C.3     1  UNL1       -0.0322
     11 C          -0.8559    0.3076    0.5952 C.3     1  UNL1       -0.0340
     12 C          -0.2480    1.4773    1.3031 C.3     1  UNL1       -0.0494
     13 C           1.2322    1.3464    1.5100 C.3     1  UNL1       -0.0494
     14 C           1.6941   -0.0618    1.1656 C.3     1  UNL1       -0.0330
     15 C           3.1198   -0.2573    1.5296 C.3     1  UNL1       -0.0235
     16 C           4.1430   -0.0279    0.5061 C.3     1  UNL1        0.0555
     17 O           5.0526    0.9617    0.9539 O.3     1  UNL1       -0.3918
     18 C           3.7239    0.3140   -0.8647 C.3     1  UNL1       -0.0263
     19 C           2.2656    0.4897   -1.1005 C.3     1  UNL1       -0.0448
     20 C           1.3811   -0.4121   -0.2836 C.3     1  UNL1       -0.0260
     21 C           1.8052   -1.8451   -0.4492 C.3     1  UNL1       -0.0590
     22 H          -2.0017    1.4040   -0.8689 H       1  UNL1        0.0313
     23 H          -2.8608    2.4785    1.0117 H       1  UNL1        0.0272
     24 H          -3.1433    0.9783    1.9521 H       1  UNL1        0.0272
     25 H          -4.5748    2.1277   -0.4107 H       1  UNL1        0.0342
     26 H          -5.2718    1.0441    0.9138 H       1  UNL1        0.0342
     27 H          -2.2379   -2.3110    0.6037 H       1  UNL1        0.0239
     28 H          -2.9281   -1.0395    1.7054 H       1  UNL1        0.0239
     29 H          -3.9815   -2.0015    0.6498 H       1  UNL1        0.0239
     30 H          -2.6134   -1.9322   -1.9645 H       1  UNL1        0.0275
     31 H          -2.2399   -0.2133   -2.3994 H       1  UNL1        0.0275
     32 H          -0.6721   -2.2228   -0.7017 H       1  UNL1        0.0268
     33 H          -0.1995   -1.4117   -2.2610 H       1  UNL1        0.0268
     34 H          -0.1369    0.7222   -1.3316 H       1  UNL1        0.0309
     35 H          -0.9913   -0.5733    1.2436 H       1  UNL1        0.0307
     36 H          -0.7876    1.5876    2.2783 H       1  UNL1        0.0268
     37 H          -0.4969    2.3990    0.7345 H       1  UNL1        0.0268
     38 H           1.8406    2.1310    1.0334 H       1  UNL1        0.0268
     39 H           1.4395    1.4479    2.6046 H       1  UNL1        0.0268
     40 H           1.0259   -0.7240    1.7784 H       1  UNL1        0.0307
     41 H           3.2020   -1.2890    1.9867 H       1  UNL1        0.0293
     42 H           3.2930    0.4015    2.4311 H       1  UNL1        0.0293
     43 H           4.8134   -0.9379    0.4472 H       1  UNL1        0.0593
     44 H           5.9472    0.8235    0.5734 H       1  UNL1        0.2098
     45 H           4.2055    1.2639   -1.2358 H       1  UNL1        0.0290
     46 H           4.0669   -0.4383   -1.6236 H       1  UNL1        0.0290
     47 H           1.8960    1.5338   -0.9190 H       1  UNL1        0.0271
     48 H           2.0019    0.2936   -2.1656 H       1  UNL1        0.0271
     49 H           2.9007   -1.8741   -0.7214 H       1  UNL1        0.0235
     50 H           1.7393   -2.4195    0.5100 H       1  UNL1        0.0235
     51 H           1.2898   -2.3991   -1.2373 H       1  UNL1        0.0235
@<TRIPOS>BOND
     1     1     2    1
     2     2     3    1
     3     3     4    1
     4     4     5    2
     5     4     6    1
     6     6     7    1
     7     6     8    1
     8     8     9    1
     9     9    10    1
    10    10    11    1
    11    11    12    1
    12    12    13    1
    13    13    14    1
    14    14    15    1
    15    15    16    1
    16    16    17    1
    17    16    18    1
    18    18    19    1
    19    19    20    1
    20    20    21    1
    21     6     1    1
    22    20    10    1
    23    11     1    1
    24    20    14    1
    25     1    22    1
    26     2    23    1
    27     2    24    1
    28     3    25    1
    29     3    26    1
    30     7    27    1
    31     7    28    1
    32     7    29    1
    33     8    30    1
    34     8    31    1
    35     9    32    1
    36     9    33    1
    37    10    34    1
    38    11    35    1
    39    12    36    1
    40    12    37    1
    41    13    38    1
    42    13    39    1
    43    14    40    1
    44    15    41    1
    45    15    42    1
    46    16    43    1
    47    17    44    1
    48    18    45    1
    49    18    46    1
    50    19    47    1
    51    19    48    1
    52    21    49    1
    53    21    50    1
    54    21    51    1
