@<TRIPOS>MOLECULE
*****
 56 58 0 0 0
SMALL
GASTEIGER

@<TRIPOS>ATOM
      1 C           6.2488   -1.4068   -1.9657 C.3     1  UNL1       -0.0524
      2 C           5.3136   -0.2259   -2.1058 C.3     1  UNL1       -0.0039
      3 N           5.1681    0.5527   -0.9490 N.3     1  UNL1       -0.3014
      4 C           6.2521    1.3045   -0.4928 C.3     1  UNL1       -0.0039
      5 C           5.9713    2.0930    0.7624 C.3     1  UNL1       -0.0524
      6 C           3.9482    0.5354   -0.2567 C.3     1  UNL1        0.0145
      7 C           3.6035   -0.7420    0.4225 C.3     1  UNL1        0.0247
      8 N           2.3128   -0.6476    1.1174 N.am    1  UNL1       -0.3101
      9 C           1.1172   -0.4037    0.4209 C.2     1  UNL1        0.2461
     10 O           1.2417   -0.2771   -0.8461 O.2     1  UNL1       -0.2701
     11 C          -0.1751   -0.2922    1.0221 C.ar    1  UNL1        0.0604
     12 C          -0.5920   -0.4840    2.3098 C.ar    1  UNL1        0.0257
     13 C           0.2117   -0.9024    3.4762 C.3     1  UNL1       -0.0237
     14 N          -1.9249   -0.2380    2.3895 N.ar    1  UNL1       -0.3578
     15 C          -2.3725    0.1040    1.1910 C.ar    1  UNL1        0.0438
     16 C          -3.7704    0.4927    0.9128 C.2     1  UNL1       -0.0253
     17 C          -4.5036   -0.2078    0.1104 C.2     1  UNL1        0.0479
     18 C          -4.1845   -1.4182   -0.6303 C.2     1  UNL1        0.2490
     19 O          -3.1003   -2.0678   -0.6173 O.2     1  UNL1       -0.2698
     20 N          -5.3497   -1.7396   -1.3838 N.am    1  UNL1       -0.2809
     21 C          -6.3719   -0.7696   -1.1301 C.ar    1  UNL1        0.0417
     22 C          -7.6737   -0.6302   -1.6074 C.ar    1  UNL1       -0.0372
     23 C          -8.4867    0.4083   -1.2108 C.ar    1  UNL1       -0.0247
     24 C          -7.9985    1.3354   -0.3168 C.ar    1  UNL1        0.1241
     25 F          -8.7899    2.3586    0.0782 F       1  UNL1       -0.2055
     26 C          -6.7119    1.2096    0.1636 C.ar    1  UNL1       -0.0168
     27 C          -5.8895    0.1626   -0.2349 C.ar    1  UNL1        0.0111
     28 C          -1.3189    0.0844    0.3120 C.ar    1  UNL1       -0.0134
     29 C          -1.3566    0.4409   -1.1256 C.3     1  UNL1       -0.0370
     30 H           7.2906   -1.1078   -1.7977 H       1  UNL1        0.0242
     31 H           5.9380   -2.1250   -1.1987 H       1  UNL1        0.0242
     32 H           6.2225   -1.9540   -2.9478 H       1  UNL1        0.0242
     33 H           5.7177    0.3965   -2.9349 H       1  UNL1        0.0424
     34 H           4.3243   -0.6047   -2.4332 H       1  UNL1        0.0424
     35 H           6.4840    2.0871   -1.2766 H       1  UNL1        0.0424
     36 H           7.1884    0.7416   -0.2993 H       1  UNL1        0.0424
     37 H           6.9129    2.6031    1.0765 H       1  UNL1        0.0242
     38 H           5.2282    2.9036    0.6195 H       1  UNL1        0.0242
     39 H           5.6814    1.4715    1.6262 H       1  UNL1        0.0242
     40 H           3.9810    1.3223    0.5543 H       1  UNL1        0.0442
     41 H           3.1495    0.8828   -0.9347 H       1  UNL1        0.0442
     42 H           4.3595   -1.0428    1.1531 H       1  UNL1        0.0475
     43 H           3.4913   -1.5246   -0.3878 H       1  UNL1        0.0475
     44 H           2.3103   -0.7633    2.1736 H       1  UNL1        0.1491
     45 H           0.8815   -0.1329    3.8751 H       1  UNL1        0.0292
     46 H           0.7003   -1.8961    3.3438 H       1  UNL1        0.0292
     47 H          -0.5048   -1.1033    4.3372 H       1  UNL1        0.0292
     48 H          -2.5039   -0.3030    3.2377 H       1  UNL1        0.1656
     49 H          -4.1526    1.3820    1.4051 H       1  UNL1        0.0646
     50 H          -5.4481   -2.5569   -2.0251 H       1  UNL1        0.1552
     51 H          -8.0522   -1.3698   -2.3157 H       1  UNL1        0.0637
     52 H          -9.5109    0.4920   -1.6055 H       1  UNL1        0.0647
     53 H          -6.3044    1.9211    0.8642 H       1  UNL1        0.0653
     54 H          -1.0749   -0.3998   -1.7905 H       1  UNL1        0.0278
     55 H          -2.3953    0.7260   -1.3865 H       1  UNL1        0.0278
     56 H          -0.7328    1.3255   -1.3600 H       1  UNL1        0.0278
@<TRIPOS>BOND
     1     1     2    1
     2     2     3    1
     3     3     4    1
     4     4     5    1
     5     3     6    1
     6     6     7    1
     7     7     8    1
     8     8     9   am
     9     9    10    2
    10     9    11    1
    11    11    12   ar
    12    12    13    1
    13    12    14   ar
    14    14    15   ar
    15    15    16    1
    16    16    17    2
    17    17    18    1
    18    18    19    2
    19    18    20   am
    20    20    21    1
    21    21    22   ar
    22    22    23   ar
    23    23    24   ar
    24    24    25    1
    25    24    26   ar
    26    26    27   ar
    27    15    28   ar
    28    28    29    1
    29    28    11   ar
    30    27    17    1
    31    27    21   ar
    32     1    30    1
    33     1    31    1
    34     1    32    1
    35     2    33    1
    36     2    34    1
    37     4    35    1
    38     4    36    1
    39     5    37    1
    40     5    38    1
    41     5    39    1
    42     6    40    1
    43     6    41    1
    44     7    42    1
    45     7    43    1
    46     8    44    1
    47    13    45    1
    48    13    46    1
    49    13    47    1
    50    14    48    1
    51    16    49    1
    52    20    50    1
    53    22    51    1
    54    23    52    1
    55    26    53    1
    56    29    54    1
    57    29    55    1
    58    29    56    1
