@<TRIPOS>MOLECULE
*****
 67 70 0 0 0
SMALL
GASTEIGER

@<TRIPOS>ATOM
      1 C           0.2051    6.2634    1.3114 C.3     1  UNL1       -0.0495
      2 C          -0.2265    6.2793   -0.1363 C.3     1  UNL1        0.0091
      3 N          -1.1193    5.2099   -0.4624 N.am    1  UNL1       -0.3102
      4 C          -0.8255    3.8436   -0.3448 C.2     1  UNL1        0.2664
      5 O           0.3096    3.5038    0.0799 O.2     1  UNL1       -0.2684
      6 C          -1.7484    2.7622   -0.6822 C.ar    1  UNL1        0.1758
      7 N          -2.9972    2.9852   -1.1441 N.ar    1  UNL1       -0.0723
      8 O          -3.5952    1.8534   -1.3621 O.2     1  UNL1       -0.3532
      9 C          -2.7693    0.8534   -1.0542 C.ar    1  UNL1        0.1791
     10 C          -3.1113   -0.5475   -1.1769 C.ar    1  UNL1        0.0624
     11 C          -3.9443   -1.1498   -0.2624 C.ar    1  UNL1       -0.0406
     12 C          -4.2689   -2.5054   -0.4033 C.ar    1  UNL1       -0.0025
     13 C          -5.1649   -3.0801    0.6088 C.3     1  UNL1       -0.0180
     14 C          -6.6138   -2.9673    0.2704 C.3     1  UNL1       -0.0585
     15 C          -4.8627   -4.5455    0.8949 C.3     1  UNL1       -0.0585
     16 C          -3.7409   -3.1961   -1.4584 C.ar    1  UNL1        0.1238
     17 O          -4.0729   -4.5387   -1.5826 O.3     1  UNL1       -0.5064
     18 C          -2.9117   -2.6297   -2.3834 C.ar    1  UNL1        0.0223
     19 C          -2.5992   -1.2713   -2.2244 C.ar    1  UNL1        0.1311
     20 O          -1.7549   -0.7562   -3.1955 O.3     1  UNL1       -0.5059
     21 C          -1.5856    1.4168   -0.6184 C.ar    1  UNL1        0.0614
     22 C          -0.3820    0.7455   -0.1735 C.ar    1  UNL1       -0.0119
     23 C           0.5450    0.3535   -1.1075 C.ar    1  UNL1       -0.0535
     24 C           1.7057   -0.2952   -0.7109 C.ar    1  UNL1       -0.0568
     25 C           1.9829   -0.5730    0.6083 C.ar    1  UNL1       -0.0333
     26 C           3.2197   -1.2612    1.0436 C.3     1  UNL1        0.0240
     27 N           4.3039   -0.3806    1.3763 N.3     1  UNL1       -0.2982
     28 C           5.4162   -1.2376    1.8016 C.3     1  UNL1       -0.0008
     29 C           6.2012   -1.6464    0.5817 C.3     1  UNL1       -0.0402
     30 C           7.0581   -0.4433    0.2048 C.3     1  UNL1       -0.0507
     31 C           6.1989    0.8000    0.3766 C.3     1  UNL1       -0.0402
     32 C           4.7280    0.4259    0.2752 C.3     1  UNL1       -0.0008
     33 C           1.0309   -0.1690    1.5530 C.ar    1  UNL1       -0.0568
     34 C          -0.1189    0.4741    1.1528 C.ar    1  UNL1       -0.0535
     35 H           0.5911    7.2787    1.5393 H       1  UNL1        0.0245
     36 H           1.0458    5.5597    1.4900 H       1  UNL1        0.0245
     37 H          -0.6443    6.0948    2.0083 H       1  UNL1        0.0245
     38 H           0.7020    6.2715   -0.7448 H       1  UNL1        0.0459
     39 H          -0.7204    7.2411   -0.3166 H       1  UNL1        0.0459
     40 H          -2.0708    5.4537   -0.8183 H       1  UNL1        0.1490
     41 H          -4.3573   -0.5806    0.5753 H       1  UNL1        0.0630
     42 H          -5.0060   -2.5438    1.5881 H       1  UNL1        0.0345
     43 H          -7.1938   -3.1333    1.2143 H       1  UNL1        0.0235
     44 H          -6.9382   -3.7891   -0.4173 H       1  UNL1        0.0235
     45 H          -6.9111   -1.9646   -0.0924 H       1  UNL1        0.0235
     46 H          -5.5107   -5.2262    0.3045 H       1  UNL1        0.0235
     47 H          -5.0995   -4.7761    1.9720 H       1  UNL1        0.0235
     48 H          -3.7918   -4.7711    0.7274 H       1  UNL1        0.0235
     49 H          -4.5448   -4.8761   -2.4166 H       1  UNL1        0.2921
     50 H          -2.5331   -3.2262   -3.1844 H       1  UNL1        0.0691
     51 H          -1.8924    0.0996   -3.6848 H       1  UNL1        0.2922
     52 H           0.4208    0.5321   -2.1841 H       1  UNL1        0.0624
     53 H           2.4404   -0.6088   -1.4718 H       1  UNL1        0.0621
     54 H           2.9781   -1.9557    1.8700 H       1  UNL1        0.0476
     55 H           3.5975   -1.9211    0.2135 H       1  UNL1        0.0476
     56 H           5.0564   -2.1382    2.3095 H       1  UNL1        0.0427
     57 H           6.1102   -0.6506    2.4448 H       1  UNL1        0.0427
     58 H           5.5763   -1.8902   -0.2883 H       1  UNL1        0.0278
     59 H           6.8386   -2.5354    0.7926 H       1  UNL1        0.0278
     60 H           7.4160   -0.5249   -0.8386 H       1  UNL1        0.0266
     61 H           7.9168   -0.4130    0.8783 H       1  UNL1        0.0266
     62 H           6.4423    1.3216    1.3170 H       1  UNL1        0.0278
     63 H           6.4247    1.4665   -0.4738 H       1  UNL1        0.0278
     64 H           4.1489    1.3475    0.2415 H       1  UNL1        0.0427
     65 H           4.6220   -0.1163   -0.6894 H       1  UNL1        0.0427
     66 H           1.2519   -0.3877    2.5768 H       1  UNL1        0.0621
     67 H          -0.8571    0.7859    1.9023 H       1  UNL1        0.0624
@<TRIPOS>BOND
     1     1     2    1
     2     2     3    1
     3     3     4   am
     4     4     5    2
     5     4     6    1
     6     6     7   ar
     7     7     8   ar
     8     8     9   ar
     9     9    10    1
    10    10    11   ar
    11    11    12   ar
    12    12    13    1
    13    13    14    1
    14    13    15    1
    15    12    16   ar
    16    16    17    1
    17    16    18   ar
    18    18    19   ar
    19    19    20    1
    20     9    21   ar
    21    21    22    1
    22    22    23   ar
    23    23    24   ar
    24    24    25   ar
    25    25    26    1
    26    26    27    1
    27    27    28    1
    28    28    29    1
    29    29    30    1
    30    30    31    1
    31    31    32    1
    32    25    33   ar
    33    33    34   ar
    34    21     6   ar
    35    34    22   ar
    36    19    10   ar
    37    32    27    1
    38     1    35    1
    39     1    36    1
    40     1    37    1
    41     2    38    1
    42     2    39    1
    43     3    40    1
    44    11    41    1
    45    13    42    1
    46    14    43    1
    47    14    44    1
    48    14    45    1
    49    15    46    1
    50    15    47    1
    51    15    48    1
    52    17    49    1
    53    18    50    1
    54    20    51    1
    55    23    52    1
    56    24    53    1
    57    26    54    1
    58    26    55    1
    59    28    56    1
    60    28    57    1
    61    29    58    1
    62    29    59    1
    63    30    60    1
    64    30    61    1
    65    31    62    1
    66    31    63    1
    67    32    64    1
    68    32    65    1
    69    33    66    1
    70    34    67    1
