
     RDKit          3D

 67 70  0  0  0  0  0  0  0  0999 V2000
    0.2051    6.2634    1.3114 C   0  0  0  0  0  0  0  0  0  0  0  0
   -0.2265    6.2793   -0.1363 C   0  0  0  0  0  0  0  0  0  0  0  0
   -1.1193    5.2099   -0.4624 N   0  0  0  0  0  0  0  0  0  0  0  0
   -0.8255    3.8436   -0.3448 C   0  0  0  0  0  0  0  0  0  0  0  0
    0.3096    3.5038    0.0799 O   0  0  0  0  0  0  0  0  0  0  0  0
   -1.7484    2.7622   -0.6822 C   0  0  0  0  0  0  0  0  0  0  0  0
   -2.9972    2.9852   -1.1441 N   0  0  0  0  0  0  0  0  0  0  0  0
   -3.5952    1.8534   -1.3621 O   0  0  0  0  0  0  0  0  0  0  0  0
   -2.7693    0.8534   -1.0542 C   0  0  0  0  0  0  0  0  0  0  0  0
   -3.1113   -0.5475   -1.1769 C   0  0  0  0  0  0  0  0  0  0  0  0
   -3.9443   -1.1498   -0.2624 C   0  0  0  0  0  0  0  0  0  0  0  0
   -4.2689   -2.5054   -0.4033 C   0  0  0  0  0  0  0  0  0  0  0  0
   -5.1649   -3.0801    0.6088 C   0  0  0  0  0  0  0  0  0  0  0  0
   -6.6138   -2.9673    0.2704 C   0  0  0  0  0  0  0  0  0  0  0  0
   -4.8627   -4.5455    0.8949 C   0  0  0  0  0  0  0  0  0  0  0  0
   -3.7409   -3.1961   -1.4584 C   0  0  0  0  0  0  0  0  0  0  0  0
   -4.0729   -4.5387   -1.5826 O   0  0  0  0  0  0  0  0  0  0  0  0
   -2.9117   -2.6297   -2.3834 C   0  0  0  0  0  0  0  0  0  0  0  0
   -2.5992   -1.2713   -2.2244 C   0  0  0  0  0  0  0  0  0  0  0  0
   -1.7549   -0.7562   -3.1955 O   0  0  0  0  0  0  0  0  0  0  0  0
   -1.5856    1.4168   -0.6184 C   0  0  0  0  0  0  0  0  0  0  0  0
   -0.3820    0.7455   -0.1735 C   0  0  0  0  0  0  0  0  0  0  0  0
    0.5450    0.3535   -1.1075 C   0  0  0  0  0  0  0  0  0  0  0  0
    1.7057   -0.2952   -0.7109 C   0  0  0  0  0  0  0  0  0  0  0  0
    1.9829   -0.5730    0.6083 C   0  0  0  0  0  0  0  0  0  0  0  0
    3.2197   -1.2612    1.0436 C   0  0  0  0  0  0  0  0  0  0  0  0
    4.3039   -0.3806    1.3763 N   0  0  0  0  0  0  0  0  0  0  0  0
    5.4162   -1.2376    1.8016 C   0  0  0  0  0  0  0  0  0  0  0  0
    6.2012   -1.6464    0.5817 C   0  0  0  0  0  0  0  0  0  0  0  0
    7.0581   -0.4433    0.2048 C   0  0  0  0  0  0  0  0  0  0  0  0
    6.1989    0.8000    0.3766 C   0  0  0  0  0  0  0  0  0  0  0  0
    4.7280    0.4259    0.2752 C   0  0  0  0  0  0  0  0  0  0  0  0
    1.0309   -0.1690    1.5530 C   0  0  0  0  0  0  0  0  0  0  0  0
   -0.1189    0.4741    1.1528 C   0  0  0  0  0  0  0  0  0  0  0  0
    0.5911    7.2787    1.5393 H   0  0  0  0  0  0  0  0  0  0  0  0
    1.0458    5.5597    1.4900 H   0  0  0  0  0  0  0  0  0  0  0  0
   -0.6443    6.0948    2.0083 H   0  0  0  0  0  0  0  0  0  0  0  0
    0.7020    6.2715   -0.7448 H   0  0  0  0  0  0  0  0  0  0  0  0
   -0.7204    7.2411   -0.3166 H   0  0  0  0  0  0  0  0  0  0  0  0
   -2.0708    5.4537   -0.8183 H   0  0  0  0  0  0  0  0  0  0  0  0
   -4.3573   -0.5806    0.5753 H   0  0  0  0  0  0  0  0  0  0  0  0
   -5.0060   -2.5438    1.5881 H   0  0  0  0  0  0  0  0  0  0  0  0
   -7.1938   -3.1333    1.2143 H   0  0  0  0  0  0  0  0  0  0  0  0
   -6.9382   -3.7891   -0.4173 H   0  0  0  0  0  0  0  0  0  0  0  0
   -6.9111   -1.9646   -0.0924 H   0  0  0  0  0  0  0  0  0  0  0  0
   -5.5107   -5.2262    0.3045 H   0  0  0  0  0  0  0  0  0  0  0  0
   -5.0995   -4.7761    1.9720 H   0  0  0  0  0  0  0  0  0  0  0  0
   -3.7918   -4.7711    0.7274 H   0  0  0  0  0  0  0  0  0  0  0  0
   -4.5448   -4.8761   -2.4166 H   0  0  0  0  0  0  0  0  0  0  0  0
   -2.5331   -3.2262   -3.1844 H   0  0  0  0  0  0  0  0  0  0  0  0
   -1.8924    0.0996   -3.6848 H   0  0  0  0  0  0  0  0  0  0  0  0
    0.4208    0.5321   -2.1841 H   0  0  0  0  0  0  0  0  0  0  0  0
    2.4404   -0.6088   -1.4718 H   0  0  0  0  0  0  0  0  0  0  0  0
    2.9781   -1.9557    1.8700 H   0  0  0  0  0  0  0  0  0  0  0  0
    3.5975   -1.9211    0.2135 H   0  0  0  0  0  0  0  0  0  0  0  0
    5.0564   -2.1382    2.3095 H   0  0  0  0  0  0  0  0  0  0  0  0
    6.1102   -0.6506    2.4448 H   0  0  0  0  0  0  0  0  0  0  0  0
    5.5763   -1.8902   -0.2883 H   0  0  0  0  0  0  0  0  0  0  0  0
    6.8386   -2.5354    0.7926 H   0  0  0  0  0  0  0  0  0  0  0  0
    7.4160   -0.5249   -0.8386 H   0  0  0  0  0  0  0  0  0  0  0  0
    7.9168   -0.4130    0.8783 H   0  0  0  0  0  0  0  0  0  0  0  0
    6.4423    1.3216    1.3170 H   0  0  0  0  0  0  0  0  0  0  0  0
    6.4247    1.4665   -0.4738 H   0  0  0  0  0  0  0  0  0  0  0  0
    4.1489    1.3475    0.2415 H   0  0  0  0  0  0  0  0  0  0  0  0
    4.6220   -0.1163   -0.6894 H   0  0  0  0  0  0  0  0  0  0  0  0
    1.2519   -0.3877    2.5768 H   0  0  0  0  0  0  0  0  0  0  0  0
   -0.8571    0.7859    1.9023 H   0  0  0  0  0  0  0  0  0  0  0  0
  1  2  1  0
  2  3  1  0
  3  4  1  0
  4  5  2  0
  4  6  1  0
  6  7  2  0
  7  8  1  0
  8  9  1  0
  9 10  1  0
 10 11  2  0
 11 12  1  0
 12 13  1  0
 13 14  1  0
 13 15  1  0
 12 16  2  0
 16 17  1  0
 16 18  1  0
 18 19  2  0
 19 20  1  0
  9 21  2  0
 21 22  1  0
 22 23  2  0
 23 24  1  0
 24 25  2  0
 25 26  1  0
 26 27  1  0
 27 28  1  0
 28 29  1  0
 29 30  1  0
 30 31  1  0
 31 32  1  0
 25 33  1  0
 33 34  2  0
 21  6  1  0
 34 22  1  0
 19 10  1  0
 32 27  1  0
  1 35  1  0
  1 36  1  0
  1 37  1  0
  2 38  1  0
  2 39  1  0
  3 40  1  0
 11 41  1  0
 13 42  1  0
 14 43  1  0
 14 44  1  0
 14 45  1  0
 15 46  1  0
 15 47  1  0
 15 48  1  0
 17 49  1  0
 18 50  1  0
 20 51  1  0
 23 52  1  0
 24 53  1  0
 26 54  1  0
 26 55  1  0
 28 56  1  0
 28 57  1  0
 29 58  1  0
 29 59  1  0
 30 60  1  0
 30 61  1  0
 31 62  1  0
 31 63  1  0
 32 64  1  0
 32 65  1  0
 33 66  1  0
 34 67  1  0
M  END
$$$$
