@<TRIPOS>MOLECULE
*****
 53 56 0 0 0
SMALL
GASTEIGER

@<TRIPOS>ATOM
      1 C          -5.9391   -1.1532    4.2469 C.3     1  UNL1        0.0788
      2 O          -4.5293   -1.0864    4.0085 O.3     1  UNL1       -0.4951
      3 C          -4.1247   -0.6630    2.7305 C.ar    1  UNL1        0.1214
      4 C          -2.7892   -0.5698    2.4152 C.ar    1  UNL1       -0.0078
      5 C          -2.3315   -0.1542    1.1588 C.ar    1  UNL1        0.0411
      6 C          -0.8949   -0.0955    0.9442 C.2     1  UNL1        0.2484
      7 O          -0.0802   -0.4078    1.8570 O.2     1  UNL1       -0.2699
      8 N          -0.3671    0.3124   -0.2912 N.am    1  UNL1       -0.2815
      9 C           1.0353    0.3866   -0.5514 C.ar    1  UNL1        0.0338
     10 C           1.6693   -0.7277   -1.0545 C.ar    1  UNL1       -0.0387
     11 C           3.0427   -0.6953   -1.3229 C.ar    1  UNL1       -0.0387
     12 C           3.7834    0.4365   -1.0934 C.ar    1  UNL1        0.0338
     13 N           5.1643    0.4576   -1.3671 N.am    1  UNL1       -0.2802
     14 C           6.1132    0.0875   -0.3746 C.2     1  UNL1        0.2666
     15 O           5.6646   -0.2566    0.7493 O.2     1  UNL1       -0.2682
     16 C           7.5390    0.0998   -0.6281 C.ar    1  UNL1        0.1256
     17 C           8.4146   -0.2662    0.3627 C.ar    1  UNL1       -0.0312
     18 C           9.7765   -0.2754    0.1853 C.ar    1  UNL1       -0.0582
     19 C          10.2838    0.0990   -1.0406 C.ar    1  UNL1       -0.0436
     20 C           9.3717    0.4620   -2.0171 C.ar    1  UNL1        0.0284
     21 N           8.0436    0.4595   -1.8083 N.ar    1  UNL1       -0.2504
     22 C           3.1406    1.5405   -0.5919 C.ar    1  UNL1       -0.0387
     23 C           1.7701    1.5210   -0.3198 C.ar    1  UNL1       -0.0387
     24 C          -3.2793    0.1640    0.2322 C.ar    1  UNL1       -0.0415
     25 C          -4.6439    0.0888    0.4943 C.ar    1  UNL1       -0.0071
     26 C          -5.6438    0.4323   -0.5067 C.ar    1  UNL1        0.0627
     27 C          -5.5658    0.0047   -1.8106 C.ar    1  UNL1        0.0192
     28 N          -6.5107    0.3396   -2.7210 N.ar    1  UNL1       -0.3137
     29 C          -7.5365    1.0956   -2.3563 C.ar    1  UNL1        0.3267
     30 O          -8.4120    1.3991   -3.2231 O.2     1  UNL1       -0.2467
     31 N          -7.6282    1.5222   -1.0857 N.ar    1  UNL1       -0.2746
     32 C          -6.7166    1.2183   -0.1412 C.ar    1  UNL1        0.2617
     33 O          -6.8385    1.6368    1.0352 O.2     1  UNL1       -0.2671
     34 C          -5.0296   -0.3267    1.7482 C.ar    1  UNL1       -0.0120
     35 H          -6.4023   -1.8843    3.5602 H       1  UNL1        0.0660
     36 H          -6.1542   -1.3437    5.3078 H       1  UNL1        0.0660
     37 H          -6.4152   -0.1569    4.0115 H       1  UNL1        0.0660
     38 H          -2.0545   -0.8270    3.1652 H       1  UNL1        0.0662
     39 H          -1.0072    0.5776   -1.0680 H       1  UNL1        0.1551
     40 H           1.1145   -1.6427   -1.2490 H       1  UNL1        0.0637
     41 H           3.5156   -1.5843   -1.7176 H       1  UNL1        0.0637
     42 H           5.5268    0.7437   -2.3001 H       1  UNL1        0.1552
     43 H           7.9954   -0.5572    1.3195 H       1  UNL1        0.0640
     44 H          10.4390   -0.5685    0.9845 H       1  UNL1        0.0619
     45 H          11.3574    0.1020   -1.2122 H       1  UNL1        0.0633
     46 H           9.7829    0.7548   -2.9779 H       1  UNL1        0.0830
     47 H           3.7269    2.4303   -0.4123 H       1  UNL1        0.0637
     48 H           1.2990    2.4130    0.0756 H       1  UNL1        0.0637
     49 H          -2.9808    0.4876   -0.7445 H       1  UNL1        0.0631
     50 H          -4.7188   -0.6109   -2.0817 H       1  UNL1        0.0816
     51 H          -6.4375    0.0066   -3.7090 H       1  UNL1        0.1698
     52 H          -8.4443    2.1145   -0.8272 H       1  UNL1        0.1734
     53 H          -6.0949   -0.4053    2.0124 H       1  UNL1        0.0660
@<TRIPOS>BOND
     1     1     2    1
     2     2     3    1
     3     3     4   ar
     4     4     5   ar
     5     5     6    1
     6     6     7    2
     7     6     8   am
     8     8     9    1
     9     9    10   ar
    10    10    11   ar
    11    11    12   ar
    12    12    13    1
    13    13    14   am
    14    14    15    2
    15    14    16    1
    16    16    17   ar
    17    17    18   ar
    18    18    19   ar
    19    19    20   ar
    20    20    21   ar
    21    12    22   ar
    22    22    23   ar
    23     5    24   ar
    24    24    25   ar
    25    25    26    1
    26    26    27   ar
    27    27    28   ar
    28    28    29   ar
    29    29    30    2
    30    29    31   ar
    31    31    32   ar
    32    32    33    2
    33    25    34   ar
    34    34     3   ar
    35    23     9   ar
    36    32    26   ar
    37    21    16   ar
    38     1    35    1
    39     1    36    1
    40     1    37    1
    41     4    38    1
    42     8    39    1
    43    10    40    1
    44    11    41    1
    45    13    42    1
    46    17    43    1
    47    18    44    1
    48    19    45    1
    49    20    46    1
    50    22    47    1
    51    23    48    1
    52    24    49    1
    53    27    50    1
    54    28    51    1
    55    31    52    1
    56    34    53    1
