@<TRIPOS>MOLECULE
*****
 47 50 0 0 0
SMALL
GASTEIGER

@<TRIPOS>ATOM
      1 O           1.8262    0.7474   -2.8128 O.2     1  UNL1       -0.2700
      2 C           1.8997    0.1282   -1.7214 C.2     1  UNL1        0.2466
      3 C           3.1618    0.2223   -1.0082 C.ar    1  UNL1        0.0369
      4 C           4.3184   -0.2713   -1.5964 C.ar    1  UNL1       -0.0491
      5 C           5.5388   -0.1933   -0.9598 C.ar    1  UNL1       -0.0494
      6 C           5.6789    0.3750    0.2890 C.ar    1  UNL1        0.0549
      7 C           7.0213    0.4532    0.9517 C.3     1  UNL1        0.4174
      8 F           7.9366    1.0868    0.0959 F       1  UNL1       -0.1659
      9 F           6.9927    1.1981    2.0938 F       1  UNL1       -0.1659
     10 F           7.5396   -0.8068    1.1768 F       1  UNL1       -0.1659
     11 C           4.5352    0.8673    0.8808 C.ar    1  UNL1       -0.0494
     12 C           3.3056    0.7896    0.2406 C.ar    1  UNL1       -0.0491
     13 N           0.7779   -0.5976   -1.2714 N.am    1  UNL1       -0.2973
     14 C           0.8275   -1.3299   -0.0296 C.3     1  UNL1        0.0186
     15 C          -0.2940   -0.9974    0.8819 C.3     1  UNL1        0.0030
     16 C          -1.5795   -0.5831    0.2675 C.3     1  UNL1        0.1138
     17 C          -2.5372   -1.7544    0.2040 C.3     1  UNL1       -0.0087
     18 C          -3.9715   -1.4078    0.1798 C.3     1  UNL1       -0.0206
     19 C          -4.3568   -0.0288    0.4548 C.ar    1  UNL1       -0.0056
     20 C          -5.6577    0.4257    0.2569 C.ar    1  UNL1       -0.0551
     21 C          -5.9781    1.7269    0.5365 C.ar    1  UNL1       -0.0613
     22 C          -5.0663    2.6449    1.0166 C.ar    1  UNL1       -0.0583
     23 C          -3.7779    2.2000    1.2136 C.ar    1  UNL1       -0.0196
     24 C          -3.4475    0.8774    0.9304 C.ar    1  UNL1        0.1245
     25 O          -2.1350    0.4285    1.1318 O.3     1  UNL1       -0.4853
     26 C          -1.4825    0.0465   -1.0956 C.3     1  UNL1        0.0030
     27 C          -0.4776   -0.6528   -1.9873 C.3     1  UNL1        0.0186
     28 H           4.2113   -0.7220   -2.5828 H       1  UNL1        0.0625
     29 H           6.4458   -0.5850   -1.4278 H       1  UNL1        0.0623
     30 H           4.5916    1.3193    1.8517 H       1  UNL1        0.0623
     31 H           2.3954    1.1831    0.7188 H       1  UNL1        0.0625
     32 H           0.8066   -2.4383   -0.2545 H       1  UNL1        0.0466
     33 H           1.7871   -1.1341    0.4972 H       1  UNL1        0.0466
     34 H          -0.5130   -1.9193    1.5043 H       1  UNL1        0.0319
     35 H           0.0528   -0.1983    1.5793 H       1  UNL1        0.0319
     36 H          -2.2673   -2.4111   -0.6581 H       1  UNL1        0.0307
     37 H          -2.3549   -2.3921    1.1188 H       1  UNL1        0.0307
     38 H          -4.5956   -2.1004    0.8350 H       1  UNL1        0.0316
     39 H          -4.3645   -1.6433   -0.8566 H       1  UNL1        0.0316
     40 H          -6.3901   -0.2832   -0.1219 H       1  UNL1        0.0621
     41 H          -7.0119    2.0331    0.3631 H       1  UNL1        0.0618
     42 H          -5.3724    3.6630    1.2211 H       1  UNL1        0.0619
     43 H          -3.0133    2.8579    1.5866 H       1  UNL1        0.0654
     44 H          -1.2922    1.1115   -0.9821 H       1  UNL1        0.0319
     45 H          -2.4661   -0.0520   -1.6006 H       1  UNL1        0.0319
     46 H          -0.7738   -1.7183   -2.0348 H       1  UNL1        0.0466
     47 H          -0.4742   -0.1649   -2.9587 H       1  UNL1        0.0466
@<TRIPOS>BOND
     1     1     2    2
     2     2     3    1
     3     3     4   ar
     4     4     5   ar
     5     5     6   ar
     6     6     7    1
     7     7     8    1
     8     7     9    1
     9     7    10    1
    10     6    11   ar
    11    11    12   ar
    12     2    13   am
    13    13    14    1
    14    14    15    1
    15    15    16    1
    16    16    17    1
    17    17    18    1
    18    18    19    1
    19    19    20   ar
    20    20    21   ar
    21    21    22   ar
    22    22    23   ar
    23    23    24   ar
    24    24    25    1
    25    16    26    1
    26    26    27    1
    27    12     3   ar
    28    27    13    1
    29    25    16    1
    30    24    19   ar
    31     4    28    1
    32     5    29    1
    33    11    30    1
    34    12    31    1
    35    14    32    1
    36    14    33    1
    37    15    34    1
    38    15    35    1
    39    17    36    1
    40    17    37    1
    41    18    38    1
    42    18    39    1
    43    20    40    1
    44    21    41    1
    45    22    42    1
    46    23    43    1
    47    26    44    1
    48    26    45    1
    49    27    46    1
    50    27    47    1
