@<TRIPOS>MOLECULE
*****
 41 43 0 0 0
SMALL
GASTEIGER

@<TRIPOS>ATOM
      1 C          -4.4722    2.8535   -0.7012 C.3     1  UNL1        0.0788
      2 O          -3.0817    3.1031   -0.6822 O.3     1  UNL1       -0.4951
      3 C          -2.1295    2.1636   -0.4024 C.ar    1  UNL1        0.1208
      4 C          -0.8014    2.5591   -0.4215 C.ar    1  UNL1       -0.0180
      5 C           0.2259    1.6938   -0.1559 C.ar    1  UNL1       -0.0337
      6 C          -0.0528    0.3792    0.1412 C.ar    1  UNL1        0.0574
      7 C          -1.3959   -0.0163    0.1618 C.ar    1  UNL1        0.0077
      8 C          -2.4345    0.8496   -0.1044 C.ar    1  UNL1       -0.0105
      9 C          -1.4400   -1.3418    0.5096 C.ar    1  UNL1       -0.0080
     10 C          -2.6633   -2.1809    0.6572 C.3     1  UNL1        0.0721
     11 C          -3.2299   -2.5806   -0.6364 C.2     1  UNL1        0.3091
     12 O          -2.6901   -2.2211   -1.6979 O.2     1  UNL1       -0.2507
     13 O          -4.3630   -3.3564   -0.6841 O.3     1  UNL1       -0.4804
     14 C          -0.1350   -1.7119    0.6872 C.ar    1  UNL1        0.0284
     15 C           0.2488   -3.1016    1.0710 C.3     1  UNL1       -0.0235
     16 N           0.7160   -0.6611    0.4603 N.ar    1  UNL1       -0.2801
     17 C           2.1145   -0.7974    0.6480 C.2     1  UNL1        0.2631
     18 O           2.5298   -1.8769    1.2683 O.2     1  UNL1       -0.2667
     19 C           3.1791    0.0566    0.2656 C.ar    1  UNL1        0.0399
     20 C           4.2917    0.1926    1.0850 C.ar    1  UNL1       -0.0480
     21 C           5.4032    0.9233    0.7373 C.ar    1  UNL1       -0.0427
     22 C           5.4120    1.5502   -0.4836 C.ar    1  UNL1        0.0410
     23 CL          6.8376    2.4793   -0.9106 Cl      1  UNL1       -0.0835
     24 C           4.3294    1.4548   -1.3543 C.ar    1  UNL1       -0.0427
     25 C           3.2301    0.6949   -0.9378 C.ar    1  UNL1       -0.0480
     26 H          -5.0338    3.8104   -0.7331 H       1  UNL1        0.0660
     27 H          -4.7129    2.3086   -1.6294 H       1  UNL1        0.0660
     28 H          -4.8084    2.2265    0.1437 H       1  UNL1        0.0660
     29 H          -0.5610    3.5989   -0.6569 H       1  UNL1        0.0655
     30 H           1.2090    2.0589   -0.1522 H       1  UNL1        0.0640
     31 H          -3.4615    0.5146   -0.0817 H       1  UNL1        0.0661
     32 H          -3.4239   -1.6507    1.3048 H       1  UNL1        0.0427
     33 H          -2.4483   -3.1173    1.2253 H       1  UNL1        0.0427
     34 H          -4.7954   -3.6891   -1.5414 H       1  UNL1        0.2951
     35 H           1.0668   -3.4335    0.3626 H       1  UNL1        0.0292
     36 H           0.6454   -3.1865    2.0815 H       1  UNL1        0.0292
     37 H          -0.5829   -3.8198    0.8447 H       1  UNL1        0.0292
     38 H           4.2695   -0.3058    2.0415 H       1  UNL1        0.0626
     39 H           6.2260    0.9738    1.4410 H       1  UNL1        0.0632
     40 H           4.3699    1.9564   -2.3000 H       1  UNL1        0.0632
     41 H           2.4126    0.6473   -1.6660 H       1  UNL1        0.0626
@<TRIPOS>BOND
     1     1     2    1
     2     2     3    1
     3     3     4   ar
     4     4     5   ar
     5     5     6   ar
     6     6     7   ar
     7     7     8   ar
     8     7     9   ar
     9     9    10    1
    10    10    11    1
    11    11    12    2
    12    11    13    1
    13     9    14   ar
    14    14    15    1
    15    14    16   ar
    16    16    17   am
    17    17    18    2
    18    17    19    1
    19    19    20   ar
    20    20    21   ar
    21    21    22   ar
    22    22    23    1
    23    22    24   ar
    24    24    25   ar
    25     8     3   ar
    26    25    19   ar
    27    16     6   ar
    28     1    26    1
    29     1    27    1
    30     1    28    1
    31     4    29    1
    32     5    30    1
    33     8    31    1
    34    10    32    1
    35    10    33    1
    36    13    34    1
    37    15    35    1
    38    15    36    1
    39    15    37    1
    40    20    38    1
    41    21    39    1
    42    24    40    1
    43    25    41    1
