
     RDKit          3D

 41 43  0  0  0  0  0  0  0  0999 V2000
   -4.4722    2.8535   -0.7012 C   0  0  0  0  0  0  0  0  0  0  0  0
   -3.0817    3.1031   -0.6822 O   0  0  0  0  0  0  0  0  0  0  0  0
   -2.1295    2.1636   -0.4024 C   0  0  0  0  0  0  0  0  0  0  0  0
   -0.8014    2.5591   -0.4215 C   0  0  0  0  0  0  0  0  0  0  0  0
    0.2259    1.6938   -0.1559 C   0  0  0  0  0  0  0  0  0  0  0  0
   -0.0528    0.3792    0.1412 C   0  0  0  0  0  0  0  0  0  0  0  0
   -1.3959   -0.0163    0.1618 C   0  0  0  0  0  0  0  0  0  0  0  0
   -2.4345    0.8496   -0.1044 C   0  0  0  0  0  0  0  0  0  0  0  0
   -1.4400   -1.3418    0.5096 C   0  0  0  0  0  0  0  0  0  0  0  0
   -2.6633   -2.1809    0.6572 C   0  0  0  0  0  0  0  0  0  0  0  0
   -3.2299   -2.5806   -0.6364 C   0  0  0  0  0  0  0  0  0  0  0  0
   -2.6901   -2.2211   -1.6979 O   0  0  0  0  0  0  0  0  0  0  0  0
   -4.3630   -3.3564   -0.6841 O   0  0  0  0  0  0  0  0  0  0  0  0
   -0.1350   -1.7119    0.6872 C   0  0  0  0  0  0  0  0  0  0  0  0
    0.2488   -3.1016    1.0710 C   0  0  0  0  0  0  0  0  0  0  0  0
    0.7160   -0.6611    0.4603 N   0  0  0  0  0  0  0  0  0  0  0  0
    2.1145   -0.7974    0.6480 C   0  0  0  0  0  0  0  0  0  0  0  0
    2.5298   -1.8769    1.2683 O   0  0  0  0  0  0  0  0  0  0  0  0
    3.1791    0.0566    0.2656 C   0  0  0  0  0  0  0  0  0  0  0  0
    4.2917    0.1926    1.0850 C   0  0  0  0  0  0  0  0  0  0  0  0
    5.4032    0.9233    0.7373 C   0  0  0  0  0  0  0  0  0  0  0  0
    5.4120    1.5502   -0.4836 C   0  0  0  0  0  0  0  0  0  0  0  0
    6.8376    2.4793   -0.9106 Cl  0  0  0  0  0  0  0  0  0  0  0  0
    4.3294    1.4548   -1.3543 C   0  0  0  0  0  0  0  0  0  0  0  0
    3.2301    0.6949   -0.9378 C   0  0  0  0  0  0  0  0  0  0  0  0
   -5.0338    3.8104   -0.7331 H   0  0  0  0  0  0  0  0  0  0  0  0
   -4.7129    2.3086   -1.6294 H   0  0  0  0  0  0  0  0  0  0  0  0
   -4.8084    2.2265    0.1437 H   0  0  0  0  0  0  0  0  0  0  0  0
   -0.5610    3.5989   -0.6569 H   0  0  0  0  0  0  0  0  0  0  0  0
    1.2090    2.0589   -0.1522 H   0  0  0  0  0  0  0  0  0  0  0  0
   -3.4615    0.5146   -0.0817 H   0  0  0  0  0  0  0  0  0  0  0  0
   -3.4239   -1.6507    1.3048 H   0  0  0  0  0  0  0  0  0  0  0  0
   -2.4483   -3.1173    1.2253 H   0  0  0  0  0  0  0  0  0  0  0  0
   -4.7954   -3.6891   -1.5414 H   0  0  0  0  0  0  0  0  0  0  0  0
    1.0668   -3.4335    0.3626 H   0  0  0  0  0  0  0  0  0  0  0  0
    0.6454   -3.1865    2.0815 H   0  0  0  0  0  0  0  0  0  0  0  0
   -0.5829   -3.8198    0.8447 H   0  0  0  0  0  0  0  0  0  0  0  0
    4.2695   -0.3058    2.0415 H   0  0  0  0  0  0  0  0  0  0  0  0
    6.2260    0.9738    1.4410 H   0  0  0  0  0  0  0  0  0  0  0  0
    4.3699    1.9564   -2.3000 H   0  0  0  0  0  0  0  0  0  0  0  0
    2.4126    0.6473   -1.6660 H   0  0  0  0  0  0  0  0  0  0  0  0
  1  2  1  0
  2  3  1  0
  3  4  2  0
  4  5  1  0
  5  6  2  0
  6  7  1  0
  7  8  2  0
  7  9  1  0
  9 10  1  0
 10 11  1  0
 11 12  2  0
 11 13  1  0
  9 14  2  0
 14 15  1  0
 14 16  1  0
 16 17  1  0
 17 18  2  0
 17 19  1  0
 19 20  2  0
 20 21  1  0
 21 22  2  0
 22 23  1  0
 22 24  1  0
 24 25  2  0
  8  3  1  0
 25 19  1  0
 16  6  1  0
  1 26  1  0
  1 27  1  0
  1 28  1  0
  4 29  1  0
  5 30  1  0
  8 31  1  0
 10 32  1  0
 10 33  1  0
 13 34  1  0
 15 35  1  0
 15 36  1  0
 15 37  1  0
 20 38  1  0
 21 39  1  0
 24 40  1  0
 25 41  1  0
M  END
$$$$
