@<TRIPOS>MOLECULE
*****
 54 58 0 0 0
SMALL
GASTEIGER

@<TRIPOS>ATOM
      1 C          -1.4211   -2.1616    2.2589 C.3     1  UNL1       -0.0377
      2 C          -2.4921   -1.9125    1.2893 C.ar    1  UNL1       -0.0250
      3 C          -3.8142   -2.0484    1.6960 C.ar    1  UNL1       -0.0568
      4 C          -4.8419   -1.8324    0.8135 C.ar    1  UNL1       -0.0614
      5 C          -4.5437   -1.4782   -0.4825 C.ar    1  UNL1       -0.0597
      6 C          -3.2292   -1.3458   -0.8765 C.ar    1  UNL1       -0.0359
      7 C          -2.1837   -1.5559   -0.0147 C.ar    1  UNL1        0.0703
      8 N          -0.8393   -1.4222   -0.4354 N.ar    1  UNL1       -0.2173
      9 N          -0.2458   -2.3992   -1.1412 N.ar    1  UNL1       -0.1693
     10 C           1.0174   -2.0821   -1.4060 C.ar    1  UNL1        0.0699
     11 C           2.0138   -2.8848   -2.1595 C.3     1  UNL1       -0.0199
     12 C           1.2110   -0.8434   -0.8324 C.ar    1  UNL1        0.0450
     13 C           2.4568   -0.0973   -0.8665 C.ar    1  UNL1       -0.0080
     14 C           2.6787    0.7696   -1.9074 C.ar    1  UNL1       -0.0163
     15 C           3.8476    1.4985   -1.9810 C.ar    1  UNL1        0.1513
     16 F           4.0065    2.3342   -3.0357 F       1  UNL1       -0.2032
     17 C           4.7886    1.3419   -0.9907 C.ar    1  UNL1        0.1242
     18 N           5.9275    2.0624   -1.0774 N.ar    1  UNL1       -0.2491
     19 C           6.9010    1.9629   -0.1424 C.ar    1  UNL1        0.0465
     20 C           6.7084    1.1042    0.9120 C.ar    1  UNL1        0.0464
     21 N           5.5611    0.3879    0.9862 N.ar    1  UNL1       -0.2518
     22 C           4.5999    0.4837    0.0661 C.ar    1  UNL1        0.0926
     23 C           3.4183   -0.2288    0.1051 C.ar    1  UNL1       -0.0262
     24 C           0.0287   -0.4269   -0.2172 C.ar    1  UNL1        0.1346
     25 N          -0.1814    0.7836    0.4445 N.pl3   1  UNL1       -0.2982
     26 C          -1.4034    1.3555    0.8348 C.ar    1  UNL1        0.0465
     27 C          -1.6685    1.4928    2.1893 C.ar    1  UNL1       -0.0397
     28 C          -2.8147    2.0554    2.6941 C.ar    1  UNL1       -0.0600
     29 C          -3.7471    2.5051    1.7823 C.ar    1  UNL1       -0.0609
     30 C          -3.5193    2.3871    0.4316 C.ar    1  UNL1       -0.0460
     31 C          -2.3307    1.8051   -0.0581 C.ar    1  UNL1        0.0799
     32 C          -2.0872    1.7403   -1.4799 C.2     1  UNL1        0.3386
     33 O          -1.0366    1.2982   -1.9653 O.2     1  UNL1       -0.2451
     34 O          -3.0683    2.1906   -2.3505 O.3     1  UNL1       -0.4771
     35 H          -0.5809   -2.7551    1.8142 H       1  UNL1        0.0278
     36 H          -1.0572   -1.2557    2.7728 H       1  UNL1        0.0278
     37 H          -1.8162   -2.8224    3.0856 H       1  UNL1        0.0278
     38 H          -4.0031   -2.3285    2.7279 H       1  UNL1        0.0621
     39 H          -5.8872   -1.9425    1.1479 H       1  UNL1        0.0618
     40 H          -5.3836   -1.3147   -1.1537 H       1  UNL1        0.0618
     41 H          -3.0473   -1.0589   -1.9271 H       1  UNL1        0.0639
     42 H           1.4408   -3.5064   -2.8824 H       1  UNL1        0.0293
     43 H           2.6424   -3.5170   -1.4962 H       1  UNL1        0.0293
     44 H           2.6705   -2.1726   -2.7126 H       1  UNL1        0.0293
     45 H           1.9447    0.8834   -2.6668 H       1  UNL1        0.0653
     46 H           7.7742    2.5679   -0.2822 H       1  UNL1        0.0845
     47 H           7.4895    1.0243    1.6640 H       1  UNL1        0.0845
     48 H           3.2730   -0.9087    0.9447 H       1  UNL1        0.0645
     49 H           0.7156    1.3336    0.6800 H       1  UNL1        0.1536
     50 H          -0.9296    1.1361    2.9020 H       1  UNL1        0.0636
     51 H          -3.0071    2.1566    3.7611 H       1  UNL1        0.0618
     52 H          -4.6530    2.9493    2.1862 H       1  UNL1        0.0618
     53 H          -4.2298    2.7293   -0.2971 H       1  UNL1        0.0626
     54 H          -3.0528    1.9623   -3.3518 H       1  UNL1        0.2954
@<TRIPOS>BOND
     1     1     2    1
     2     2     3   ar
     3     3     4   ar
     4     4     5   ar
     5     5     6   ar
     6     6     7   ar
     7     7     8    1
     8     8     9   ar
     9     9    10   ar
    10    10    11    1
    11    10    12   ar
    12    12    13    1
    13    13    14   ar
    14    14    15   ar
    15    15    16    1
    16    15    17   ar
    17    17    18   ar
    18    18    19   ar
    19    19    20   ar
    20    20    21   ar
    21    21    22   ar
    22    22    23   ar
    23    12    24   ar
    24    24    25    1
    25    25    26    1
    26    26    27   ar
    27    27    28   ar
    28    28    29   ar
    29    29    30   ar
    30    30    31   ar
    31    31    32    1
    32    32    33    2
    33    32    34    1
    34     7     2   ar
    35    24     8   ar
    36    31    26   ar
    37    23    13   ar
    38    22    17   ar
    39     1    35    1
    40     1    36    1
    41     1    37    1
    42     3    38    1
    43     4    39    1
    44     5    40    1
    45     6    41    1
    46    11    42    1
    47    11    43    1
    48    11    44    1
    49    14    45    1
    50    19    46    1
    51    20    47    1
    52    23    48    1
    53    25    49    1
    54    27    50    1
    55    28    51    1
    56    29    52    1
    57    30    53    1
    58    34    54    1
