
     RDKit          3D

 24 24  0  0  0  0  0  0  0  0999 V2000
   -0.7369   -0.9005    0.2273 C   0  0  1  0  0  0  0  0  0  0  0  0
   -1.9762   -1.7288    0.2147 C   0  0  0  0  0  0  0  0  0  0  0  0
    0.2683   -1.4262   -0.6175 O   0  0  0  0  0  0  0  0  0  0  0  0
    1.4720   -0.8098   -0.3955 C   0  0  2  0  0  0  0  0  0  0  0  0
    1.9290   -1.1206    0.8721 O   0  0  0  0  0  0  0  0  0  0  0  0
    1.4515    0.6864   -0.5536 C   0  0  2  0  0  0  0  0  0  0  0  0
    2.6702    1.1824   -0.0775 O   0  0  0  0  0  0  0  0  0  0  0  0
    0.3160    1.2348    0.2763 C   0  0  1  0  0  0  0  0  0  0  0  0
    0.1535    2.5951    0.1788 O   0  0  0  0  0  0  0  0  0  0  0  0
   -0.9240    0.5118   -0.2246 C   0  0  2  0  0  0  0  0  0  0  0  0
   -2.1376    1.1243    0.2265 N   0  0  0  0  0  0  0  0  0  0  0  0
   -0.2850   -0.9291    1.2534 H   0  0  0  0  0  0  0  0  0  0  0  0
   -2.3987   -1.7222    1.2547 H   0  0  0  0  0  0  0  0  0  0  0  0
   -2.7724   -1.3488   -0.4528 H   0  0  0  0  0  0  0  0  0  0  0  0
   -1.7425   -2.8062    0.0185 H   0  0  0  0  0  0  0  0  0  0  0  0
    2.1880   -1.2667   -1.1260 H   0  0  0  0  0  0  0  0  0  0  0  0
    2.2876   -2.0431    0.9038 H   0  0  0  0  0  0  0  0  0  0  0  0
    1.2814    0.9717   -1.6123 H   0  0  0  0  0  0  0  0  0  0  0  0
    3.3542    0.4805   -0.0042 H   0  0  0  0  0  0  0  0  0  0  0  0
    0.5022    0.8790    1.3233 H   0  0  0  0  0  0  0  0  0  0  0  0
    1.0081    3.0633    0.0772 H   0  0  0  0  0  0  0  0  0  0  0  0
   -0.9004    0.5542   -1.3415 H   0  0  0  0  0  0  0  0  0  0  0  0
   -2.0932    2.1213   -0.1014 H   0  0  0  0  0  0  0  0  0  0  0  0
   -2.9151    0.6970   -0.3196 H   0  0  0  0  0  0  0  0  0  0  0  0
  1  2  1  0
  1  3  1  0
  3  4  1  0
  4  5  1  0
  4  6  1  0
  6  7  1  0
  6  8  1  0
  8  9  1  0
  8 10  1  0
 10 11  1  0
 10  1  1  0
  1 12  1  1
  2 13  1  0
  2 14  1  0
  2 15  1  0
  4 16  1  6
  5 17  1  0
  6 18  1  6
  7 19  1  0
  8 20  1  1
  9 21  1  0
 10 22  1  6
 11 23  1  0
 11 24  1  0
M  END
$$$$
