@<TRIPOS>MOLECULE
*****
 24 24 0 0 0
SMALL
GASTEIGER

@<TRIPOS>ATOM
      1 C          -0.7369   -0.9005    0.2273 C.3     1  UNL1        0.0765
      2 C          -1.9762   -1.7288    0.2147 C.3     1  UNL1       -0.0370
      3 O           0.2683   -1.4262   -0.6175 O.3     1  UNL1       -0.3443
      4 C           1.4720   -0.8098   -0.3955 C.3     1  UNL1        0.1852
      5 O           1.9290   -1.1206    0.8721 O.3     1  UNL1       -0.3649
      6 C           1.4515    0.6864   -0.5536 C.3     1  UNL1        0.1330
      7 O           2.6702    1.1824   -0.0775 O.3     1  UNL1       -0.3841
      8 C           0.3160    1.2348    0.2763 C.3     1  UNL1        0.1032
      9 O           0.1535    2.5951    0.1788 O.3     1  UNL1       -0.3874
     10 C          -0.9240    0.5118   -0.2246 C.3     1  UNL1        0.0601
     11 N          -2.1376    1.1243    0.2265 N.3     1  UNL1       -0.3231
     12 H          -0.2850   -0.9291    1.2534 H       1  UNL1        0.0610
     13 H          -2.3987   -1.7222    1.2547 H       1  UNL1        0.0255
     14 H          -2.7724   -1.3488   -0.4528 H       1  UNL1        0.0255
     15 H          -1.7425   -2.8062    0.0185 H       1  UNL1        0.0255
     16 H           2.1880   -1.2667   -1.1260 H       1  UNL1        0.0935
     17 H           2.2876   -2.0431    0.9038 H       1  UNL1        0.2126
     18 H           1.2814    0.9717   -1.6123 H       1  UNL1        0.0671
     19 H           3.3542    0.4805   -0.0042 H       1  UNL1        0.2101
     20 H           0.5022    0.8790    1.3233 H       1  UNL1        0.0637
     21 H           1.0081    3.0633    0.0772 H       1  UNL1        0.2100
     22 H          -0.9004    0.5542   -1.3415 H       1  UNL1        0.0510
     23 H          -2.0932    2.1213   -0.1014 H       1  UNL1        0.1186
     24 H          -2.9151    0.6970   -0.3196 H       1  UNL1        0.1186
@<TRIPOS>BOND
     1     1     2    1
     2     1     3    1
     3     3     4    1
     4     4     5    1
     5     4     6    1
     6     6     7    1
     7     6     8    1
     8     8     9    1
     9     8    10    1
    10    10    11    1
    11    10     1    1
    12     1    12    1
    13     2    13    1
    14     2    14    1
    15     2    15    1
    16     4    16    1
    17     5    17    1
    18     6    18    1
    19     7    19    1
    20     8    20    1
    21     9    21    1
    22    10    22    1
    23    11    23    1
    24    11    24    1
