@<TRIPOS>MOLECULE
*****
 78 81 0 0 0
SMALL
GASTEIGER

@<TRIPOS>ATOM
      1 C           0.1723   -5.5816   -2.6424 C.3     1  UNL1        0.0365
      2 O          -1.0584   -5.5569   -3.2549 O.3     1  UNL1       -0.3807
      3 C          -1.5544   -4.3113   -3.4027 C.3     1  UNL1        0.0706
      4 C          -1.8161   -3.4881   -2.1812 C.3     1  UNL1        0.0710
      5 O          -0.7319   -3.2192   -1.3916 O.3     1  UNL1       -0.3767
      6 C          -1.0769   -2.5125   -0.2709 C.3     1  UNL1        0.0607
      7 C          -1.6830   -1.1802   -0.4254 C.3     1  UNL1        0.0810
      8 C          -0.9497   -0.1086   -1.0976 C.3     1  UNL1       -0.0240
      9 C           0.3513    0.3926   -0.6126 C.3     1  UNL1        0.0478
     10 C           0.4627    0.9400    0.7266 C.3     1  UNL1       -0.0390
     11 C           0.7774    2.4018    0.7034 C.3     1  UNL1       -0.0521
     12 C           1.1720    2.7038   -0.6863 C.3     1  UNL1       -0.0521
     13 C           0.7135    1.5860   -1.5214 C.3     1  UNL1       -0.0390
     14 C           1.4025   -0.6239   -0.9542 C.2     1  UNL1        0.2194
     15 O           1.8541   -1.6952   -1.4717 O.2     1  UNL1       -0.2752
     16 N           2.6374   -0.1643   -0.3896 N.am    1  UNL1       -0.3120
     17 C           3.9777   -0.7393   -0.4060 C.3     1  UNL1        0.0232
     18 C           4.8833    0.2136   -1.1339 C.3     1  UNL1       -0.0338
     19 C           5.9999    0.6187   -0.1863 C.3     1  UNL1       -0.0384
     20 C           6.7732   -0.6727    0.1003 C.3     1  UNL1        0.0564
     21 C           5.8768   -1.5743    0.8858 C.3     1  UNL1       -0.0384
     22 C           4.4524   -1.0749    0.9850 C.3     1  UNL1       -0.0338
     23 C           8.0040   -0.2723    0.7895 C.2     1  UNL1        0.3078
     24 O           8.8437    0.5808    0.0931 O.3     1  UNL1       -0.4804
     25 O           8.4436   -0.5773    1.9382 O.2     1  UNL1       -0.2507
     26 C          -2.3858   -0.7348    0.8480 C.2     1  UNL1        0.3177
     27 O          -2.9152   -0.4843    1.9487 O.2     1  UNL1       -0.2500
     28 O          -3.0801    0.2858    1.1142 O.3     1  UNL1       -0.4256
     29 C          -3.7846    1.2784    1.4574 C.ar    1  UNL1        0.1319
     30 C          -5.1637    1.1145    1.2676 C.ar    1  UNL1       -0.0158
     31 C          -6.1071    2.0959    1.5860 C.ar    1  UNL1       -0.0407
     32 C          -5.6082    3.2716    2.1119 C.ar    1  UNL1       -0.0439
     33 C          -6.6883    4.2445    2.4135 C.3     1  UNL1       -0.0271
     34 C          -7.9054    3.3470    2.4570 C.3     1  UNL1       -0.0450
     35 C          -7.5842    2.2162    1.5054 C.3     1  UNL1       -0.0270
     36 C          -4.2567    3.4657    2.3112 C.ar    1  UNL1       -0.0548
     37 C          -3.3397    2.4756    1.9872 C.ar    1  UNL1       -0.0190
     38 H           0.9545   -4.9818   -3.1795 H       1  UNL1        0.0524
     39 H           0.0937   -5.2735   -1.6094 H       1  UNL1        0.0524
     40 H           0.5840   -6.6359   -2.7288 H       1  UNL1        0.0524
     41 H          -0.9371   -3.7217   -4.1555 H       1  UNL1        0.0582
     42 H          -2.5509   -4.4156   -3.9344 H       1  UNL1        0.0582
     43 H          -2.2661   -2.5342   -2.5513 H       1  UNL1        0.0583
     44 H          -2.5695   -4.0383   -1.5578 H       1  UNL1        0.0583
     45 H          -0.1092   -2.4015    0.3048 H       1  UNL1        0.0568
     46 H          -1.7515   -3.2254    0.3096 H       1  UNL1        0.0568
     47 H          -2.6036   -1.3444   -1.0806 H       1  UNL1        0.0437
     48 H          -0.8862   -0.4174   -2.1885 H       1  UNL1        0.0284
     49 H          -1.6772    0.7600   -1.1742 H       1  UNL1        0.0284
     50 H           1.2515    0.4741    1.3753 H       1  UNL1        0.0275
     51 H          -0.4567    0.8531    1.3473 H       1  UNL1        0.0275
     52 H           1.5578    2.6835    1.4585 H       1  UNL1        0.0266
     53 H          -0.1112    3.0359    1.0340 H       1  UNL1        0.0266
     54 H           0.7514    3.6992   -0.9856 H       1  UNL1        0.0266
     55 H           2.2988    2.8289   -0.7133 H       1  UNL1        0.0266
     56 H           1.4901    1.3440   -2.2562 H       1  UNL1        0.0275
     57 H          -0.1849    1.9061   -2.1228 H       1  UNL1        0.0275
     58 H           2.8501    0.7055    0.1776 H       1  UNL1        0.1490
     59 H           3.9781   -1.6932   -0.9698 H       1  UNL1        0.0498
     60 H           5.3529   -0.2201   -2.0413 H       1  UNL1        0.0283
     61 H           4.3487    1.1431   -1.4541 H       1  UNL1        0.0283
     62 H           6.6488    1.3650   -0.6799 H       1  UNL1        0.0274
     63 H           5.5323    0.9739    0.7405 H       1  UNL1        0.0274
     64 H           6.9872   -1.1371   -0.8880 H       1  UNL1        0.0413
     65 H           6.2864   -1.6986    1.9074 H       1  UNL1        0.0274
     66 H           5.8625   -2.6010    0.4156 H       1  UNL1        0.0274
     67 H           4.2915   -0.3002    1.7337 H       1  UNL1        0.0283
     68 H           3.8555   -1.9733    1.3146 H       1  UNL1        0.0283
     69 H           9.7835    0.8230    0.3580 H       1  UNL1        0.2951
     70 H          -5.6352    0.2069    0.8569 H       1  UNL1        0.0657
     71 H          -6.8035    4.9015    1.5285 H       1  UNL1        0.0313
     72 H          -6.5301    4.7928    3.3520 H       1  UNL1        0.0313
     73 H          -7.9466    2.9251    3.4850 H       1  UNL1        0.0272
     74 H          -8.8257    3.8976    2.1639 H       1  UNL1        0.0272
     75 H          -8.0027    1.2695    1.8847 H       1  UNL1        0.0313
     76 H          -7.9475    2.4677    0.4945 H       1  UNL1        0.0313
     77 H          -3.8130    4.3667    2.7220 H       1  UNL1        0.0622
     78 H          -2.2589    2.5292    2.1054 H       1  UNL1        0.0654
@<TRIPOS>BOND
     1     1     2    1
     2     2     3    1
     3     3     4    1
     4     4     5    1
     5     5     6    1
     6     6     7    1
     7     7     8    1
     8     8     9    1
     9     9    10    1
    10    10    11    1
    11    11    12    1
    12    12    13    1
    13     9    14    1
    14    14    15    2
    15    14    16   am
    16    16    17    1
    17    17    18    1
    18    18    19    1
    19    19    20    1
    20    20    21    1
    21    21    22    1
    22    20    23    1
    23    23    24    1
    24    23    25    2
    25     7    26    1
    26    26    27    2
    27    26    28    1
    28    28    29    1
    29    29    30   ar
    30    30    31   ar
    31    31    32   ar
    32    32    33    1
    33    33    34    1
    34    34    35    1
    35    32    36   ar
    36    36    37   ar
    37    13     9    1
    38    22    17    1
    39    37    29   ar
    40    35    31    1
    41     1    38    1
    42     1    39    1
    43     1    40    1
    44     3    41    1
    45     3    42    1
    46     4    43    1
    47     4    44    1
    48     6    45    1
    49     6    46    1
    50     7    47    1
    51     8    48    1
    52     8    49    1
    53    10    50    1
    54    10    51    1
    55    11    52    1
    56    11    53    1
    57    12    54    1
    58    12    55    1
    59    13    56    1
    60    13    57    1
    61    16    58    1
    62    17    59    1
    63    18    60    1
    64    18    61    1
    65    19    62    1
    66    19    63    1
    67    20    64    1
    68    21    65    1
    69    21    66    1
    70    22    67    1
    71    22    68    1
    72    24    69    1
    73    30    70    1
    74    33    71    1
    75    33    72    1
    76    34    73    1
    77    34    74    1
    78    35    75    1
    79    35    76    1
    80    36    77    1
    81    37    78    1
