
     RDKit          3D

 78 81  0  0  0  0  0  0  0  0999 V2000
    0.1723   -5.5816   -2.6424 C   0  0  0  0  0  0  0  0  0  0  0  0
   -1.0584   -5.5569   -3.2549 O   0  0  0  0  0  0  0  0  0  0  0  0
   -1.5544   -4.3113   -3.4027 C   0  0  0  0  0  0  0  0  0  0  0  0
   -1.8161   -3.4881   -2.1812 C   0  0  0  0  0  0  0  0  0  0  0  0
   -0.7319   -3.2192   -1.3916 O   0  0  0  0  0  0  0  0  0  0  0  0
   -1.0769   -2.5125   -0.2709 C   0  0  0  0  0  0  0  0  0  0  0  0
   -1.6830   -1.1802   -0.4254 C   0  0  2  0  0  0  0  0  0  0  0  0
   -0.9497   -0.1086   -1.0976 C   0  0  0  0  0  0  0  0  0  0  0  0
    0.3513    0.3926   -0.6126 C   0  0  0  0  0  0  0  0  0  0  0  0
    0.4627    0.9400    0.7266 C   0  0  0  0  0  0  0  0  0  0  0  0
    0.7774    2.4018    0.7034 C   0  0  0  0  0  0  0  0  0  0  0  0
    1.1720    2.7038   -0.6863 C   0  0  0  0  0  0  0  0  0  0  0  0
    0.7135    1.5860   -1.5214 C   0  0  0  0  0  0  0  0  0  0  0  0
    1.4025   -0.6239   -0.9542 C   0  0  0  0  0  0  0  0  0  0  0  0
    1.8541   -1.6952   -1.4717 O   0  0  0  0  0  0  0  0  0  0  0  0
    2.6374   -0.1643   -0.3896 N   0  0  0  0  0  0  0  0  0  0  0  0
    3.9777   -0.7393   -0.4060 C   0  0  1  0  0  0  0  0  0  0  0  0
    4.8833    0.2136   -1.1339 C   0  0  0  0  0  0  0  0  0  0  0  0
    5.9999    0.6187   -0.1863 C   0  0  0  0  0  0  0  0  0  0  0  0
    6.7732   -0.6727    0.1003 C   0  0  2  0  0  0  0  0  0  0  0  0
    5.8768   -1.5743    0.8858 C   0  0  0  0  0  0  0  0  0  0  0  0
    4.4524   -1.0749    0.9850 C   0  0  0  0  0  0  0  0  0  0  0  0
    8.0040   -0.2723    0.7895 C   0  0  0  0  0  0  0  0  0  0  0  0
    8.8437    0.5808    0.0931 O   0  0  0  0  0  0  0  0  0  0  0  0
    8.4436   -0.5773    1.9382 O   0  0  0  0  0  0  0  0  0  0  0  0
   -2.3858   -0.7348    0.8480 C   0  0  0  0  0  0  0  0  0  0  0  0
   -2.9152   -0.4843    1.9487 O   0  0  0  0  0  0  0  0  0  0  0  0
   -3.0801    0.2858    1.1142 O   0  0  0  0  0  0  0  0  0  0  0  0
   -3.7846    1.2784    1.4574 C   0  0  0  0  0  0  0  0  0  0  0  0
   -5.1637    1.1145    1.2676 C   0  0  0  0  0  0  0  0  0  0  0  0
   -6.1071    2.0959    1.5860 C   0  0  0  0  0  0  0  0  0  0  0  0
   -5.6082    3.2716    2.1119 C   0  0  0  0  0  0  0  0  0  0  0  0
   -6.6883    4.2445    2.4135 C   0  0  0  0  0  0  0  0  0  0  0  0
   -7.9054    3.3470    2.4570 C   0  0  0  0  0  0  0  0  0  0  0  0
   -7.5842    2.2162    1.5054 C   0  0  0  0  0  0  0  0  0  0  0  0
   -4.2567    3.4657    2.3112 C   0  0  0  0  0  0  0  0  0  0  0  0
   -3.3397    2.4756    1.9872 C   0  0  0  0  0  0  0  0  0  0  0  0
    0.9545   -4.9818   -3.1795 H   0  0  0  0  0  0  0  0  0  0  0  0
    0.0937   -5.2735   -1.6094 H   0  0  0  0  0  0  0  0  0  0  0  0
    0.5840   -6.6359   -2.7288 H   0  0  0  0  0  0  0  0  0  0  0  0
   -0.9371   -3.7217   -4.1555 H   0  0  0  0  0  0  0  0  0  0  0  0
   -2.5509   -4.4156   -3.9344 H   0  0  0  0  0  0  0  0  0  0  0  0
   -2.2661   -2.5342   -2.5513 H   0  0  0  0  0  0  0  0  0  0  0  0
   -2.5695   -4.0383   -1.5578 H   0  0  0  0  0  0  0  0  0  0  0  0
   -0.1092   -2.4015    0.3048 H   0  0  0  0  0  0  0  0  0  0  0  0
   -1.7515   -3.2254    0.3096 H   0  0  0  0  0  0  0  0  0  0  0  0
   -2.6036   -1.3444   -1.0806 H   0  0  0  0  0  0  0  0  0  0  0  0
   -0.8862   -0.4174   -2.1885 H   0  0  0  0  0  0  0  0  0  0  0  0
   -1.6772    0.7600   -1.1742 H   0  0  0  0  0  0  0  0  0  0  0  0
    1.2515    0.4741    1.3753 H   0  0  0  0  0  0  0  0  0  0  0  0
   -0.4567    0.8531    1.3473 H   0  0  0  0  0  0  0  0  0  0  0  0
    1.5578    2.6835    1.4585 H   0  0  0  0  0  0  0  0  0  0  0  0
   -0.1112    3.0359    1.0340 H   0  0  0  0  0  0  0  0  0  0  0  0
    0.7514    3.6992   -0.9856 H   0  0  0  0  0  0  0  0  0  0  0  0
    2.2988    2.8289   -0.7133 H   0  0  0  0  0  0  0  0  0  0  0  0
    1.4901    1.3440   -2.2562 H   0  0  0  0  0  0  0  0  0  0  0  0
   -0.1849    1.9061   -2.1228 H   0  0  0  0  0  0  0  0  0  0  0  0
    2.8501    0.7055    0.1776 H   0  0  0  0  0  0  0  0  0  0  0  0
    3.9781   -1.6932   -0.9698 H   0  0  0  0  0  0  0  0  0  0  0  0
    5.3529   -0.2201   -2.0413 H   0  0  0  0  0  0  0  0  0  0  0  0
    4.3487    1.1431   -1.4541 H   0  0  0  0  0  0  0  0  0  0  0  0
    6.6488    1.3650   -0.6799 H   0  0  0  0  0  0  0  0  0  0  0  0
    5.5323    0.9739    0.7405 H   0  0  0  0  0  0  0  0  0  0  0  0
    6.9872   -1.1371   -0.8880 H   0  0  0  0  0  0  0  0  0  0  0  0
    6.2864   -1.6986    1.9074 H   0  0  0  0  0  0  0  0  0  0  0  0
    5.8625   -2.6010    0.4156 H   0  0  0  0  0  0  0  0  0  0  0  0
    4.2915   -0.3002    1.7337 H   0  0  0  0  0  0  0  0  0  0  0  0
    3.8555   -1.9733    1.3146 H   0  0  0  0  0  0  0  0  0  0  0  0
    9.7835    0.8230    0.3580 H   0  0  0  0  0  0  0  0  0  0  0  0
   -5.6352    0.2069    0.8569 H   0  0  0  0  0  0  0  0  0  0  0  0
   -6.8035    4.9015    1.5285 H   0  0  0  0  0  0  0  0  0  0  0  0
   -6.5301    4.7928    3.3520 H   0  0  0  0  0  0  0  0  0  0  0  0
   -7.9466    2.9251    3.4850 H   0  0  0  0  0  0  0  0  0  0  0  0
   -8.8257    3.8976    2.1639 H   0  0  0  0  0  0  0  0  0  0  0  0
   -8.0027    1.2695    1.8847 H   0  0  0  0  0  0  0  0  0  0  0  0
   -7.9475    2.4677    0.4945 H   0  0  0  0  0  0  0  0  0  0  0  0
   -3.8130    4.3667    2.7220 H   0  0  0  0  0  0  0  0  0  0  0  0
   -2.2589    2.5292    2.1054 H   0  0  0  0  0  0  0  0  0  0  0  0
  1  2  1  0
  2  3  1  0
  3  4  1  0
  4  5  1  0
  5  6  1  0
  6  7  1  0
  7  8  1  0
  8  9  1  0
  9 10  1  0
 10 11  1  0
 11 12  1  0
 12 13  1  0
  9 14  1  0
 14 15  2  0
 14 16  1  0
 16 17  1  0
 17 18  1  0
 18 19  1  0
 19 20  1  0
 20 21  1  0
 21 22  1  0
 20 23  1  0
 23 24  1  0
 23 25  2  0
  7 26  1  0
 26 27  2  0
 26 28  1  0
 28 29  1  0
 29 30  2  0
 30 31  1  0
 31 32  2  0
 32 33  1  0
 33 34  1  0
 34 35  1  0
 32 36  1  0
 36 37  2  0
 13  9  1  0
 22 17  1  0
 37 29  1  0
 35 31  1  0
  1 38  1  0
  1 39  1  0
  1 40  1  0
  3 41  1  0
  3 42  1  0
  4 43  1  0
  4 44  1  0
  6 45  1  0
  6 46  1  0
  7 47  1  6
  8 48  1  0
  8 49  1  0
 10 50  1  0
 10 51  1  0
 11 52  1  0
 11 53  1  0
 12 54  1  0
 12 55  1  0
 13 56  1  0
 13 57  1  0
 16 58  1  0
 17 59  1  6
 18 60  1  0
 18 61  1  0
 19 62  1  0
 19 63  1  0
 20 64  1  6
 21 65  1  0
 21 66  1  0
 22 67  1  0
 22 68  1  0
 24 69  1  0
 30 70  1  0
 33 71  1  0
 33 72  1  0
 34 73  1  0
 34 74  1  0
 35 75  1  0
 35 76  1  0
 36 77  1  0
 37 78  1  0
M  END
$$$$
