@<TRIPOS>MOLECULE
*****
 62 66 0 0 0
SMALL
GASTEIGER

@<TRIPOS>ATOM
      1 C          -9.6840    0.0117    0.5535 C.3     1  UNL1        0.0371
      2 O          -8.9510    0.9020   -0.1638 O.3     1  UNL1       -0.3738
      3 C          -7.6732    1.1273    0.2347 C.3     1  UNL1        0.1235
      4 C          -6.8317   -0.0746    0.1227 C.2     1  UNL1        0.2413
      5 O          -7.3127   -1.1249   -0.3586 O.2     1  UNL1       -0.2731
      6 N          -5.4765   -0.1233    0.5341 N.am    1  UNL1       -0.2995
      7 C          -4.6501   -1.3081    0.4249 C.3     1  UNL1        0.0167
      8 C          -3.5472   -0.9554   -0.5473 C.3     1  UNL1       -0.0146
      9 C          -2.9821    0.4477   -0.2815 C.3     1  UNL1        0.0559
     10 N          -1.5856    0.4211   -0.6390 N.ar    1  UNL1       -0.2634
     11 N          -1.1809   -0.1218   -1.8139 N.ar    1  UNL1       -0.1741
     12 C           0.1289   -0.0325   -1.9022 C.ar    1  UNL1        0.0814
     13 C           0.9994   -0.4939   -3.0166 C.3     1  UNL1       -0.0188
     14 C           0.6351    0.5769   -0.7793 C.ar    1  UNL1        0.0774
     15 N           1.9762    0.8674   -0.4353 N.pl3   1  UNL1       -0.2807
     16 C           2.7884   -0.0326    0.3154 C.ar    1  UNL1        0.2202
     17 N           2.3548   -0.6309    1.4320 N.ar    1  UNL1       -0.2212
     18 C           3.1309   -1.4908    2.1103 C.ar    1  UNL1        0.0516
     19 C           4.4034   -1.7866    1.6776 C.ar    1  UNL1        0.0852
     20 CL          5.4387   -2.9177    2.5601 Cl      1  UNL1       -0.0797
     21 C           4.8456   -1.1632    0.5200 C.ar    1  UNL1        0.0979
     22 C           6.1730   -1.4805    0.0446 C.ar    1  UNL1        0.0470
     23 C           6.7093   -2.7355   -0.1311 C.ar    1  UNL1        0.0596
     24 N           7.9584   -2.5578   -0.5810 N.ar    1  UNL1       -0.1741
     25 N           8.2197   -1.2523   -0.6918 N.ar    1  UNL1       -0.2392
     26 C           9.3105   -0.5675   -1.0937 C.ar    1  UNL1        0.0298
     27 C           9.3826    0.8044   -1.1401 C.ar    1  UNL1       -0.0435
     28 C           8.2726    1.5219   -0.7521 C.ar    1  UNL1       -0.0583
     29 C           7.1583    0.8340   -0.3414 C.ar    1  UNL1       -0.0355
     30 C           7.1399   -0.5584   -0.3140 C.ar    1  UNL1        0.0760
     31 N           4.0276   -0.3122   -0.1175 N.ar    1  UNL1       -0.2126
     32 C          -0.4946    0.8505    0.0013 C.ar    1  UNL1        0.0579
     33 C          -0.4627    1.5107    1.3103 C.3     1  UNL1       -0.0208
     34 C          -3.3227    0.9001    1.0763 C.3     1  UNL1       -0.0146
     35 C          -4.8710    1.0545    1.0866 C.3     1  UNL1        0.0167
     36 H          -9.3135   -1.0176    0.6100 H       1  UNL1        0.0524
     37 H          -9.8811    0.3851    1.5877 H       1  UNL1        0.0524
     38 H         -10.6979   -0.0508    0.0796 H       1  UNL1        0.0524
     39 H          -7.2806    1.9739   -0.3808 H       1  UNL1        0.0656
     40 H          -7.6762    1.5310    1.2773 H       1  UNL1        0.0656
     41 H          -5.1971   -2.1692    0.0135 H       1  UNL1        0.0465
     42 H          -4.2589   -1.5228    1.4383 H       1  UNL1        0.0465
     43 H          -2.7587   -1.7224   -0.4428 H       1  UNL1        0.0301
     44 H          -3.9602   -1.0450   -1.5671 H       1  UNL1        0.0301
     45 H          -3.5690    1.0998   -1.0006 H       1  UNL1        0.0546
     46 H           1.9869   -0.8111   -2.6050 H       1  UNL1        0.0294
     47 H           0.5765   -1.3617   -3.5499 H       1  UNL1        0.0294
     48 H           1.1287    0.3034   -3.7868 H       1  UNL1        0.0294
     49 H           2.3880    1.7644   -0.7361 H       1  UNL1        0.1551
     50 H           2.7823   -1.9816    3.0224 H       1  UNL1        0.0846
     51 H           6.2271   -3.7069    0.0545 H       1  UNL1        0.0855
     52 H          10.1792   -1.1501   -1.3966 H       1  UNL1        0.0830
     53 H          10.2756    1.3322   -1.4690 H       1  UNL1        0.0633
     54 H           8.2467    2.6098   -0.7607 H       1  UNL1        0.0619
     55 H           6.2429    1.3386   -0.0208 H       1  UNL1        0.0639
     56 H           0.6201    1.5456    1.6623 H       1  UNL1        0.0293
     57 H          -0.9632    0.9628    2.1310 H       1  UNL1        0.0293
     58 H          -0.7239    2.6016    1.2744 H       1  UNL1        0.0293
     59 H          -3.1454    0.1548    1.8773 H       1  UNL1        0.0301
     60 H          -2.9889    1.9252    1.3134 H       1  UNL1        0.0301
     61 H          -5.0524    1.9007    0.3930 H       1  UNL1        0.0465
     62 H          -5.2142    1.3417    2.0776 H       1  UNL1        0.0465
@<TRIPOS>BOND
     1     1     2    1
     2     2     3    1
     3     3     4    1
     4     4     5    2
     5     4     6   am
     6     6     7    1
     7     7     8    1
     8     8     9    1
     9     9    10    1
    10    10    11   ar
    11    11    12   ar
    12    12    13    1
    13    12    14   ar
    14    14    15    1
    15    15    16    1
    16    16    17   ar
    17    17    18   ar
    18    18    19   ar
    19    19    20    1
    20    19    21   ar
    21    21    22    1
    22    22    23   ar
    23    23    24   ar
    24    24    25   ar
    25    25    26   ar
    26    26    27   ar
    27    27    28   ar
    28    28    29   ar
    29    29    30   ar
    30    21    31   ar
    31    14    32   ar
    32    32    33    1
    33     9    34    1
    34    34    35    1
    35    35     6    1
    36    32    10   ar
    37    31    16   ar
    38    30    22   ar
    39    30    25   ar
    40     1    36    1
    41     1    37    1
    42     1    38    1
    43     3    39    1
    44     3    40    1
    45     7    41    1
    46     7    42    1
    47     8    43    1
    48     8    44    1
    49     9    45    1
    50    13    46    1
    51    13    47    1
    52    13    48    1
    53    15    49    1
    54    18    50    1
    55    23    51    1
    56    26    52    1
    57    27    53    1
    58    28    54    1
    59    29    55    1
    60    33    56    1
    61    33    57    1
    62    33    58    1
    63    34    59    1
    64    34    60    1
    65    35    61    1
    66    35    62    1
