
     RDKit          3D

 62 66  0  0  0  0  0  0  0  0999 V2000
   -9.6840    0.0117    0.5535 C   0  0  0  0  0  0  0  0  0  0  0  0
   -8.9510    0.9020   -0.1638 O   0  0  0  0  0  0  0  0  0  0  0  0
   -7.6732    1.1273    0.2347 C   0  0  0  0  0  0  0  0  0  0  0  0
   -6.8317   -0.0746    0.1227 C   0  0  0  0  0  0  0  0  0  0  0  0
   -7.3127   -1.1249   -0.3586 O   0  0  0  0  0  0  0  0  0  0  0  0
   -5.4765   -0.1233    0.5341 N   0  0  0  0  0  0  0  0  0  0  0  0
   -4.6501   -1.3081    0.4249 C   0  0  0  0  0  0  0  0  0  0  0  0
   -3.5472   -0.9554   -0.5473 C   0  0  0  0  0  0  0  0  0  0  0  0
   -2.9821    0.4477   -0.2815 C   0  0  0  0  0  0  0  0  0  0  0  0
   -1.5856    0.4211   -0.6390 N   0  0  0  0  0  0  0  0  0  0  0  0
   -1.1809   -0.1218   -1.8139 N   0  0  0  0  0  0  0  0  0  0  0  0
    0.1289   -0.0325   -1.9022 C   0  0  0  0  0  0  0  0  0  0  0  0
    0.9994   -0.4939   -3.0166 C   0  0  0  0  0  0  0  0  0  0  0  0
    0.6351    0.5769   -0.7793 C   0  0  0  0  0  0  0  0  0  0  0  0
    1.9762    0.8674   -0.4353 N   0  0  0  0  0  0  0  0  0  0  0  0
    2.7884   -0.0326    0.3154 C   0  0  0  0  0  0  0  0  0  0  0  0
    2.3548   -0.6309    1.4320 N   0  0  0  0  0  0  0  0  0  0  0  0
    3.1309   -1.4908    2.1103 C   0  0  0  0  0  0  0  0  0  0  0  0
    4.4034   -1.7866    1.6776 C   0  0  0  0  0  0  0  0  0  0  0  0
    5.4387   -2.9177    2.5601 Cl  0  0  0  0  0  0  0  0  0  0  0  0
    4.8456   -1.1632    0.5200 C   0  0  0  0  0  0  0  0  0  0  0  0
    6.1730   -1.4805    0.0446 C   0  0  0  0  0  0  0  0  0  0  0  0
    6.7093   -2.7355   -0.1311 C   0  0  0  0  0  0  0  0  0  0  0  0
    7.9584   -2.5578   -0.5810 N   0  0  0  0  0  0  0  0  0  0  0  0
    8.2197   -1.2523   -0.6918 N   0  0  0  0  0  0  0  0  0  0  0  0
    9.3105   -0.5675   -1.0937 C   0  0  0  0  0  0  0  0  0  0  0  0
    9.3826    0.8044   -1.1401 C   0  0  0  0  0  0  0  0  0  0  0  0
    8.2726    1.5219   -0.7521 C   0  0  0  0  0  0  0  0  0  0  0  0
    7.1583    0.8340   -0.3414 C   0  0  0  0  0  0  0  0  0  0  0  0
    7.1399   -0.5584   -0.3140 C   0  0  0  0  0  0  0  0  0  0  0  0
    4.0276   -0.3122   -0.1175 N   0  0  0  0  0  0  0  0  0  0  0  0
   -0.4946    0.8505    0.0013 C   0  0  0  0  0  0  0  0  0  0  0  0
   -0.4627    1.5107    1.3103 C   0  0  0  0  0  0  0  0  0  0  0  0
   -3.3227    0.9001    1.0763 C   0  0  0  0  0  0  0  0  0  0  0  0
   -4.8710    1.0545    1.0866 C   0  0  0  0  0  0  0  0  0  0  0  0
   -9.3135   -1.0176    0.6100 H   0  0  0  0  0  0  0  0  0  0  0  0
   -9.8811    0.3851    1.5877 H   0  0  0  0  0  0  0  0  0  0  0  0
  -10.6979   -0.0508    0.0796 H   0  0  0  0  0  0  0  0  0  0  0  0
   -7.2806    1.9739   -0.3808 H   0  0  0  0  0  0  0  0  0  0  0  0
   -7.6762    1.5310    1.2773 H   0  0  0  0  0  0  0  0  0  0  0  0
   -5.1971   -2.1692    0.0135 H   0  0  0  0  0  0  0  0  0  0  0  0
   -4.2589   -1.5228    1.4383 H   0  0  0  0  0  0  0  0  0  0  0  0
   -2.7587   -1.7224   -0.4428 H   0  0  0  0  0  0  0  0  0  0  0  0
   -3.9602   -1.0450   -1.5671 H   0  0  0  0  0  0  0  0  0  0  0  0
   -3.5690    1.0998   -1.0006 H   0  0  0  0  0  0  0  0  0  0  0  0
    1.9869   -0.8111   -2.6050 H   0  0  0  0  0  0  0  0  0  0  0  0
    0.5765   -1.3617   -3.5499 H   0  0  0  0  0  0  0  0  0  0  0  0
    1.1287    0.3034   -3.7868 H   0  0  0  0  0  0  0  0  0  0  0  0
    2.3880    1.7644   -0.7361 H   0  0  0  0  0  0  0  0  0  0  0  0
    2.7823   -1.9816    3.0224 H   0  0  0  0  0  0  0  0  0  0  0  0
    6.2271   -3.7069    0.0545 H   0  0  0  0  0  0  0  0  0  0  0  0
   10.1792   -1.1501   -1.3966 H   0  0  0  0  0  0  0  0  0  0  0  0
   10.2756    1.3322   -1.4690 H   0  0  0  0  0  0  0  0  0  0  0  0
    8.2467    2.6098   -0.7607 H   0  0  0  0  0  0  0  0  0  0  0  0
    6.2429    1.3386   -0.0208 H   0  0  0  0  0  0  0  0  0  0  0  0
    0.6201    1.5456    1.6623 H   0  0  0  0  0  0  0  0  0  0  0  0
   -0.9632    0.9628    2.1310 H   0  0  0  0  0  0  0  0  0  0  0  0
   -0.7239    2.6016    1.2744 H   0  0  0  0  0  0  0  0  0  0  0  0
   -3.1454    0.1548    1.8773 H   0  0  0  0  0  0  0  0  0  0  0  0
   -2.9889    1.9252    1.3134 H   0  0  0  0  0  0  0  0  0  0  0  0
   -5.0524    1.9007    0.3930 H   0  0  0  0  0  0  0  0  0  0  0  0
   -5.2142    1.3417    2.0776 H   0  0  0  0  0  0  0  0  0  0  0  0
  1  2  1  0
  2  3  1  0
  3  4  1  0
  4  5  2  0
  4  6  1  0
  6  7  1  0
  7  8  1  0
  8  9  1  0
  9 10  1  0
 10 11  1  0
 11 12  2  0
 12 13  1  0
 12 14  1  0
 14 15  1  0
 15 16  1  0
 16 17  2  0
 17 18  1  0
 18 19  2  0
 19 20  1  0
 19 21  1  0
 21 22  1  0
 22 23  1  0
 23 24  2  0
 24 25  1  0
 25 26  1  0
 26 27  2  0
 27 28  1  0
 28 29  2  0
 29 30  1  0
 21 31  2  0
 14 32  2  0
 32 33  1  0
  9 34  1  0
 34 35  1  0
 35  6  1  0
 32 10  1  0
 31 16  1  0
 30 22  2  0
 30 25  1  0
  1 36  1  0
  1 37  1  0
  1 38  1  0
  3 39  1  0
  3 40  1  0
  7 41  1  0
  7 42  1  0
  8 43  1  0
  8 44  1  0
  9 45  1  0
 13 46  1  0
 13 47  1  0
 13 48  1  0
 15 49  1  0
 18 50  1  0
 23 51  1  0
 26 52  1  0
 27 53  1  0
 28 54  1  0
 29 55  1  0
 33 56  1  0
 33 57  1  0
 33 58  1  0
 34 59  1  0
 34 60  1  0
 35 61  1  0
 35 62  1  0
M  END
$$$$
