@<TRIPOS>MOLECULE
*****
 94 99 0 0 0
SMALL
GASTEIGER

@<TRIPOS>ATOM
      1 C           8.9543    4.7889    1.9618 C.1     1  UNL1       -0.1139
      2 C           8.6347    3.6422    1.5963 C.1     1  UNL1       -0.0696
      3 C           8.2706    2.2372    1.1471 C.ar    1  UNL1        0.0271
      4 C           7.2740    1.5367    1.6705 C.ar    1  UNL1       -0.0250
      5 C           7.1792    0.1722    1.4918 C.ar    1  UNL1        0.0354
      6 N           6.0738   -0.5424    1.9754 N.pl3   1  UNL1       -0.2835
      7 C           4.7266   -0.0434    1.9130 C.ar    1  UNL1        0.2226
      8 N           4.3887    1.0874    2.5586 N.ar    1  UNL1       -0.2225
      9 C           3.1567    1.6048    2.4168 C.ar    1  UNL1        0.0362
     10 C           2.2171    0.9970    1.6185 C.ar    1  UNL1        0.0186
     11 C           2.5494   -0.1641    0.9576 C.ar    1  UNL1        0.2249
     12 O           1.6899   -0.8450    0.1583 O.3     1  UNL1       -0.4373
     13 C           0.4267   -0.5209   -0.2344 C.ar    1  UNL1        0.1381
     14 C          -0.6715   -1.1932    0.1656 C.ar    1  UNL1       -0.0169
     15 C          -1.9492   -0.8883   -0.2046 C.ar    1  UNL1       -0.0363
     16 C          -2.1778    0.1970   -1.0664 C.ar    1  UNL1        0.0427
     17 N          -3.4792    0.4932   -1.4432 N.am    1  UNL1       -0.2686
     18 C          -4.6588   -0.1447   -1.0839 C.2     1  UNL1        0.3092
     19 O          -4.6542   -1.1280   -0.3404 O.2     1  UNL1       -0.2521
     20 N          -6.0032    0.2404   -1.5356 N.am    1  UNL1       -0.2538
     21 C          -7.0269   -0.6242   -1.0877 C.ar    1  UNL1        0.1299
     22 C          -6.9338   -2.0144   -1.3106 C.ar    1  UNL1        0.0021
     23 C          -8.0208   -2.5935   -0.7308 C.ar    1  UNL1        0.0706
     24 C          -8.2586   -4.0520   -0.6983 C.3     1  UNL1        0.0063
     25 C          -9.0471   -4.4616   -1.8885 C.3     1  UNL1       -0.0546
     26 C          -8.9598   -4.4544    0.5910 C.3     1  UNL1       -0.0546
     27 C          -6.8893   -4.7608   -0.7362 C.3     1  UNL1       -0.0546
     28 N          -8.7301   -1.6003   -0.2008 N.ar    1  UNL1       -0.1691
     29 N          -8.1378   -0.4108   -0.4079 N.ar    1  UNL1       -0.2181
     30 C          -8.6844    0.7958    0.0384 C.ar    1  UNL1        0.0677
     31 C         -10.0180    0.7081    0.6748 C.ar    1  UNL1       -0.0327
     32 C         -10.4544    1.9098    1.1173 C.ar    1  UNL1       -0.0179
     33 C          -9.9831    3.1350    1.1290 C.ar    1  UNL1        0.1202
     34 O         -10.5099    4.2859    1.6175 O.3     1  UNL1       -0.4951
     35 C          -9.7965    5.5382    1.5012 C.3     1  UNL1        0.0788
     36 C          -8.6437    3.2322    0.4934 C.ar    1  UNL1       -0.0179
     37 C          -8.2250    2.0318    0.0529 C.ar    1  UNL1       -0.0327
     38 C          -1.0811    0.8900   -1.4853 C.ar    1  UNL1        0.0069
     39 C          -1.2499    1.9745   -2.3484 C.ar    1  UNL1       -0.0521
     40 C          -0.1493    2.6977   -2.7839 C.ar    1  UNL1       -0.0611
     41 C           1.1036    2.3784   -2.4032 C.ar    1  UNL1       -0.0611
     42 C           1.3021    1.2793   -1.5305 C.ar    1  UNL1       -0.0505
     43 C           0.2231    0.5662   -1.0942 C.ar    1  UNL1        0.0262
     44 N           3.8532   -0.6738    1.1298 N.ar    1  UNL1       -0.1789
     45 C           8.1821   -0.4209    0.7448 C.ar    1  UNL1       -0.0283
     46 C           9.2235    0.2565    0.1876 C.ar    1  UNL1        0.0396
     47 C          10.3282   -0.4471   -0.4586 C.2     1  UNL1        0.2442
     48 O          10.9328    0.1199   -1.3828 O.2     1  UNL1       -0.2702
     49 N          10.6888   -1.7443   -0.0040 N.am    1  UNL1       -0.3092
     50 C          11.8040   -2.5175   -0.4680 C.3     1  UNL1        0.0353
     51 C          13.1280   -1.8085   -0.2205 C.3     1  UNL1        0.0628
     52 O          13.1962   -0.5971   -0.8839 O.3     1  UNL1       -0.3814
     53 C          14.4036    0.0195   -0.6651 C.3     1  UNL1        0.0365
     54 C           9.3007    1.6158    0.3713 C.ar    1  UNL1       -0.0341
     55 H           9.2436    5.7635    2.2818 H       1  UNL1        0.1232
     56 H           6.5192    2.0698    2.2835 H       1  UNL1        0.0648
     57 H           6.2259   -1.4815    2.3516 H       1  UNL1        0.1550
     58 H           2.8458    2.5225    2.9234 H       1  UNL1        0.0832
     59 H           1.2280    1.4050    1.4917 H       1  UNL1        0.0686
     60 H          -0.4723   -2.0535    0.8490 H       1  UNL1        0.0655
     61 H          -2.7342   -1.4485    0.1896 H       1  UNL1        0.0637
     62 H          -3.5978    1.3621   -2.0936 H       1  UNL1        0.1564
     63 H          -6.0964    1.0497   -2.1327 H       1  UNL1        0.1578
     64 H          -6.1599   -2.5221   -1.8608 H       1  UNL1        0.0671
     65 H         -10.1467   -4.3677   -1.7205 H       1  UNL1        0.0239
     66 H          -8.7724   -5.5320   -2.1575 H       1  UNL1        0.0239
     67 H          -8.7599   -3.9017   -2.8145 H       1  UNL1        0.0239
     68 H          -8.9559   -5.5592    0.6646 H       1  UNL1        0.0239
     69 H          -9.9536   -4.0323    0.6396 H       1  UNL1        0.0239
     70 H          -8.3427   -4.0397    1.4324 H       1  UNL1        0.0239
     71 H          -7.0662   -5.8492   -0.6199 H       1  UNL1        0.0239
     72 H          -6.3888   -4.5178   -1.6871 H       1  UNL1        0.0239
     73 H          -6.3443   -4.3387    0.1613 H       1  UNL1        0.0239
     74 H         -10.4943   -0.2114    0.7593 H       1  UNL1        0.0640
     75 H         -11.5301    1.7787    1.5758 H       1  UNL1        0.0655
     76 H         -10.3246    6.3333    2.0352 H       1  UNL1        0.0660
     77 H          -8.8290    5.3438    2.0343 H       1  UNL1        0.0660
     78 H          -9.6014    5.7922    0.4577 H       1  UNL1        0.0660
     79 H          -8.2027    4.1548    0.4463 H       1  UNL1        0.0655
     80 H          -7.1650    2.1257   -0.4400 H       1  UNL1        0.0640
     81 H          -2.1950    2.2863   -2.7389 H       1  UNL1        0.0624
     82 H          -0.3096    3.5596   -3.4730 H       1  UNL1        0.0618
     83 H           2.0176    2.8975   -2.6579 H       1  UNL1        0.0618
     84 H           2.3022    1.0269   -1.2618 H       1  UNL1        0.0625
     85 H           8.1118   -1.4828    0.6047 H       1  UNL1        0.0644
     86 H          10.0286   -2.1428    0.7488 H       1  UNL1        0.1491
     87 H          11.7229   -2.9432   -1.4754 H       1  UNL1        0.0485
     88 H          11.8644   -3.4190    0.2239 H       1  UNL1        0.0485
     89 H          14.0097   -2.4387   -0.2702 H       1  UNL1        0.0575
     90 H          13.0607   -1.5247    0.8963 H       1  UNL1        0.0575
     91 H          14.5437    0.2608    0.4371 H       1  UNL1        0.0523
     92 H          14.6342    0.9339   -1.1917 H       1  UNL1        0.0523
     93 H          15.1665   -0.8283   -0.8519 H       1  UNL1        0.0523
     94 H          10.0995    2.1884   -0.0124 H       1  UNL1        0.0637
@<TRIPOS>BOND
     1     1     2    3
     2     2     3    1
     3     3     4   ar
     4     4     5   ar
     5     5     6    1
     6     6     7    1
     7     7     8   ar
     8     8     9   ar
     9     9    10   ar
    10    10    11   ar
    11    11    12    1
    12    12    13    1
    13    13    14   ar
    14    14    15   ar
    15    15    16   ar
    16    16    17    1
    17    17    18   am
    18    18    19    2
    19    18    20   am
    20    20    21    1
    21    21    22   ar
    22    22    23   ar
    23    23    24    1
    24    24    25    1
    25    24    26    1
    26    24    27    1
    27    23    28   ar
    28    28    29   ar
    29    29    30    1
    30    30    31   ar
    31    31    32   ar
    32    32    33   ar
    33    33    34    1
    34    34    35    1
    35    33    36   ar
    36    36    37   ar
    37    16    38   ar
    38    38    39   ar
    39    39    40   ar
    40    40    41   ar
    41    41    42   ar
    42    42    43   ar
    43    11    44   ar
    44     5    45   ar
    45    45    46   ar
    46    46    47    1
    47    47    48    2
    48    47    49   am
    49    49    50    1
    50    50    51    1
    51    51    52    1
    52    52    53    1
    53    46    54   ar
    54    54     3   ar
    55    44     7   ar
    56    43    13   ar
    57    29    21   ar
    58    37    30   ar
    59    43    38   ar
    60     1    55    1
    61     4    56    1
    62     6    57    1
    63     9    58    1
    64    10    59    1
    65    14    60    1
    66    15    61    1
    67    17    62    1
    68    20    63    1
    69    22    64    1
    70    25    65    1
    71    25    66    1
    72    25    67    1
    73    26    68    1
    74    26    69    1
    75    26    70    1
    76    27    71    1
    77    27    72    1
    78    27    73    1
    79    31    74    1
    80    32    75    1
    81    35    76    1
    82    35    77    1
    83    35    78    1
    84    36    79    1
    85    37    80    1
    86    39    81    1
    87    40    82    1
    88    41    83    1
    89    42    84    1
    90    45    85    1
    91    49    86    1
    92    50    87    1
    93    50    88    1
    94    51    89    1
    95    51    90    1
    96    53    91    1
    97    53    92    1
    98    53    93    1
    99    54    94    1
