
     RDKit          3D

 36 37  0  0  0  0  0  0  0  0999 V2000
   -4.6923   -2.1184   -0.4899 C   0  0  0  0  0  0  0  0  0  0  0  0
   -3.4819   -1.1949   -0.3149 C   0  0  2  0  0  0  0  0  0  0  0  0
   -3.5847   -0.4110    0.8763 N   0  0  0  0  0  0  0  0  0  0  0  0
   -2.3162   -0.6077    1.9864 S   0  0  0  0  0  6  0  0  0  0  0  0
   -2.5916    0.3095    3.1639 O   0  0  0  0  0  0  0  0  0  0  0  0
   -2.2203   -1.9942    2.5515 O   0  0  0  0  0  0  0  0  0  0  0  0
   -0.7765   -0.1477    1.3345 C   0  0  0  0  0  0  0  0  0  0  0  0
    0.0163   -1.0802    0.6899 C   0  0  0  0  0  0  0  0  0  0  0  0
    1.2366   -0.8057    0.1487 C   0  0  0  0  0  0  0  0  0  0  0  0
    1.7193    0.4889    0.2473 C   0  0  0  0  0  0  0  0  0  0  0  0
    3.0113    0.7620   -0.3302 C   0  0  0  0  0  0  0  0  0  0  0  0
    3.9784   -0.2094   -0.3531 C   0  0  0  0  0  0  0  0  0  0  0  0
    5.2376    0.0322   -0.9087 C   0  0  0  0  0  0  0  0  0  0  0  0
    5.4819    1.2851   -1.4374 C   0  0  0  0  0  0  0  0  0  0  0  0
    7.2015    1.6412   -2.2056 Br  0  0  0  0  0  0  0  0  0  0  0  0
    4.5270    2.2782   -1.4266 C   0  0  0  0  0  0  0  0  0  0  0  0
    3.2834    1.9927   -0.8615 C   0  0  0  0  0  0  0  0  0  0  0  0
    0.9576    1.4555    0.8852 C   0  0  0  0  0  0  0  0  0  0  0  0
   -0.2710    1.1305    1.4174 C   0  0  0  0  0  0  0  0  0  0  0  0
   -3.4351   -0.2927   -1.4761 C   0  0  0  0  0  0  0  0  0  0  0  0
   -3.3445   -0.7703   -2.6235 O   0  0  0  0  0  0  0  0  0  0  0  0
   -3.4904    1.0683   -1.3075 O   0  0  0  0  0  0  0  0  0  0  0  0
   -5.0648   -2.0366   -1.5111 H   0  0  0  0  0  0  0  0  0  0  0  0
   -5.4611   -1.8156    0.2340 H   0  0  0  0  0  0  0  0  0  0  0  0
   -4.4047   -3.1826   -0.3322 H   0  0  0  0  0  0  0  0  0  0  0  0
   -2.5499   -1.8055   -0.2762 H   0  0  0  0  0  0  0  0  0  0  0  0
   -4.5114   -0.4456    1.3086 H   0  0  0  0  0  0  0  0  0  0  0  0
   -0.3383   -2.1143    0.5959 H   0  0  0  0  0  0  0  0  0  0  0  0
    1.8451   -1.5712   -0.3590 H   0  0  0  0  0  0  0  0  0  0  0  0
    3.8056   -1.1908    0.0545 H   0  0  0  0  0  0  0  0  0  0  0  0
    6.0109   -0.7124   -0.9379 H   0  0  0  0  0  0  0  0  0  0  0  0
    4.7654    3.2357   -1.8500 H   0  0  0  0  0  0  0  0  0  0  0  0
    2.5683    2.8050   -0.8776 H   0  0  0  0  0  0  0  0  0  0  0  0
    1.3403    2.4659    0.9593 H   0  0  0  0  0  0  0  0  0  0  0  0
   -0.8966    1.8729    1.9279 H   0  0  0  0  0  0  0  0  0  0  0  0
   -3.5554    1.6831   -2.0922 H   0  0  0  0  0  0  0  0  0  0  0  0
  1  2  1  0
  2  3  1  0
  3  4  1  0
  4  5  2  0
  4  6  2  0
  4  7  1  0
  7  8  2  0
  8  9  1  0
  9 10  2  0
 10 11  1  0
 11 12  2  0
 12 13  1  0
 13 14  2  0
 14 15  1  0
 14 16  1  0
 16 17  2  0
 10 18  1  0
 18 19  2  0
  2 20  1  0
 20 21  2  0
 20 22  1  0
 19  7  1  0
 17 11  1  0
  1 23  1  0
  1 24  1  0
  1 25  1  0
  2 26  1  1
  3 27  1  0
  8 28  1  0
  9 29  1  0
 12 30  1  0
 13 31  1  0
 16 32  1  0
 17 33  1  0
 18 34  1  0
 19 35  1  0
 22 36  1  0
M  END
$$$$
