@<TRIPOS>MOLECULE
*****
 36 37 0 0 0
SMALL
GASTEIGER

@<TRIPOS>ATOM
      1 C          -4.6923   -2.1184   -0.4899 C.3     1  UNL1       -0.0377
      2 C          -3.4819   -1.1949   -0.3149 C.3     1  UNL1        0.1225
      3 N          -3.5847   -0.4110    0.8763 N.3     1  UNL1       -0.1764
      4 S          -2.3162   -0.6077    1.9864 S.O2    1  UNL1        0.0591
      5 O          -2.5916    0.3095    3.1639 O.2     1  UNL1       -0.1530
      6 O          -2.2203   -1.9942    2.5515 O.2     1  UNL1       -0.1530
      7 C          -0.7765   -0.1477    1.3345 C.ar    1  UNL1        0.1053
      8 C           0.0163   -1.0802    0.6899 C.ar    1  UNL1       -0.0348
      9 C           1.2366   -0.8057    0.1487 C.ar    1  UNL1       -0.0522
     10 C           1.7193    0.4889    0.2473 C.ar    1  UNL1       -0.0178
     11 C           3.0113    0.7620   -0.3302 C.ar    1  UNL1       -0.0178
     12 C           3.9784   -0.2094   -0.3531 C.ar    1  UNL1       -0.0530
     13 C           5.2376    0.0322   -0.9087 C.ar    1  UNL1       -0.0472
     14 C           5.4819    1.2851   -1.4374 C.ar    1  UNL1        0.0179
     15 BR          7.2015    1.6412   -2.2056 Br      1  UNL1       -0.0503
     16 C           4.5270    2.2782   -1.4266 C.ar    1  UNL1       -0.0472
     17 C           3.2834    1.9927   -0.8615 C.ar    1  UNL1       -0.0530
     18 C           0.9576    1.4555    0.8852 C.ar    1  UNL1       -0.0522
     19 C          -0.2710    1.1305    1.4174 C.ar    1  UNL1       -0.0348
     20 C          -3.4351   -0.2927   -1.4761 C.2     1  UNL1        0.3233
     21 O          -3.3445   -0.7703   -2.6235 O.2     1  UNL1       -0.2492
     22 O          -3.4904    1.0683   -1.3075 O.3     1  UNL1       -0.4795
     23 H          -5.0648   -2.0366   -1.5111 H       1  UNL1        0.0250
     24 H          -5.4611   -1.8156    0.2340 H       1  UNL1        0.0250
     25 H          -4.4047   -3.1826   -0.3322 H       1  UNL1        0.0250
     26 H          -2.5499   -1.8055   -0.2762 H       1  UNL1        0.0590
     27 H          -4.5114   -0.4456    1.3086 H       1  UNL1        0.1489
     28 H          -0.3383   -2.1143    0.5959 H       1  UNL1        0.0637
     29 H           1.8451   -1.5712   -0.3590 H       1  UNL1        0.0624
     30 H           3.8056   -1.1908    0.0545 H       1  UNL1        0.0624
     31 H           6.0109   -0.7124   -0.9379 H       1  UNL1        0.0629
     32 H           4.7654    3.2357   -1.8500 H       1  UNL1        0.0629
     33 H           2.5683    2.8050   -0.8776 H       1  UNL1        0.0624
     34 H           1.3403    2.4659    0.9593 H       1  UNL1        0.0624
     35 H          -0.8966    1.8729    1.9279 H       1  UNL1        0.0637
     36 H          -3.5554    1.6831   -2.0922 H       1  UNL1        0.2951
@<TRIPOS>BOND
     1     1     2    1
     2     2     3    1
     3     3     4    1
     4     4     5    2
     5     4     6    2
     6     4     7    1
     7     7     8   ar
     8     8     9   ar
     9     9    10   ar
    10    10    11    1
    11    11    12   ar
    12    12    13   ar
    13    13    14   ar
    14    14    15    1
    15    14    16   ar
    16    16    17   ar
    17    10    18   ar
    18    18    19   ar
    19     2    20    1
    20    20    21    2
    21    20    22    1
    22    19     7   ar
    23    17    11   ar
    24     1    23    1
    25     1    24    1
    26     1    25    1
    27     2    26    1
    28     3    27    1
    29     8    28    1
    30     9    29    1
    31    12    30    1
    32    13    31    1
    33    16    32    1
    34    17    33    1
    35    18    34    1
    36    19    35    1
    37    22    36    1
