
     RDKit          3D

 57 61  0  0  0  0  0  0  0  0999 V2000
   -4.3740    2.1919   -0.3543 N   0  0  0  0  0  0  0  0  0  0  0  0
   -4.8874    1.5378    0.4404 C   0  0  0  0  0  0  0  0  0  0  0  0
   -5.5438    0.7316    1.4278 C   0  0  0  0  0  0  0  0  0  0  0  0
   -6.8590    1.1736    2.0221 C   0  0  0  0  0  0  0  0  0  0  0  0
   -7.2927    0.6246    3.1681 C   0  0  0  0  0  0  0  0  0  0  0  0
   -6.5466   -0.3609    3.8290 C   0  0  0  0  0  0  0  0  0  0  0  0
   -5.4104   -0.7677    3.2959 N   0  0  0  0  0  0  0  0  0  0  0  0
   -4.9117   -0.2623    2.1616 C   0  0  0  0  0  0  0  0  0  0  0  0
   -3.6402   -0.6891    1.6835 N   0  0  0  0  0  0  0  0  0  0  0  0
   -2.7990   -1.7209    2.2134 C   0  0  2  0  0  0  0  0  0  0  0  0
   -2.0614   -1.0365    3.4282 C   0  0  0  0  0  0  0  0  0  0  0  0
   -1.6934    0.2399    2.5779 C   0  0  0  0  0  0  0  0  0  0  0  0
   -1.0795   -0.4815    1.3572 N   0  0  0  0  0  0  0  0  0  0  0  0
   -0.2713    0.5301    0.5810 C   0  0  0  0  0  0  0  0  0  0  0  0
   -0.6083    1.6802    0.7970 O   0  0  0  0  0  0  0  0  0  0  0  0
    0.6479   -0.1271   -0.1305 O   0  0  0  0  0  0  0  0  0  0  0  0
    1.5809    0.5907   -0.8865 C   0  0  1  0  0  0  0  0  0  0  0  0
    2.9015    0.3935   -0.1837 C   0  0  0  0  0  0  0  0  0  0  0  0
    3.1695   -1.0914   -0.2060 C   0  0  0  0  0  0  0  0  0  0  0  0
    3.2827   -1.5313   -1.6290 C   0  0  0  0  0  0  0  0  0  0  0  0
    1.9909   -1.3480   -2.3746 C   0  0  0  0  0  0  0  0  0  0  0  0
    1.6021    0.0975   -2.2957 C   0  0  0  0  0  0  0  0  0  0  0  0
    2.6752    0.9673   -3.0057 C   0  0  0  0  0  0  0  0  0  0  0  0
    4.0055    0.7090   -2.3001 C   0  0  2  0  0  0  0  0  0  0  0  0
    4.9727    1.6025   -3.0744 C   0  0  0  0  0  0  0  0  0  0  0  0
    5.2583    1.4274   -4.3532 N   0  0  0  0  0  0  0  0  0  0  0  0
    5.4701    2.5458   -2.3015 O   0  0  0  0  0  0  0  0  0  0  0  0
    4.3463   -0.7293   -2.3803 C   0  0  0  0  0  0  0  0  0  0  0  0
    4.0323    1.1309   -0.8751 C   0  0  0  0  0  0  0  0  0  0  0  0
   -1.5162   -1.7331    1.3005 C   0  0  0  0  0  0  0  0  0  0  0  0
   -7.3403    1.9696    1.4676 H   0  0  0  0  0  0  0  0  0  0  0  0
   -8.2078    0.9517    3.6135 H   0  0  0  0  0  0  0  0  0  0  0  0
   -6.9188   -0.6926    4.7851 H   0  0  0  0  0  0  0  0  0  0  0  0
   -3.2423   -0.1452    0.8335 H   0  0  0  0  0  0  0  0  0  0  0  0
   -3.1335   -2.6880    2.4226 H   0  0  0  0  0  0  0  0  0  0  0  0
   -2.6593   -0.7402    4.2334 H   0  0  0  0  0  0  0  0  0  0  0  0
   -1.0710   -1.5325    3.5964 H   0  0  0  0  0  0  0  0  0  0  0  0
   -2.5680    0.7856    2.3051 H   0  0  0  0  0  0  0  0  0  0  0  0
   -0.8583    0.7803    3.0238 H   0  0  0  0  0  0  0  0  0  0  0  0
    1.3185    1.7006   -0.8522 H   0  0  0  0  0  0  0  0  0  0  0  0
    2.7586    0.7658    0.8301 H   0  0  0  0  0  0  0  0  0  0  0  0
    2.2809   -1.5648    0.2496 H   0  0  0  0  0  0  0  0  0  0  0  0
    4.0672   -1.3462    0.3988 H   0  0  0  0  0  0  0  0  0  0  0  0
    3.5597   -2.6208   -1.6122 H   0  0  0  0  0  0  0  0  0  0  0  0
    1.2202   -1.9957   -1.9366 H   0  0  0  0  0  0  0  0  0  0  0  0
    2.1331   -1.6493   -3.4720 H   0  0  0  0  0  0  0  0  0  0  0  0
    0.6167    0.3171   -2.7861 H   0  0  0  0  0  0  0  0  0  0  0  0
    2.7927    0.7301   -4.0530 H   0  0  0  0  0  0  0  0  0  0  0  0
    2.3585    1.9970   -2.7759 H   0  0  0  0  0  0  0  0  0  0  0  0
    5.5833    1.9883   -5.1039 H   0  0  0  0  0  0  0  0  0  0  0  0
    5.0392    0.3760   -4.7730 H   0  0  0  0  0  0  0  0  0  0  0  0
    5.3412   -1.0065   -2.0328 H   0  0  0  0  0  0  0  0  0  0  0  0
    4.2187   -1.0515   -3.4503 H   0  0  0  0  0  0  0  0  0  0  0  0
    4.9875    0.8182   -0.3954 H   0  0  0  0  0  0  0  0  0  0  0  0
    3.8331    2.2154   -0.6814 H   0  0  0  0  0  0  0  0  0  0  0  0
   -0.7967   -2.4656    1.8131 H   0  0  0  0  0  0  0  0  0  0  0  0
   -1.7545   -2.1920    0.3223 H   0  0  0  0  0  0  0  0  0  0  0  0
  1  2  3  0
  2  3  1  0
  3  4  2  0
  4  5  1  0
  5  6  2  0
  6  7  1  0
  7  8  2  0
  8  9  1  0
  9 10  1  0
 10 11  1  0
 11 12  1  0
 12 13  1  0
 13 14  1  0
 14 15  2  0
 14 16  1  0
 16 17  1  0
 17 18  1  0
 18 19  1  0
 19 20  1  0
 20 21  1  0
 21 22  1  0
 22 23  1  0
 23 24  1  0
 24 25  1  6
 25 26  1  0
 25 27  2  0
 24 28  1  0
 24 29  1  0
 13 30  1  0
  8  3  1  0
 30 10  1  0
 22 17  1  0
 29 18  1  0
 28 20  1  0
  4 31  1  0
  5 32  1  0
  6 33  1  0
  9 34  1  0
 10 35  1  1
 11 36  1  0
 11 37  1  0
 12 38  1  0
 12 39  1  0
 17 40  1  6
 18 41  1  0
 19 42  1  0
 19 43  1  0
 20 44  1  0
 21 45  1  0
 21 46  1  0
 22 47  1  0
 23 48  1  0
 23 49  1  0
 26 50  1  0
 26 51  1  0
 28 52  1  0
 28 53  1  0
 29 54  1  0
 29 55  1  0
 30 56  1  0
 30 57  1  0
M  END
$$$$
