@<TRIPOS>MOLECULE
*****
 57 61 0 0 0
SMALL
GASTEIGER

@<TRIPOS>ATOM
      1 N          -4.3740    2.1919   -0.3543 N.1     1  UNL1       -0.1908
      2 C          -4.8874    1.5378    0.4404 C.1     1  UNL1        0.1026
      3 C          -5.5438    0.7316    1.4278 C.ar    1  UNL1        0.0914
      4 C          -6.8590    1.1736    2.0221 C.ar    1  UNL1       -0.0396
      5 C          -7.2927    0.6246    3.1681 C.ar    1  UNL1       -0.0422
      6 C          -6.5466   -0.3609    3.8290 C.ar    1  UNL1        0.0298
      7 N          -5.4104   -0.7677    3.2959 N.ar    1  UNL1       -0.2392
      8 C          -4.9117   -0.2623    2.1616 C.ar    1  UNL1        0.1364
      9 N          -3.6402   -0.6891    1.6835 N.pl3   1  UNL1       -0.3236
     10 C          -2.7990   -1.7209    2.2134 C.3     1  UNL1        0.0392
     11 C          -2.0614   -1.0365    3.4282 C.3     1  UNL1       -0.0171
     12 C          -1.6934    0.2399    2.5779 C.3     1  UNL1        0.0196
     13 N          -1.0795   -0.4815    1.3572 N.am    1  UNL1       -0.2656
     14 C          -0.2713    0.5301    0.5810 C.2     1  UNL1        0.4032
     15 O          -0.6083    1.6802    0.7970 O.2     1  UNL1       -0.2262
     16 O           0.6479   -0.1271   -0.1305 O.3     1  UNL1       -0.4464
     17 C           1.5809    0.5907   -0.8865 C.3     1  UNL1        0.1103
     18 C           2.9015    0.3935   -0.1837 C.3     1  UNL1       -0.0023
     19 C           3.1695   -1.0914   -0.2060 C.3     1  UNL1       -0.0439
     20 C           3.2827   -1.5313   -1.6290 C.3     1  UNL1       -0.0394
     21 C           1.9909   -1.3480   -2.3746 C.3     1  UNL1       -0.0439
     22 C           1.6021    0.0975   -2.2957 C.3     1  UNL1       -0.0023
     23 C           2.6752    0.9673   -3.0057 C.3     1  UNL1       -0.0328
     24 C           4.0055    0.7090   -2.3001 C.3     1  UNL1        0.0477
     25 C           4.9727    1.6025   -3.0744 C.2     1  UNL1        0.2167
     26 N           5.2583    1.4274   -4.3532 N.am    1  UNL1       -0.3289
     27 O           5.4701    2.5458   -2.3015 O.2     1  UNL1       -0.2754
     28 C           4.3463   -0.7293   -2.3803 C.3     1  UNL1       -0.0362
     29 C           4.0323    1.1309   -0.8751 C.3     1  UNL1       -0.0328
     30 C          -1.5162   -1.7331    1.3005 C.3     1  UNL1        0.0362
     31 H          -7.3403    1.9696    1.4676 H       1  UNL1        0.0632
     32 H          -8.2078    0.9517    3.6135 H       1  UNL1        0.0633
     33 H          -6.9188   -0.6926    4.7851 H       1  UNL1        0.0830
     34 H          -3.2423   -0.1452    0.8335 H       1  UNL1        0.1478
     35 H          -3.1335   -2.6880    2.4226 H       1  UNL1        0.0514
     36 H          -2.6593   -0.7402    4.2334 H       1  UNL1        0.0299
     37 H          -1.0710   -1.5325    3.5964 H       1  UNL1        0.0299
     38 H          -2.5680    0.7856    2.3051 H       1  UNL1        0.0466
     39 H          -0.8583    0.7803    3.0238 H       1  UNL1        0.0466
     40 H           1.3185    1.7006   -0.8522 H       1  UNL1        0.0740
     41 H           2.7586    0.7658    0.8301 H       1  UNL1        0.0337
     42 H           2.2809   -1.5648    0.2496 H       1  UNL1        0.0272
     43 H           4.0672   -1.3462    0.3988 H       1  UNL1        0.0272
     44 H           3.5597   -2.6208   -1.6122 H       1  UNL1        0.0301
     45 H           1.2202   -1.9957   -1.9366 H       1  UNL1        0.0272
     46 H           2.1331   -1.6493   -3.4720 H       1  UNL1        0.0272
     47 H           0.6167    0.3171   -2.7861 H       1  UNL1        0.0337
     48 H           2.7927    0.7301   -4.0530 H       1  UNL1        0.0279
     49 H           2.3585    1.9970   -2.7759 H       1  UNL1        0.0279
     50 H           5.5833    1.9883   -5.1039 H       1  UNL1        0.1449
     51 H           5.0392    0.3760   -4.7730 H       1  UNL1        0.1449
     52 H           5.3412   -1.0065   -2.0328 H       1  UNL1        0.0278
     53 H           4.2187   -1.0515   -3.4503 H       1  UNL1        0.0278
     54 H           4.9875    0.8182   -0.3954 H       1  UNL1        0.0279
     55 H           3.8331    2.2154   -0.6814 H       1  UNL1        0.0279
     56 H          -0.7967   -2.4656    1.8131 H       1  UNL1        0.0484
     57 H          -1.7545   -2.1920    0.3223 H       1  UNL1        0.0484
@<TRIPOS>BOND
     1     1     2    3
     2     2     3    1
     3     3     4   ar
     4     4     5   ar
     5     5     6   ar
     6     6     7   ar
     7     7     8   ar
     8     8     9    1
     9     9    10    1
    10    10    11    1
    11    11    12    1
    12    12    13    1
    13    13    14   am
    14    14    15    2
    15    14    16    1
    16    16    17    1
    17    17    18    1
    18    18    19    1
    19    19    20    1
    20    20    21    1
    21    21    22    1
    22    22    23    1
    23    23    24    1
    24    24    25    1
    25    25    26   am
    26    25    27    2
    27    24    28    1
    28    24    29    1
    29    13    30    1
    30     8     3   ar
    31    30    10    1
    32    22    17    1
    33    29    18    1
    34    28    20    1
    35     4    31    1
    36     5    32    1
    37     6    33    1
    38     9    34    1
    39    10    35    1
    40    11    36    1
    41    11    37    1
    42    12    38    1
    43    12    39    1
    44    17    40    1
    45    18    41    1
    46    19    42    1
    47    19    43    1
    48    20    44    1
    49    21    45    1
    50    21    46    1
    51    22    47    1
    52    23    48    1
    53    23    49    1
    54    26    50    1
    55    26    51    1
    56    28    52    1
    57    28    53    1
    58    29    54    1
    59    29    55    1
    60    30    56    1
    61    30    57    1
