
     RDKit          3D

 58 60  0  0  0  0  0  0  0  0999 V2000
   -0.1448   -2.2074   -4.7794 C   0  0  0  0  0  0  0  0  0  0  0  0
   -1.5668   -1.3609   -4.1030 S   0  0  0  0  0  6  0  0  0  0  0  0
   -2.3949   -2.3497   -3.3510 O   0  0  0  0  0  0  0  0  0  0  0  0
   -2.3352   -0.8108   -5.2766 O   0  0  0  0  0  0  0  0  0  0  0  0
   -1.1021   -0.0236   -3.1286 N   0  0  0  0  0  0  0  0  0  0  0  0
   -0.3019   -0.4347   -1.9830 C   0  0  0  0  0  0  0  0  0  0  0  0
    0.9987    0.2895   -2.0576 C   0  0  0  0  0  0  0  0  0  0  0  0
    1.9407   -0.0075   -0.9695 C   0  0  0  0  0  0  0  0  0  0  0  0
    2.8581   -1.0323   -1.0445 C   0  0  0  0  0  0  0  0  0  0  0  0
    3.7353   -1.2732    0.0195 C   0  0  0  0  0  0  0  0  0  0  0  0
    3.6953   -0.4924    1.1541 C   0  0  0  0  0  0  0  0  0  0  0  0
    4.5958   -0.7335    2.2560 N   0  0  0  0  0  0  0  0  0  0  0  0
    5.8698   -0.8890    2.0573 C   0  0  0  0  0  0  0  0  0  0  0  0
    6.6839   -1.1207    3.1854 N   0  0  0  0  0  0  0  0  0  0  0  0
    6.4294   -0.8307    0.7583 N   0  0  0  0  0  0  0  0  0  0  0  0
    2.7939    0.5194    1.2355 C   0  0  0  0  0  0  0  0  0  0  0  0
    1.9355    0.7476    0.1826 C   0  0  0  0  0  0  0  0  0  0  0  0
   -1.2678    0.0594   -0.5040 P   0  0  0  0  0  5  0  0  0  0  0  0
   -2.6249   -0.6148   -0.5537 O   0  0  0  0  0  0  0  0  0  0  0  0
   -1.4008    1.7488   -0.4246 O   0  0  0  0  0  0  0  0  0  0  0  0
   -2.6022    2.4327   -0.3128 C   0  0  0  0  0  0  0  0  0  0  0  0
   -3.6475    1.9734    0.4568 C   0  0  0  0  0  0  0  0  0  0  0  0
   -4.8280    2.6953    0.5348 C   0  0  0  0  0  0  0  0  0  0  0  0
   -4.9969    3.8826   -0.1452 C   0  0  0  0  0  0  0  0  0  0  0  0
   -3.9521    4.3450   -0.9164 C   0  0  0  0  0  0  0  0  0  0  0  0
   -2.7632    3.6196   -0.9961 C   0  0  0  0  0  0  0  0  0  0  0  0
   -0.4796   -0.4848    0.9143 O   0  0  0  0  0  0  0  0  0  0  0  0
   -1.2720   -0.7742    2.0160 C   0  0  0  0  0  0  0  0  0  0  0  0
   -2.0016   -1.9639    2.0393 C   0  0  0  0  0  0  0  0  0  0  0  0
   -2.7942   -2.2951    3.0969 C   0  0  0  0  0  0  0  0  0  0  0  0
   -2.9174   -1.4807    4.1911 C   0  0  0  0  0  0  0  0  0  0  0  0
   -2.1873   -0.2914    4.1666 C   0  0  0  0  0  0  0  0  0  0  0  0
   -1.3825    0.0562    3.1048 C   0  0  0  0  0  0  0  0  0  0  0  0
    0.3838   -2.7883   -3.9985 H   0  0  0  0  0  0  0  0  0  0  0  0
    0.4846   -1.5287   -5.3549 H   0  0  0  0  0  0  0  0  0  0  0  0
   -0.5428   -2.9642   -5.4988 H   0  0  0  0  0  0  0  0  0  0  0  0
   -0.6390    0.6835   -3.7152 H   0  0  0  0  0  0  0  0  0  0  0  0
   -0.1479   -1.5315   -1.9637 H   0  0  0  0  0  0  0  0  0  0  0  0
    1.4282    0.1046   -3.0650 H   0  0  0  0  0  0  0  0  0  0  0  0
    0.7682    1.3940   -1.9988 H   0  0  0  0  0  0  0  0  0  0  0  0
    2.9100   -1.6545   -1.9161 H   0  0  0  0  0  0  0  0  0  0  0  0
    4.4652   -2.0713   -0.0139 H   0  0  0  0  0  0  0  0  0  0  0  0
    6.5823   -0.5510    4.0673 H   0  0  0  0  0  0  0  0  0  0  0  0
    7.4069   -1.8672    3.1647 H   0  0  0  0  0  0  0  0  0  0  0  0
    7.2246   -1.4793    0.5509 H   0  0  0  0  0  0  0  0  0  0  0  0
    6.0965   -0.1891    0.0159 H   0  0  0  0  0  0  0  0  0  0  0  0
    2.7805    1.1265    2.1466 H   0  0  0  0  0  0  0  0  0  0  0  0
    1.2397    1.5706    0.3067 H   0  0  0  0  0  0  0  0  0  0  0  0
   -3.4964    1.0381    0.9843 H   0  0  0  0  0  0  0  0  0  0  0  0
   -5.6355    2.3209    1.1416 H   0  0  0  0  0  0  0  0  0  0  0  0
   -5.9242    4.4637   -0.0929 H   0  0  0  0  0  0  0  0  0  0  0  0
   -4.0728    5.2875   -1.4622 H   0  0  0  0  0  0  0  0  0  0  0  0
   -1.9400    3.9862   -1.6053 H   0  0  0  0  0  0  0  0  0  0  0  0
   -1.9069   -2.6019    1.1854 H   0  0  0  0  0  0  0  0  0  0  0  0
   -3.3537   -3.2284    3.0923 H   0  0  0  0  0  0  0  0  0  0  0  0
   -3.5456   -1.7502    5.0221 H   0  0  0  0  0  0  0  0  0  0  0  0
   -2.2891    0.3558    5.0431 H   0  0  0  0  0  0  0  0  0  0  0  0
   -0.8488    0.9758    3.1410 H   0  0  0  0  0  0  0  0  0  0  0  0
  1  2  1  0
  2  3  2  0
  2  4  2  0
  2  5  1  0
  5  6  1  0
  6  7  1  0
  7  8  1  0
  8  9  2  0
  9 10  1  0
 10 11  2  0
 11 12  1  0
 12 13  2  3
 13 14  1  0
 13 15  1  0
 11 16  1  0
 16 17  2  0
  6 18  1  0
 18 19  2  0
 18 20  1  0
 20 21  1  0
 21 22  2  0
 22 23  1  0
 23 24  2  0
 24 25  1  0
 25 26  2  0
 18 27  1  0
 27 28  1  0
 28 29  2  0
 29 30  1  0
 30 31  2  0
 31 32  1  0
 32 33  2  0
 17  8  1  0
 26 21  1  0
 33 28  1  0
  1 34  1  0
  1 35  1  0
  1 36  1  0
  5 37  1  0
  6 38  1  0
  7 39  1  0
  7 40  1  0
  9 41  1  0
 10 42  1  0
 14 43  1  0
 14 44  1  0
 15 45  1  0
 15 46  1  0
 16 47  1  0
 17 48  1  0
 22 49  1  0
 23 50  1  0
 24 51  1  0
 25 52  1  0
 26 53  1  0
 29 54  1  0
 30 55  1  0
 31 56  1  0
 32 57  1  0
 33 58  1  0
M  END
$$$$
