@<TRIPOS>MOLECULE
*****
 58 60 0 0 0
SMALL
GASTEIGER

@<TRIPOS>ATOM
      1 C          -0.1448   -2.2074   -4.7794 C.3     1  UNL1        0.0705
      2 S          -1.5668   -1.3609   -4.1030 S.O2    1  UNL1        0.0274
      3 O          -2.3949   -2.3497   -3.3510 O.2     1  UNL1       -0.1585
      4 O          -2.3352   -0.8108   -5.2766 O.2     1  UNL1       -0.1585
      5 N          -1.1021   -0.0236   -3.1286 N.3     1  UNL1       -0.1775
      6 C          -0.3019   -0.4347   -1.9830 C.3     1  UNL1        0.1560
      7 C           0.9987    0.2895   -2.0576 C.3     1  UNL1        0.0027
      8 C           1.9407   -0.0075   -0.9695 C.ar    1  UNL1       -0.0450
      9 C           2.8581   -1.0323   -1.0445 C.ar    1  UNL1       -0.0551
     10 C           3.7353   -1.2732    0.0195 C.ar    1  UNL1       -0.0194
     11 C           3.6953   -0.4924    1.1541 C.ar    1  UNL1        0.1420
     12 N           4.5958   -0.7335    2.2560 N.pl3   1  UNL1       -0.0734
     13 C           5.8698   -0.8890    2.0573 C.cat   1  UNL1        0.3821
     14 N           6.6839   -1.1207    3.1854 N.pl3   1  UNL1       -0.2889
     15 N           6.4294   -0.8307    0.7583 N.pl3   1  UNL1       -0.2889
     16 C           2.7939    0.5194    1.2355 C.ar    1  UNL1       -0.0194
     17 C           1.9355    0.7476    0.1826 C.ar    1  UNL1       -0.0551
     18 P          -1.2678    0.0594   -0.5040 P.3     1  UNL1        0.4522
     19 O          -2.6249   -0.6148   -0.5537 O.2     1  UNL1       -0.2306
     20 O          -1.4008    1.7488   -0.4246 O.3     1  UNL1       -0.4146
     21 C          -2.6022    2.4327   -0.3128 C.ar    1  UNL1        0.1309
     22 C          -3.6475    1.9734    0.4568 C.ar    1  UNL1       -0.0194
     23 C          -4.8280    2.6953    0.5348 C.ar    1  UNL1       -0.0583
     24 C          -4.9969    3.8826   -0.1452 C.ar    1  UNL1       -0.0615
     25 C          -3.9521    4.3450   -0.9164 C.ar    1  UNL1       -0.0583
     26 C          -2.7632    3.6196   -0.9961 C.ar    1  UNL1       -0.0194
     27 O          -0.4796   -0.4848    0.9143 O.3     1  UNL1       -0.4146
     28 C          -1.2720   -0.7742    2.0160 C.ar    1  UNL1        0.1309
     29 C          -2.0016   -1.9639    2.0393 C.ar    1  UNL1       -0.0194
     30 C          -2.7942   -2.2951    3.0969 C.ar    1  UNL1       -0.0583
     31 C          -2.9174   -1.4807    4.1911 C.ar    1  UNL1       -0.0615
     32 C          -2.1873   -0.2914    4.1666 C.ar    1  UNL1       -0.0583
     33 C          -1.3825    0.0562    3.1048 C.ar    1  UNL1       -0.0194
     34 H           0.3838   -2.7883   -3.9985 H       1  UNL1        0.0479
     35 H           0.4846   -1.5287   -5.3549 H       1  UNL1        0.0479
     36 H          -0.5428   -2.9642   -5.4988 H       1  UNL1        0.0479
     37 H          -0.6390    0.6835   -3.7152 H       1  UNL1        0.1487
     38 H          -0.1479   -1.5315   -1.9637 H       1  UNL1        0.0629
     39 H           1.4282    0.1046   -3.0650 H       1  UNL1        0.0335
     40 H           0.7682    1.3940   -1.9988 H       1  UNL1        0.0335
     41 H           2.9100   -1.6545   -1.9161 H       1  UNL1        0.0621
     42 H           4.4652   -2.0713   -0.0139 H       1  UNL1        0.0653
     43 H           6.5823   -0.5510    4.0673 H       1  UNL1        0.2547
     44 H           7.4069   -1.8672    3.1647 H       1  UNL1        0.2547
     45 H           7.2246   -1.4793    0.5509 H       1  UNL1        0.2547
     46 H           6.0965   -0.1891    0.0159 H       1  UNL1        0.2547
     47 H           2.7805    1.1265    2.1466 H       1  UNL1        0.0653
     48 H           1.2397    1.5706    0.3067 H       1  UNL1        0.0621
     49 H          -3.4964    1.0381    0.9843 H       1  UNL1        0.0654
     50 H          -5.6355    2.3209    1.1416 H       1  UNL1        0.0619
     51 H          -5.9242    4.4637   -0.0929 H       1  UNL1        0.0618
     52 H          -4.0728    5.2875   -1.4622 H       1  UNL1        0.0619
     53 H          -1.9400    3.9862   -1.6053 H       1  UNL1        0.0654
     54 H          -1.9069   -2.6019    1.1854 H       1  UNL1        0.0654
     55 H          -3.3537   -3.2284    3.0923 H       1  UNL1        0.0619
     56 H          -3.5456   -1.7502    5.0221 H       1  UNL1        0.0618
     57 H          -2.2891    0.3558    5.0431 H       1  UNL1        0.0619
     58 H          -0.8488    0.9758    3.1410 H       1  UNL1        0.0654
@<TRIPOS>BOND
     1     1     2    1
     2     2     3    2
     3     2     4    2
     4     2     5    1
     5     5     6    1
     6     6     7    1
     7     7     8    1
     8     8     9   ar
     9     9    10   ar
    10    10    11   ar
    11    11    12    1
    12    12    13    2
    13    13    14    1
    14    13    15    1
    15    11    16   ar
    16    16    17   ar
    17     6    18    1
    18    18    19    2
    19    18    20    1
    20    20    21    1
    21    21    22   ar
    22    22    23   ar
    23    23    24   ar
    24    24    25   ar
    25    25    26   ar
    26    18    27    1
    27    27    28    1
    28    28    29   ar
    29    29    30   ar
    30    30    31   ar
    31    31    32   ar
    32    32    33   ar
    33    17     8   ar
    34    26    21   ar
    35    33    28   ar
    36     1    34    1
    37     1    35    1
    38     1    36    1
    39     5    37    1
    40     6    38    1
    41     7    39    1
    42     7    40    1
    43     9    41    1
    44    10    42    1
    45    14    43    1
    46    14    44    1
    47    15    45    1
    48    15    46    1
    49    16    47    1
    50    17    48    1
    51    22    49    1
    52    23    50    1
    53    24    51    1
    54    25    52    1
    55    26    53    1
    56    29    54    1
    57    30    55    1
    58    31    56    1
    59    32    57    1
    60    33    58    1
