@<TRIPOS>MOLECULE
*****
 50 53 0 0 0
SMALL
GASTEIGER

@<TRIPOS>ATOM
      1 C           4.1510    1.2406    1.1946 C.3     1  UNL1       -0.0376
      2 C           5.2893    0.6010    0.4973 C.ar    1  UNL1       -0.0218
      3 C           6.6325    0.9905    0.5790 C.ar    1  UNL1        0.0071
      4 N           7.3668    0.2153   -0.2146 N.ar    1  UNL1       -0.3455
      5 C           6.6043   -0.6837   -0.8355 C.ar    1  UNL1        0.1422
      6 N           6.8150   -1.6547   -1.7268 N.ar    1  UNL1       -0.2179
      7 C           5.8116   -2.4023   -2.2003 C.ar    1  UNL1        0.1189
      8 N           4.5478   -2.2331   -1.8189 N.ar    1  UNL1       -0.2347
      9 C           4.2823   -1.2443   -0.8997 C.ar    1  UNL1        0.0836
     10 C           2.8798   -1.0703   -0.4845 C.ar    1  UNL1        0.0012
     11 C           2.4452   -1.1737    0.8050 C.ar    1  UNL1       -0.0508
     12 C           1.1225   -0.9854    1.1128 C.ar    1  UNL1       -0.0398
     13 C           0.1513   -0.6823    0.1502 C.ar    1  UNL1        0.0348
     14 N          -1.1819   -0.5057    0.5558 N.am    1  UNL1       -0.2690
     15 C          -2.2798   -0.2023   -0.2490 C.2     1  UNL1        0.3108
     16 O          -2.1275   -0.0598   -1.4775 O.2     1  UNL1       -0.2519
     17 N          -3.6042   -0.0451    0.2927 N.am    1  UNL1       -0.2531
     18 C          -3.9115   -0.1554    1.6833 C.3     1  UNL1        0.0444
     19 C          -3.8333    1.1272    2.4480 C.3     1  UNL1        0.0604
     20 O          -2.5794    1.7142    2.4188 O.3     1  UNL1       -0.3934
     21 C          -4.6826    0.2470   -0.6021 C.ar    1  UNL1        0.0392
     22 C          -4.9612    1.5816   -0.8543 C.ar    1  UNL1       -0.0401
     23 C          -6.0011    1.8886   -1.7177 C.ar    1  UNL1       -0.0586
     24 C          -6.7320    0.8782   -2.3041 C.ar    1  UNL1       -0.0433
     25 C          -6.4247   -0.4228   -2.0288 C.ar    1  UNL1        0.0427
     26 CL         -7.3759   -1.6859   -2.7928 Cl      1  UNL1       -0.0835
     27 C          -5.3990   -0.7737   -1.1764 C.ar    1  UNL1       -0.0219
     28 C           0.6268   -0.5883   -1.1262 C.ar    1  UNL1       -0.0398
     29 C           1.9548   -0.7736   -1.4610 C.ar    1  UNL1       -0.0508
     30 C           5.2865   -0.4624   -0.4008 C.ar    1  UNL1        0.0475
     31 H           3.2739    1.4380    0.5612 H       1  UNL1        0.0278
     32 H           4.5473    2.2711    1.4952 H       1  UNL1        0.0278
     33 H           3.9139    0.7729    2.1657 H       1  UNL1        0.0278
     34 H           6.9620    1.8136    1.2170 H       1  UNL1        0.0810
     35 H           8.4146    0.2816   -0.3528 H       1  UNL1        0.1668
     36 H           5.9934   -3.1994   -2.9354 H       1  UNL1        0.1048
     37 H           3.1544   -1.4153    1.5846 H       1  UNL1        0.0625
     38 H           0.7758   -1.0699    2.1588 H       1  UNL1        0.0636
     39 H          -1.4056   -0.6147    1.6035 H       1  UNL1        0.1564
     40 H          -4.9701   -0.5264    1.7735 H       1  UNL1        0.0492
     41 H          -3.3154   -0.9192    2.2240 H       1  UNL1        0.0492
     42 H          -4.0536    0.8955    3.5130 H       1  UNL1        0.0573
     43 H          -4.6346    1.8353    2.1284 H       1  UNL1        0.0573
     44 H          -2.4521    2.1811    1.5525 H       1  UNL1        0.2095
     45 H          -4.3877    2.3636   -0.3940 H       1  UNL1        0.0636
     46 H          -6.2122    2.9473   -1.9095 H       1  UNL1        0.0619
     47 H          -7.5448    1.1019   -2.9786 H       1  UNL1        0.0632
     48 H          -5.1389   -1.7962   -0.9447 H       1  UNL1        0.0651
     49 H          -0.0320   -0.3626   -1.9251 H       1  UNL1        0.0636
     50 H           2.2382   -0.6775   -2.5106 H       1  UNL1        0.0625
@<TRIPOS>BOND
     1     1     2    1
     2     2     3   ar
     3     3     4   ar
     4     4     5   ar
     5     5     6   ar
     6     6     7   ar
     7     7     8   ar
     8     8     9   ar
     9     9    10    1
    10    10    11   ar
    11    11    12   ar
    12    12    13   ar
    13    13    14    1
    14    14    15   am
    15    15    16    2
    16    15    17   am
    17    17    18    1
    18    18    19    1
    19    19    20    1
    20    17    21    1
    21    21    22   ar
    22    22    23   ar
    23    23    24   ar
    24    24    25   ar
    25    25    26    1
    26    25    27   ar
    27    13    28   ar
    28    28    29   ar
    29     9    30   ar
    30    30     2   ar
    31    30     5   ar
    32    29    10   ar
    33    27    21   ar
    34     1    31    1
    35     1    32    1
    36     1    33    1
    37     3    34    1
    38     4    35    1
    39     7    36    1
    40    11    37    1
    41    12    38    1
    42    14    39    1
    43    18    40    1
    44    18    41    1
    45    19    42    1
    46    19    43    1
    47    20    44    1
    48    22    45    1
    49    23    46    1
    50    24    47    1
    51    27    48    1
    52    28    49    1
    53    29    50    1
