
     RDKit          3D

 75 80  0  0  0  0  0  0  0  0999 V2000
   -3.7189    5.5000    1.6918 C   0  0  0  0  0  0  0  0  0  0  0  0
   -3.0894    4.9474    0.4853 C   0  0  0  0  0  0  0  0  0  0  0  0
   -2.3945    3.7661    0.5322 C   0  0  0  0  0  0  0  0  0  0  0  0
   -1.7895    3.2195   -0.5910 C   0  0  0  0  0  0  0  0  0  0  0  0
   -1.0779    1.9976   -0.5087 N   0  0  0  0  0  0  0  0  0  0  0  0
    0.3436    1.9328   -0.2112 C   0  0  0  0  0  0  0  0  0  0  0  0
    0.9662    2.8247    0.4381 O   0  0  0  0  0  0  0  0  0  0  0  0
    0.8833    0.7453   -0.7541 N   0  0  0  0  0  0  0  0  0  0  0  0
    2.2152    0.2600   -0.7210 C   0  0  0  0  0  0  0  0  0  0  0  0
    3.2360    0.9627   -0.1260 C   0  0  0  0  0  0  0  0  0  0  0  0
    4.5435    0.5250   -0.0716 C   0  0  0  0  0  0  0  0  0  0  0  0
    4.8616   -0.6824   -0.6408 C   0  0  0  0  0  0  0  0  0  0  0  0
    6.2308   -1.1554   -0.5917 C   0  0  0  0  0  0  0  0  0  0  0  0
    6.8138   -1.6179   -1.7434 C   0  0  0  0  0  0  0  0  0  0  0  0
    8.1180   -2.0535   -1.6922 C   0  0  0  0  0  0  0  0  0  0  0  0
    8.8800   -2.0501   -0.5312 C   0  0  0  0  0  0  0  0  0  0  0  0
   10.2567   -2.5220   -0.5374 C   0  0  0  0  0  0  0  0  0  0  0  0
   10.7672   -2.9371   -1.5960 O   0  0  0  0  0  0  0  0  0  0  0  0
   10.9993   -2.5128    0.6189 O   0  0  0  0  0  0  0  0  0  0  0  0
    8.2700   -1.5808    0.6113 C   0  0  0  0  0  0  0  0  0  0  0  0
    6.9537   -1.1391    0.5693 C   0  0  0  0  0  0  0  0  0  0  0  0
    6.3912   -0.6603    1.8658 C   0  0  0  0  0  0  0  0  0  0  0  0
    3.8510   -1.4068   -1.2450 C   0  0  0  0  0  0  0  0  0  0  0  0
    2.5555   -0.9448   -1.2839 C   0  0  0  0  0  0  0  0  0  0  0  0
   -0.2412    0.0978   -1.3842 C   0  0  0  0  0  0  0  0  0  0  0  0
   -0.2466   -0.7272   -2.3223 O   0  0  0  0  0  0  0  0  0  0  0  0
   -1.4534    0.6310   -0.6636 C   0  0  0  0  0  0  0  0  0  0  0  0
   -1.5306   -0.1111    0.6519 C   0  0  0  0  0  0  0  0  0  0  0  0
   -2.1529   -1.4598    0.3739 C   0  0  0  0  0  0  0  0  0  0  0  0
   -3.5555   -1.2579    0.0678 N   0  0  0  0  0  0  0  0  0  0  0  0
   -4.3006   -1.4784    1.2970 C   0  0  0  0  0  0  0  0  0  0  0  0
   -5.7601   -1.3113    1.0848 C   0  0  0  0  0  0  0  0  0  0  0  0
   -6.3589   -0.2046    1.5017 N   0  0  0  0  0  0  0  0  0  0  0  0
   -7.6993   -0.0624    1.2990 C   0  0  0  0  0  0  0  0  0  0  0  0
   -8.4500   -1.0446    0.6690 C   0  0  0  0  0  0  0  0  0  0  0  0
   -7.7793   -2.1809    0.2523 C   0  0  0  0  0  0  0  0  0  0  0  0
   -6.4240   -2.3302    0.4546 C   0  0  0  0  0  0  0  0  0  0  0  0
   -5.7308   -3.5600   -0.0002 C   0  0  0  0  0  0  0  0  0  0  0  0
   -3.8282    0.0532   -0.4886 C   0  0  0  0  0  0  0  0  0  0  0  0
   -2.7046    0.3933   -1.4439 C   0  0  0  0  0  0  0  0  0  0  0  0
   -1.9314    3.9251   -1.7236 N   0  0  0  0  0  0  0  0  0  0  0  0
   -2.6122    5.0876   -1.7823 C   0  0  0  0  0  0  0  0  0  0  0  0
   -3.1905    5.5959   -0.6740 N   0  0  0  0  0  0  0  0  0  0  0  0
   -4.8158    5.3417    1.6958 H   0  0  0  0  0  0  0  0  0  0  0  0
   -3.2293    5.0789    2.6189 H   0  0  0  0  0  0  0  0  0  0  0  0
   -3.5496    6.6112    1.7854 H   0  0  0  0  0  0  0  0  0  0  0  0
   -2.2828    3.1964    1.4577 H   0  0  0  0  0  0  0  0  0  0  0  0
    3.0301    1.9423    0.3471 H   0  0  0  0  0  0  0  0  0  0  0  0
    5.3190    1.1435    0.4224 H   0  0  0  0  0  0  0  0  0  0  0  0
    6.2684   -1.6475   -2.6932 H   0  0  0  0  0  0  0  0  0  0  0  0
    8.5900   -2.4189   -2.5851 H   0  0  0  0  0  0  0  0  0  0  0  0
   11.9132   -2.9720    0.6949 H   0  0  0  0  0  0  0  0  0  0  0  0
    8.8403   -1.5636    1.5454 H   0  0  0  0  0  0  0  0  0  0  0  0
    5.2974   -0.7750    1.8560 H   0  0  0  0  0  0  0  0  0  0  0  0
    6.8174   -1.3485    2.6564 H   0  0  0  0  0  0  0  0  0  0  0  0
    6.7508    0.3391    2.1554 H   0  0  0  0  0  0  0  0  0  0  0  0
    4.0987   -2.3551   -1.6924 H   0  0  0  0  0  0  0  0  0  0  0  0
    1.8077   -1.5397   -1.7593 H   0  0  0  0  0  0  0  0  0  0  0  0
   -0.5122   -0.2155    1.0768 H   0  0  0  0  0  0  0  0  0  0  0  0
   -2.1352    0.4566    1.3965 H   0  0  0  0  0  0  0  0  0  0  0  0
   -1.6272   -1.8800   -0.5108 H   0  0  0  0  0  0  0  0  0  0  0  0
   -2.0090   -2.0746    1.2829 H   0  0  0  0  0  0  0  0  0  0  0  0
   -4.0717   -2.5048    1.6443 H   0  0  0  0  0  0  0  0  0  0  0  0
   -3.8950   -0.7826    2.0470 H   0  0  0  0  0  0  0  0  0  0  0  0
   -8.2035    0.8176    1.6249 H   0  0  0  0  0  0  0  0  0  0  0  0
   -9.5120   -0.8955    0.5260 H   0  0  0  0  0  0  0  0  0  0  0  0
   -8.3314   -2.9741   -0.2455 H   0  0  0  0  0  0  0  0  0  0  0  0
   -5.3884   -4.1296    0.9062 H   0  0  0  0  0  0  0  0  0  0  0  0
   -4.8602   -3.3151   -0.6374 H   0  0  0  0  0  0  0  0  0  0  0  0
   -6.4422   -4.2254   -0.5144 H   0  0  0  0  0  0  0  0  0  0  0  0
   -4.7556    0.0117   -1.0878 H   0  0  0  0  0  0  0  0  0  0  0  0
   -3.9635    0.8100    0.2982 H   0  0  0  0  0  0  0  0  0  0  0  0
   -2.9723    1.2261   -2.1214 H   0  0  0  0  0  0  0  0  0  0  0  0
   -2.5617   -0.4936   -2.0991 H   0  0  0  0  0  0  0  0  0  0  0  0
   -2.7310    5.6623   -2.6912 H   0  0  0  0  0  0  0  0  0  0  0  0
  1  2  1  0
  2  3  2  0
  3  4  1  0
  4  5  1  0
  5  6  1  0
  6  7  2  0
  6  8  1  0
  8  9  1  0
  9 10  2  0
 10 11  1  0
 11 12  2  0
 12 13  1  0
 13 14  2  0
 14 15  1  0
 15 16  2  0
 16 17  1  0
 17 18  2  0
 17 19  1  0
 16 20  1  0
 20 21  2  0
 21 22  1  0
 12 23  1  0
 23 24  2  0
  8 25  1  0
 25 26  2  0
 25 27  1  0
 27 28  1  0
 28 29  1  0
 29 30  1  0
 30 31  1  0
 31 32  1  0
 32 33  2  0
 33 34  1  0
 34 35  2  0
 35 36  1  0
 36 37  2  0
 37 38  1  0
 30 39  1  0
 39 40  1  0
  4 41  2  0
 41 42  1  0
 42 43  2  0
 43  2  1  0
 27  5  1  0
 37 32  1  0
 24  9  1  0
 40 27  1  0
 21 13  1  0
  1 44  1  0
  1 45  1  0
  1 46  1  0
  3 47  1  0
 10 48  1  0
 11 49  1  0
 14 50  1  0
 15 51  1  0
 19 52  1  0
 20 53  1  0
 22 54  1  0
 22 55  1  0
 22 56  1  0
 23 57  1  0
 24 58  1  0
 28 59  1  0
 28 60  1  0
 29 61  1  0
 29 62  1  0
 31 63  1  0
 31 64  1  0
 34 65  1  0
 35 66  1  0
 36 67  1  0
 38 68  1  0
 38 69  1  0
 38 70  1  0
 39 71  1  0
 39 72  1  0
 40 73  1  0
 40 74  1  0
 42 75  1  0
M  END
$$$$
