@<TRIPOS>MOLECULE
*****
 75 80 0 0 0
SMALL
GASTEIGER

@<TRIPOS>ATOM
      1 C          -3.7189    5.5000    1.6918 C.3     1  UNL1       -0.0222
      2 C          -3.0894    4.9474    0.4853 C.ar    1  UNL1        0.0432
      3 C          -2.3945    3.7661    0.5322 C.ar    1  UNL1       -0.0002
      4 C          -1.7895    3.2195   -0.5910 C.ar    1  UNL1        0.1330
      5 N          -1.0779    1.9976   -0.5087 N.am    1  UNL1       -0.2241
      6 C           0.3436    1.9328   -0.2112 C.2     1  UNL1        0.3219
      7 O           0.9662    2.8247    0.4381 O.2     1  UNL1       -0.2512
      8 N           0.8833    0.7453   -0.7541 N.am    1  UNL1       -0.1920
      9 C           2.2152    0.2600   -0.7210 C.ar    1  UNL1        0.0455
     10 C           3.2360    0.9627   -0.1260 C.ar    1  UNL1       -0.0392
     11 C           4.5435    0.5250   -0.0716 C.ar    1  UNL1       -0.0523
     12 C           4.8616   -0.6824   -0.6408 C.ar    1  UNL1       -0.0175
     13 C           6.2308   -1.1554   -0.5917 C.ar    1  UNL1       -0.0149
     14 C           6.8138   -1.6179   -1.7434 C.ar    1  UNL1       -0.0530
     15 C           8.1180   -2.0535   -1.6922 C.ar    1  UNL1       -0.0472
     16 C           8.8800   -2.0501   -0.5312 C.ar    1  UNL1        0.0591
     17 C          10.2567   -2.5220   -0.5374 C.2     1  UNL1        0.3368
     18 O          10.7672   -2.9371   -1.5960 O.2     1  UNL1       -0.2451
     19 O          10.9993   -2.5128    0.6189 O.3     1  UNL1       -0.4771
     20 C           8.2700   -1.5808    0.6113 C.ar    1  UNL1       -0.0443
     21 C           6.9537   -1.1391    0.5693 C.ar    1  UNL1       -0.0420
     22 C           6.3912   -0.6603    1.8658 C.3     1  UNL1       -0.0391
     23 C           3.8510   -1.4068   -1.2450 C.ar    1  UNL1       -0.0523
     24 C           2.5555   -0.9448   -1.2839 C.ar    1  UNL1       -0.0392
     25 C          -0.2412    0.0978   -1.3842 C.2     1  UNL1        0.2516
     26 O          -0.2466   -0.7272   -2.3223 O.2     1  UNL1       -0.2724
     27 C          -1.4534    0.6310   -0.6636 C.3     1  UNL1        0.1240
     28 C          -1.5306   -0.1111    0.6519 C.3     1  UNL1       -0.0095
     29 C          -2.1529   -1.4598    0.3739 C.3     1  UNL1        0.0017
     30 N          -3.5555   -1.2579    0.0678 N.3     1  UNL1       -0.2965
     31 C          -4.3006   -1.4784    1.2970 C.3     1  UNL1        0.0415
     32 C          -5.7601   -1.3113    1.0848 C.ar    1  UNL1        0.0581
     33 N          -6.3589   -0.2046    1.5017 N.ar    1  UNL1       -0.2583
     34 C          -7.6993   -0.0624    1.2990 C.ar    1  UNL1        0.0279
     35 C          -8.4500   -1.0446    0.6690 C.ar    1  UNL1       -0.0433
     36 C          -7.7793   -2.1809    0.2523 C.ar    1  UNL1       -0.0557
     37 C          -6.4240   -2.3302    0.4546 C.ar    1  UNL1       -0.0279
     38 C          -5.7308   -3.5600   -0.0002 C.3     1  UNL1       -0.0380
     39 C          -3.8282    0.0532   -0.4886 C.3     1  UNL1        0.0017
     40 C          -2.7046    0.3933   -1.4439 C.3     1  UNL1       -0.0095
     41 N          -1.9314    3.9251   -1.7236 N.ar    1  UNL1       -0.2203
     42 C          -2.6122    5.0876   -1.7823 C.ar    1  UNL1        0.1183
     43 N          -3.1905    5.5959   -0.6740 N.ar    1  UNL1       -0.2405
     44 H          -4.8158    5.3417    1.6958 H       1  UNL1        0.0293
     45 H          -3.2293    5.0789    2.6189 H       1  UNL1        0.0293
     46 H          -3.5496    6.6112    1.7854 H       1  UNL1        0.0293
     47 H          -2.2828    3.1964    1.4577 H       1  UNL1        0.0670
     48 H           3.0301    1.9423    0.3471 H       1  UNL1        0.0636
     49 H           5.3190    1.1435    0.4224 H       1  UNL1        0.0624
     50 H           6.2684   -1.6475   -2.6932 H       1  UNL1        0.0624
     51 H           8.5900   -2.4189   -2.5851 H       1  UNL1        0.0626
     52 H          11.9132   -2.9720    0.6949 H       1  UNL1        0.2954
     53 H           8.8403   -1.5636    1.5454 H       1  UNL1        0.0628
     54 H           5.2974   -0.7750    1.8560 H       1  UNL1        0.0278
     55 H           6.8174   -1.3485    2.6564 H       1  UNL1        0.0278
     56 H           6.7508    0.3391    2.1554 H       1  UNL1        0.0278
     57 H           4.0987   -2.3551   -1.6924 H       1  UNL1        0.0624
     58 H           1.8077   -1.5397   -1.7593 H       1  UNL1        0.0636
     59 H          -0.5122   -0.2155    1.0768 H       1  UNL1        0.0303
     60 H          -2.1352    0.4566    1.3965 H       1  UNL1        0.0303
     61 H          -1.6272   -1.8800   -0.5108 H       1  UNL1        0.0427
     62 H          -2.0090   -2.0746    1.2829 H       1  UNL1        0.0427
     63 H          -4.0717   -2.5048    1.6443 H       1  UNL1        0.0491
     64 H          -3.8950   -0.7826    2.0470 H       1  UNL1        0.0491
     65 H          -8.2035    0.8176    1.6249 H       1  UNL1        0.0829
     66 H          -9.5120   -0.8955    0.5260 H       1  UNL1        0.0633
     67 H          -8.3314   -2.9741   -0.2455 H       1  UNL1        0.0621
     68 H          -5.3884   -4.1296    0.9062 H       1  UNL1        0.0278
     69 H          -4.8602   -3.3151   -0.6374 H       1  UNL1        0.0278
     70 H          -6.4422   -4.2254   -0.5144 H       1  UNL1        0.0278
     71 H          -4.7556    0.0117   -1.0878 H       1  UNL1        0.0427
     72 H          -3.9635    0.8100    0.2982 H       1  UNL1        0.0427
     73 H          -2.9723    1.2261   -2.1214 H       1  UNL1        0.0303
     74 H          -2.5617   -0.4936   -2.0991 H       1  UNL1        0.0303
     75 H          -2.7310    5.6623   -2.6912 H       1  UNL1        0.1047
@<TRIPOS>BOND
     1     1     2    1
     2     2     3   ar
     3     3     4   ar
     4     4     5    1
     5     5     6   am
     6     6     7    2
     7     6     8   am
     8     8     9    1
     9     9    10   ar
    10    10    11   ar
    11    11    12   ar
    12    12    13    1
    13    13    14   ar
    14    14    15   ar
    15    15    16   ar
    16    16    17    1
    17    17    18    2
    18    17    19    1
    19    16    20   ar
    20    20    21   ar
    21    21    22    1
    22    12    23   ar
    23    23    24   ar
    24     8    25   am
    25    25    26    2
    26    25    27    1
    27    27    28    1
    28    28    29    1
    29    29    30    1
    30    30    31    1
    31    31    32    1
    32    32    33   ar
    33    33    34   ar
    34    34    35   ar
    35    35    36   ar
    36    36    37   ar
    37    37    38    1
    38    30    39    1
    39    39    40    1
    40     4    41   ar
    41    41    42   ar
    42    42    43   ar
    43    43     2   ar
    44    27     5    1
    45    37    32   ar
    46    24     9   ar
    47    40    27    1
    48    21    13   ar
    49     1    44    1
    50     1    45    1
    51     1    46    1
    52     3    47    1
    53    10    48    1
    54    11    49    1
    55    14    50    1
    56    15    51    1
    57    19    52    1
    58    20    53    1
    59    22    54    1
    60    22    55    1
    61    22    56    1
    62    23    57    1
    63    24    58    1
    64    28    59    1
    65    28    60    1
    66    29    61    1
    67    29    62    1
    68    31    63    1
    69    31    64    1
    70    34    65    1
    71    35    66    1
    72    36    67    1
    73    38    68    1
    74    38    69    1
    75    38    70    1
    76    39    71    1
    77    39    72    1
    78    40    73    1
    79    40    74    1
    80    42    75    1
