@<TRIPOS>MOLECULE
*****
 62 65 0 0 0
SMALL
GASTEIGER

@<TRIPOS>ATOM
      1 C          10.5035    0.8620    1.3017 C.3     1  UNL1        0.0366
      2 O          10.3059   -0.3753    1.8698 O.3     1  UNL1       -0.3796
      3 C           9.9628   -1.3334    0.9322 C.3     1  UNL1        0.0814
      4 C           8.7109   -1.0379    0.1654 C.3     1  UNL1        0.1145
      5 O           7.5945   -0.9243    1.0485 O.3     1  UNL1       -0.4730
      6 C           6.3378   -0.6560    0.4733 C.ar    1  UNL1        0.2335
      7 C           5.2408   -0.5523    1.2840 C.ar    1  UNL1        0.0898
      8 N           4.0121   -0.2887    0.7455 N.ar    1  UNL1       -0.2459
      9 C           3.8668   -0.1290   -0.5757 C.ar    1  UNL1        0.1172
     10 C           2.5716    0.1537   -1.1645 C.2     1  UNL1        0.1507
     11 F           2.4757    0.3586   -2.5107 F       1  UNL1       -0.2032
     12 C           1.4471    0.2241   -0.4712 C.2     1  UNL1       -0.0171
     13 C           0.1745    0.5154   -1.1153 C.ar    1  UNL1       -0.0217
     14 C           0.1085    1.5415   -2.0579 C.ar    1  UNL1       -0.0518
     15 C          -1.0583    1.8610   -2.7113 C.ar    1  UNL1       -0.0255
     16 C          -2.2446    1.1574   -2.4525 C.ar    1  UNL1        0.1289
     17 F          -3.3489    1.5288   -3.1457 F       1  UNL1       -0.2051
     18 C          -2.1792    0.1567   -1.5334 C.ar    1  UNL1        0.0158
     19 C          -3.4283   -0.6274   -1.2184 C.3     1  UNL1        0.0935
     20 C          -3.7170   -1.3821   -2.5337 C.3     1  UNL1       -0.0351
     21 N          -3.1536   -1.6405   -0.2570 N.2     1  UNL1       -0.2521
     22 C          -3.7998   -2.1423    0.6702 C.2     1  UNL1        0.1485
     23 N          -3.2966   -3.1510    1.4948 N.pl3   1  UNL1       -0.3380
     24 S          -5.4510   -1.5355    0.9639 S.3     1  UNL1       -0.0746
     25 C          -5.5744   -0.0039    0.0279 C.3     1  UNL1        0.1054
     26 C          -6.9652    0.4838   -0.1438 C.2     1  UNL1        0.2319
     27 O          -7.5075    0.2787   -1.2643 O.2     1  UNL1       -0.2741
     28 N          -7.6140    1.1405    0.9194 N.am    1  UNL1       -0.3064
     29 C          -8.9792    1.6207    0.7419 C.3     1  UNL1        0.0029
     30 C          -6.9121    1.3224    2.1708 C.3     1  UNL1        0.0029
     31 C          -4.5585    1.0646    0.2975 C.3     1  UNL1       -0.0220
     32 C          -4.5798    0.2602   -0.9829 C.3     1  UNL1        0.0134
     33 C          -1.0019   -0.1610   -0.8776 C.ar    1  UNL1       -0.0463
     34 C           4.9784   -0.2372   -1.3745 C.ar    1  UNL1        0.0596
     35 N           6.1964   -0.4981   -0.8465 N.ar    1  UNL1       -0.2178
     36 H          10.7957    1.6099    2.0872 H       1  UNL1        0.0524
     37 H           9.5355    1.2047    0.8622 H       1  UNL1        0.0524
     38 H          11.2356    0.8462    0.4757 H       1  UNL1        0.0524
     39 H           9.8221   -2.2900    1.5162 H       1  UNL1        0.0593
     40 H          10.8089   -1.5139    0.2283 H       1  UNL1        0.0593
     41 H           8.5256   -1.8826   -0.5541 H       1  UNL1        0.0720
     42 H           8.7962   -0.1338   -0.4680 H       1  UNL1        0.0720
     43 H           5.3131   -0.6747    2.3656 H       1  UNL1        0.0884
     44 H           1.5378    0.0509    0.6022 H       1  UNL1        0.0653
     45 H           1.0369    2.0918   -2.2524 H       1  UNL1        0.0624
     46 H          -1.0780    2.6738   -3.4463 H       1  UNL1        0.0646
     47 H          -3.4744   -0.7399   -3.4020 H       1  UNL1        0.0256
     48 H          -3.1155   -2.2899   -2.6183 H       1  UNL1        0.0256
     49 H          -4.7856   -1.6732   -2.5762 H       1  UNL1        0.0256
     50 H          -2.3531   -3.0748    1.9095 H       1  UNL1        0.1442
     51 H          -3.8678   -3.9880    1.6991 H       1  UNL1        0.1442
     52 H          -9.6870    0.7504    0.8266 H       1  UNL1        0.0428
     53 H          -9.0661    2.0127   -0.2879 H       1  UNL1        0.0428
     54 H          -9.2410    2.4151    1.4804 H       1  UNL1        0.0428
     55 H          -6.1357    0.5347    2.3212 H       1  UNL1        0.0428
     56 H          -7.6371    1.1779    3.0072 H       1  UNL1        0.0428
     57 H          -6.4208    2.3112    2.2250 H       1  UNL1        0.0428
     58 H          -3.8274    0.8162    1.0823 H       1  UNL1        0.0287
     59 H          -4.8361    2.1292    0.2797 H       1  UNL1        0.0287
     60 H          -4.9796    0.8633   -1.8621 H       1  UNL1        0.0346
     61 H          -0.9456   -0.9641   -0.1388 H       1  UNL1        0.0628
     62 H           4.9259   -0.1175   -2.4618 H       1  UNL1        0.0853
@<TRIPOS>BOND
     1     1     2    1
     2     2     3    1
     3     3     4    1
     4     4     5    1
     5     5     6    1
     6     6     7   ar
     7     7     8   ar
     8     8     9   ar
     9     9    10    1
    10    10    11    1
    11    10    12    2
    12    12    13    1
    13    13    14   ar
    14    14    15   ar
    15    15    16   ar
    16    16    17    1
    17    16    18   ar
    18    18    19    1
    19    19    20    1
    20    19    21    1
    21    21    22    2
    22    22    23    1
    23    22    24    1
    24    24    25    1
    25    25    26    1
    26    26    27    2
    27    26    28   am
    28    28    29    1
    29    28    30    1
    30    25    31    1
    31    31    32    1
    32    18    33   ar
    33     9    34   ar
    34    34    35   ar
    35    35     6   ar
    36    33    13   ar
    37    32    19    1
    38    32    25    1
    39     1    36    1
    40     1    37    1
    41     1    38    1
    42     3    39    1
    43     3    40    1
    44     4    41    1
    45     4    42    1
    46     7    43    1
    47    12    44    1
    48    14    45    1
    49    15    46    1
    50    20    47    1
    51    20    48    1
    52    20    49    1
    53    23    50    1
    54    23    51    1
    55    29    52    1
    56    29    53    1
    57    29    54    1
    58    30    55    1
    59    30    56    1
    60    30    57    1
    61    31    58    1
    62    31    59    1
    63    32    60    1
    64    33    61    1
    65    34    62    1
