
     RDKit          3D

 68 70  0  0  0  0  0  0  0  0999 V2000
    8.6908   -2.4756   -0.3268 C   0  0  0  0  0  0  0  0  0  0  0  0
    7.4446   -1.6779    0.0380 C   0  0  0  0  0  0  0  0  0  0  0  0
    7.8197   -0.3443    0.3084 N   0  0  0  0  0  0  0  0  0  0  0  0
    8.5789   -0.0937    1.4452 C   0  0  0  0  0  0  0  0  0  0  0  0
    8.9703    1.3072    1.7271 C   0  0  0  0  0  0  0  0  0  0  0  0
    7.2163    0.6896   -0.4148 C   0  0  0  0  0  0  0  0  0  0  0  0
    5.7481    0.9243   -0.1473 C   0  0  0  0  0  0  0  0  0  0  0  0
    4.9691   -0.2049   -0.4378 O   0  0  0  0  0  0  0  0  0  0  0  0
    3.6026   -0.1484   -0.2516 C   0  0  0  0  0  0  0  0  0  0  0  0
    2.7911   -1.2323   -0.5210 C   0  0  0  0  0  0  0  0  0  0  0  0
    1.4248   -1.1249   -0.3184 C   0  0  0  0  0  0  0  0  0  0  0  0
    0.8372    0.0350    0.1467 C   0  0  0  0  0  0  0  0  0  0  0  0
   -0.6573    0.1056    0.3469 C   0  0  0  0  0  0  0  0  0  0  0  0
   -1.2187    0.5817   -0.9584 C   0  0  0  0  0  0  0  0  0  0  0  0
   -2.7145    0.7297   -0.9832 C   0  0  0  0  0  0  0  0  0  0  0  0
   -3.3479   -0.5878   -0.6958 C   0  0  0  0  0  0  0  0  0  0  0  0
   -4.8122   -0.6092   -0.6880 C   0  0  0  0  0  0  0  0  0  0  0  0
   -5.5133   -0.7045    0.4916 C   0  0  0  0  0  0  0  0  0  0  0  0
   -6.9032   -0.7335    0.5088 C   0  0  0  0  0  0  0  0  0  0  0  0
   -7.6192   -0.8297    1.7082 C   0  0  0  0  0  0  0  0  0  0  0  0
   -8.9962   -0.8514    1.6250 C   0  0  0  0  0  0  0  0  0  0  0  0
   -9.6704   -0.7825    0.4231 C   0  0  0  0  0  0  0  0  0  0  0  0
  -11.1697   -0.8110    0.4100 C   0  0  0  0  0  0  0  0  0  0  0  0
   -8.9310   -0.6892   -0.7243 C   0  0  0  0  0  0  0  0  0  0  0  0
   -7.5522   -0.6633   -0.7036 C   0  0  0  0  0  0  0  0  0  0  0  0
   -6.8639   -0.5733   -1.8144 O   0  0  0  0  0  0  0  0  0  0  0  0
   -5.5536   -0.5443   -1.8530 C   0  0  0  0  0  0  0  0  0  0  0  0
   -4.9667   -0.4552   -2.9839 O   0  0  0  0  0  0  0  0  0  0  0  0
   -3.2000    1.8438   -0.1676 C   0  0  0  0  0  0  0  0  0  0  0  0
   -3.9701    1.6220    0.7931 O   0  0  0  0  0  0  0  0  0  0  0  0
   -2.8491    3.2016   -0.3956 N   0  0  0  0  0  0  0  0  0  0  0  0
   -3.3043    4.2156    0.3625 O   0  0  0  0  0  0  0  0  0  0  0  0
    1.6453    1.1104    0.4138 C   0  0  0  0  0  0  0  0  0  0  0  0
    3.0227    1.0079    0.2117 C   0  0  0  0  0  0  0  0  0  0  0  0
    9.4208   -2.5095    0.4882 H   0  0  0  0  0  0  0  0  0  0  0  0
    8.4263   -3.4919   -0.7102 H   0  0  0  0  0  0  0  0  0  0  0  0
    9.1660   -1.9296   -1.1618 H   0  0  0  0  0  0  0  0  0  0  0  0
    7.0411   -2.1870    0.9590 H   0  0  0  0  0  0  0  0  0  0  0  0
    6.7463   -1.7775   -0.8019 H   0  0  0  0  0  0  0  0  0  0  0  0
    9.5178   -0.7150    1.4301 H   0  0  0  0  0  0  0  0  0  0  0  0
    8.0213   -0.4680    2.3521 H   0  0  0  0  0  0  0  0  0  0  0  0
    9.6792    1.3112    2.5817 H   0  0  0  0  0  0  0  0  0  0  0  0
    8.0740    1.8909    2.0921 H   0  0  0  0  0  0  0  0  0  0  0  0
    9.4886    1.8185    0.8984 H   0  0  0  0  0  0  0  0  0  0  0  0
    7.7362    1.6449   -0.2956 H   0  0  0  0  0  0  0  0  0  0  0  0
    7.2863    0.4424   -1.5156 H   0  0  0  0  0  0  0  0  0  0  0  0
    5.5665    1.3094    0.8771 H   0  0  0  0  0  0  0  0  0  0  0  0
    5.4180    1.7279   -0.8448 H   0  0  0  0  0  0  0  0  0  0  0  0
    3.2491   -2.1447   -0.8866 H   0  0  0  0  0  0  0  0  0  0  0  0
    0.7660   -1.9585   -0.5212 H   0  0  0  0  0  0  0  0  0  0  0  0
   -0.9688   -0.9474    0.5384 H   0  0  0  0  0  0  0  0  0  0  0  0
   -0.9104    0.7723    1.1860 H   0  0  0  0  0  0  0  0  0  0  0  0
   -0.9757   -0.2140   -1.7226 H   0  0  0  0  0  0  0  0  0  0  0  0
   -0.7017    1.4950   -1.3124 H   0  0  0  0  0  0  0  0  0  0  0  0
   -2.9463    1.0314   -2.0588 H   0  0  0  0  0  0  0  0  0  0  0  0
   -2.9912   -0.8997    0.3312 H   0  0  0  0  0  0  0  0  0  0  0  0
   -2.9028   -1.3380   -1.3870 H   0  0  0  0  0  0  0  0  0  0  0  0
   -5.0375   -0.7704    1.4766 H   0  0  0  0  0  0  0  0  0  0  0  0
   -7.0639   -0.8821    2.6348 H   0  0  0  0  0  0  0  0  0  0  0  0
   -9.5630   -0.9251    2.5415 H   0  0  0  0  0  0  0  0  0  0  0  0
  -11.5820   -0.5748    1.4046 H   0  0  0  0  0  0  0  0  0  0  0  0
  -11.5447   -1.7837    0.0962 H   0  0  0  0  0  0  0  0  0  0  0  0
  -11.4914    0.0350   -0.2554 H   0  0  0  0  0  0  0  0  0  0  0  0
   -9.4485   -0.6337   -1.6788 H   0  0  0  0  0  0  0  0  0  0  0  0
   -2.2115    3.4272   -1.1848 H   0  0  0  0  0  0  0  0  0  0  0  0
   -3.0963    4.1276    1.3242 H   0  0  0  0  0  0  0  0  0  0  0  0
    1.2240    2.0295    0.7775 H   0  0  0  0  0  0  0  0  0  0  0  0
    3.6599    1.8501    0.4200 H   0  0  0  0  0  0  0  0  0  0  0  0
  1  2  1  0
  2  3  1  0
  3  4  1  0
  4  5  1  0
  3  6  1  0
  6  7  1  0
  7  8  1  0
  8  9  1  0
  9 10  2  0
 10 11  1  0
 11 12  2  0
 12 13  1  0
 13 14  1  0
 14 15  1  0
 15 16  1  0
 16 17  1  0
 17 18  2  0
 18 19  1  0
 19 20  2  0
 20 21  1  0
 21 22  2  0
 22 23  1  0
 22 24  1  0
 24 25  2  0
 25 26  1  0
 26 27  1  0
 27 28  2  0
 15 29  1  0
 29 30  2  0
 29 31  1  0
 31 32  1  0
 12 33  1  0
 33 34  2  0
 34  9  1  0
 27 17  1  0
 25 19  1  0
  1 35  1  0
  1 36  1  0
  1 37  1  0
  2 38  1  0
  2 39  1  0
  4 40  1  0
  4 41  1  0
  5 42  1  0
  5 43  1  0
  5 44  1  0
  6 45  1  0
  6 46  1  0
  7 47  1  0
  7 48  1  0
 10 49  1  0
 11 50  1  0
 13 51  1  0
 13 52  1  0
 14 53  1  0
 14 54  1  0
 15 55  1  0
 16 56  1  0
 16 57  1  0
 18 58  1  0
 20 59  1  0
 21 60  1  0
 23 61  1  0
 23 62  1  0
 23 63  1  0
 24 64  1  0
 31 65  1  0
 32 66  1  0
 33 67  1  0
 34 68  1  0
M  END
$$$$
